data_mof_unit_60298.cif
_audit_creation_date              2013-03-05T16:10:11-0500
_audit_creation_method            fapswitch 2.2
_symmetry_space_group_name_H-M    P1
_symmetry_Int_Tables_number       1
_space_group_crystal_system       triclinic
_cell_length_a                    30.337901
_cell_length_b                    42.858752
_cell_length_c                    42.962633
_cell_angle_alpha                 89.999404
_cell_angle_beta                  90.125269
_cell_angle_gamma                 89.948727
_cell_volume                      55861.7746068

loop_
_atom_site_label
_atom_site_type_symbol
_atom_site_description
_atom_site_fract_x
_atom_site_fract_y
_atom_site_fract_z
_atom_type_partial_charge
O1    O     O_R   0.998720 0.199050 0.236460 -0.599764
O2    O     O_R   0.001280 0.800950 0.236460 -0.606957
O3    O     O_R   0.998720 0.800950 0.763540 -0.608590
O4    O     O_R   0.001280 0.199050 0.763540 -0.595187
O5    O     O_R   0.498720 0.699050 0.236460 -0.595000
O6    O     O_R   0.501280 0.300950 0.236460 -0.601132
O7    O     O_R   0.498720 0.300950 0.763540 -0.607141
O8    O     O_R   0.501280 0.699050 0.763540 -0.595720
O9    O     O_R   0.498720 0.199050 0.736460 -0.608339
O10   O     O_R   0.501280 0.800950 0.736460 -0.596011
O11   O     O_R   0.498720 0.800950 0.263540 -0.597346
O12   O     O_R   0.501280 0.199050 0.263540 -0.599185
O13   O     O_R   0.998720 0.699050 0.736460 -0.607103
O14   O     O_R   0.001280 0.300950 0.736460 -0.597332
O15   O     O_R   0.998720 0.300950 0.263540 -0.600228
O16   O     O_R   0.001280 0.699050 0.263540 -0.545016
O17   O     O_R   0.998350 0.236240 0.199260 -0.527295
O18   O     O_R   0.001650 0.763760 0.199260 -0.515701
O19   O     O_R   0.998350 0.763760 0.800740 -0.513295
O20   O     O_R   0.001650 0.236240 0.800740 -0.530546
O21   O     O_R   0.498350 0.736240 0.199260 -0.530951
O22   O     O_R   0.501650 0.263760 0.199260 -0.523225
O23   O     O_R   0.498350 0.263760 0.800740 -0.516246
O24   O     O_R   0.501650 0.736240 0.800740 -0.530720
O25   O     O_R   0.498350 0.236240 0.699260 -0.514092
O26   O     O_R   0.501650 0.763760 0.699260 -0.530919
O27   O     O_R   0.498350 0.763760 0.300740 -0.526378
O28   O     O_R   0.501650 0.236240 0.300740 -0.527046
O29   O     O_R   0.998350 0.736240 0.699260 -0.515981
O30   O     O_R   0.001650 0.263760 0.699260 -0.526195
O31   O     O_R   0.998350 0.263760 0.300740 -0.527200
O32   O     O_R   0.001650 0.736240 0.300740 -0.571159
C1    C     C_R   0.999536 0.207222 0.207504 0.865614
C2    C     C_R   0.000408 0.792842 0.207397 0.853948
C3    C     C_R   0.999595 0.792842 0.792609 0.852465
C4    C     C_R   0.000468 0.207226 0.792490 0.874022
C5    C     C_R   0.499523 0.707225 0.207508 0.875447
C6    C     C_R   0.500357 0.292826 0.207436 0.856842
C7    C     C_R   0.499620 0.292833 0.792581 0.855753
C8    C     C_R   0.500466 0.707226 0.792490 0.874572
C9    C     C_R   0.499611 0.207158 0.707401 0.852982
C10   C     C_R   0.500501 0.792774 0.707506 0.874409
C11   C     C_R   0.499654 0.792825 0.292561 0.866469
C12   C     C_R   0.500462 0.207225 0.292495 0.865982
C13   C     C_R   0.999624 0.707163 0.707415 0.855075
C14   C     C_R   0.000344 0.292826 0.707439 0.864982
C15   C     C_R   0.999509 0.292773 0.292496 0.866246
C16   C     C_R   0.001226 0.707135 0.292547 0.841757
O33   O     O_R   0.934150 0.231190 0.268610 -0.552596
O34   O     O_R   0.065850 0.768810 0.268610 -0.551629
O35   O     O_R   0.934150 0.768810 0.731390 -0.550017
O36   O     O_R   0.065850 0.231190 0.731390 -0.552470
O37   O     O_R   0.434150 0.731190 0.268610 -0.552551
O38   O     O_R   0.565850 0.268810 0.268610 -0.552218
O39   O     O_R   0.434150 0.268810 0.731390 -0.550225
O40   O     O_R   0.565850 0.731190 0.731390 -0.553296
O41   O     O_R   0.434150 0.231190 0.768610 -0.550002
O42   O     O_R   0.565850 0.768810 0.768610 -0.553498
O43   O     O_R   0.434150 0.768810 0.231390 -0.553136
O44   O     O_R   0.565850 0.231190 0.231390 -0.551755
O45   O     O_R   0.934150 0.731190 0.768610 -0.549708
O46   O     O_R   0.065850 0.268810 0.768610 -0.552990
O47   O     O_R   0.934150 0.268810 0.231390 -0.552899
O48   O     O_R   0.065850 0.731190 0.231390 -0.545565
C17   C     C_R   0.913635 0.250031 0.249990 0.897574
C18   C     C_R   0.086372 0.750023 0.249996 0.901164
C19   C     C_R   0.913632 0.750031 0.749991 0.901106
C20   C     C_R   0.086364 0.250014 0.750002 0.897582
C21   C     C_R   0.413639 0.750026 0.249984 0.898257
C22   C     C_R   0.586366 0.250014 0.250002 0.898094
C23   C     C_R   0.413633 0.250031 0.749989 0.901245
C24   C     C_R   0.586363 0.750014 0.750003 0.897192
Cu1   Cu    Cu3+1 0.998750 0.227760 0.272030 1.155907
Cu2   Cu    Cu3+1 0.001250 0.772240 0.272030 1.108981
Cu3   Cu    Cu3+1 0.998750 0.772240 0.727970 1.150036
Cu4   Cu    Cu3+1 0.001250 0.227760 0.727970 1.157078
Cu5   Cu    Cu3+1 0.498750 0.727760 0.272030 1.154594
Cu6   Cu    Cu3+1 0.501250 0.272240 0.272030 1.155579
Cu7   Cu    Cu3+1 0.498750 0.272240 0.727970 1.155783
Cu8   Cu    Cu3+1 0.501250 0.727760 0.727970 1.153785
Cu9   Cu    Cu3+1 0.498750 0.227760 0.772030 1.149905
Cu10  Cu    Cu3+1 0.501250 0.772240 0.772030 1.150124
Cu11  Cu    Cu3+1 0.498750 0.772240 0.227970 1.150468
Cu12  Cu    Cu3+1 0.501250 0.227760 0.227970 1.159209
Cu13  Cu    Cu3+1 0.998750 0.727760 0.772030 1.156657
Cu14  Cu    Cu3+1 0.001250 0.272240 0.772030 1.153511
Cu15  Cu    Cu3+1 0.998750 0.272240 0.227970 1.155153
Cu16  Cu    Cu3+1 0.001250 0.727760 0.227970 1.200863
O49   O     O_R   0.063290 0.231180 0.268590 -0.525515
O50   O     O_R   0.936710 0.768820 0.268590 -0.552498
O51   O     O_R   0.063290 0.768820 0.731410 -0.537641
O52   O     O_R   0.936710 0.231180 0.731410 -0.540977
O53   O     O_R   0.563290 0.731180 0.268590 -0.542739
O54   O     O_R   0.436710 0.268820 0.268590 -0.523435
O55   O     O_R   0.563290 0.268820 0.731410 -0.532306
O56   O     O_R   0.436710 0.731180 0.731410 -0.538176
O57   O     O_R   0.563290 0.231180 0.768590 -0.536577
O58   O     O_R   0.436710 0.768820 0.768590 -0.541083
O59   O     O_R   0.563290 0.768820 0.231410 -0.537864
O60   O     O_R   0.436710 0.231180 0.231410 -0.527529
O61   O     O_R   0.063290 0.731180 0.768590 -0.533773
O62   O     O_R   0.936710 0.268820 0.768590 -0.535869
O63   O     O_R   0.063290 0.268820 0.231410 -0.525482
O64   O     O_R   0.936710 0.731180 0.231410 -0.528444
C25   C     C_R   0.084254 0.249980 0.250021 0.950667
C26   C     C_R   0.915738 0.749961 0.250005 0.919528
C27   C     C_R   0.084317 0.749966 0.750002 0.920633
C28   C     C_R   0.915880 0.249988 0.749992 0.966188
C29   C     C_R   0.584168 0.749975 0.250031 0.966910
C30   C     C_R   0.415736 0.249988 0.249996 0.939238
C31   C     C_R   0.584341 0.249981 0.750036 0.920520
C32   C     C_R   0.415871 0.750068 0.749925 0.978309
C33   C     C_R   0.657178 0.249962 0.221468 0.249316
C34   C     C_R   0.342667 0.750101 0.221440 0.249987
C35   C     C_R   0.657349 0.750077 0.778528 0.250333
C36   C     C_R   0.342816 0.249978 0.778511 0.248768
C37   C     C_R   0.157193 0.749892 0.221443 0.248160
C38   C     C_R   0.842647 0.250189 0.221454 0.250188
C39   C     C_R   0.157353 0.250114 0.778524 0.250055
C40   C     C_R   0.842813 0.749943 0.778515 0.248153
C41   C     C_R   0.157169 0.250041 0.721467 0.249256
C42   C     C_R   0.842634 0.750330 0.721457 0.248496
C43   C     C_R   0.157391 0.750394 0.278495 0.251940
C44   C     C_R   0.842825 0.250082 0.278511 0.250304
C45   C     C_R   0.657166 0.750091 0.721472 0.250281
C46   C     C_R   0.342638 0.250295 0.721453 0.248181
C47   C     C_R   0.657362 0.250194 0.278525 0.250076
C48   C     C_R   0.342836 0.750187 0.278498 0.249129
C49   C     C_R   0.634420 0.250057 0.249999 -0.272081
C50   C     C_R   0.365595 0.750109 0.249971 -0.271761
C51   C     C_R   0.634412 0.750059 0.750002 -0.271145
C52   C     C_R   0.365578 0.250111 0.749981 -0.273489
C53   C     C_R   0.134434 0.750102 0.249976 -0.272908
C54   C     C_R   0.865584 0.250111 0.249982 -0.271516
C55   C     C_R   0.134414 0.250056 0.749998 -0.271679
C56   C     C_R   0.865576 0.750112 0.749985 -0.273457
C57   C     C_R   0.703631 0.250319 0.278570 -0.000544
C58   C     C_R   0.296570 0.750155 0.278545 -0.001589
C59   C     C_R   0.703435 0.750045 0.721418 -0.000664
C60   C     C_R   0.296367 0.250389 0.721407 -0.000784
C61   C     C_R   0.203652 0.750519 0.278540 -0.002210
C62   C     C_R   0.796557 0.250007 0.278563 -0.000519
C63   C     C_R   0.203439 0.249997 0.721414 -0.000940
C64   C     C_R   0.796363 0.750428 0.721413 -0.000761
C65   C     C_R   0.203622 0.250232 0.778570 -0.000735
C66   C     C_R   0.796545 0.749874 0.778566 -0.000804
C67   C     C_R   0.203466 0.749852 0.221390 -0.000670
C68   C     C_R   0.796376 0.250290 0.221407 -0.000487
C69   C     C_R   0.703618 0.750197 0.778575 -0.000717
C70   C     C_R   0.296548 0.249909 0.778562 -0.000819
C71   C     C_R   0.703448 0.249911 0.221415 -0.000720
C72   C     C_R   0.296397 0.750215 0.221387 -0.000704
C73   C     C_R   0.726725 0.250128 0.249991 0.024369
C74   C     C_R   0.273298 0.750192 0.249965 0.023948
C75   C     C_R   0.726713 0.750132 0.749995 0.023903
C76   C     C_R   0.273272 0.250144 0.749986 0.024344
C77   C     C_R   0.226744 0.750192 0.249964 0.023861
C78   C     C_R   0.773281 0.250144 0.249987 0.024247
C79   C     C_R   0.226716 0.250128 0.749990 0.023922
C80   C     C_R   0.773269 0.750148 0.749991 0.024544
C81   C     C_R   0.727335 0.250143 0.306658 -0.120927
C82   C     C_R   0.273046 0.750562 0.306633 -0.121712
C83   C     C_R   0.726956 0.750391 0.693328 -0.121003
C84   C     C_R   0.272662 0.250225 0.693319 -0.122125
C85   C     C_R   0.227348 0.750472 0.306632 -0.119854
C86   C     C_R   0.773035 0.250268 0.306654 -0.120836
C87   C     C_R   0.226960 0.250306 0.693323 -0.121926
C88   C     C_R   0.772658 0.750305 0.693324 -0.121889
C89   C     C_R   0.227326 0.249963 0.806657 -0.121190
C90   C     C_R   0.773022 0.750007 0.806658 -0.121934
C91   C     C_R   0.226992 0.749949 0.193299 -0.122009
C92   C     C_R   0.772672 0.250036 0.193320 -0.120895
C93   C     C_R   0.727322 0.749889 0.806662 -0.120946
C94   C     C_R   0.273026 0.250080 0.806654 -0.122097
C95   C     C_R   0.726970 0.250126 0.193323 -0.121574
C96   C     C_R   0.272696 0.749855 0.193299 -0.121353
H1    H     H_    0.710865 0.249861 0.328962 0.205045
H2    H     H_    0.289658 0.750991 0.328934 0.205869
H3    H     H_    0.710338 0.750767 0.671029 0.205081
H4    H     H_    0.289134 0.249982 0.671015 0.205121
H5    H     H_    0.210869 0.750317 0.328935 0.207677
H6    H     H_    0.789650 0.250603 0.328955 0.205020
H7    H     H_    0.210343 0.250649 0.671023 0.205004
H8    H     H_    0.789129 0.750092 0.671019 0.205189
H9    H     H_    0.210856 0.249611 0.828960 0.205106
H10   H     H_    0.789636 0.750237 0.828961 0.205168
H11   H     H_    0.210378 0.750131 0.170996 0.205082
H12   H     H_    0.789145 0.249717 0.171017 0.205015
H13   H     H_    0.710851 0.749507 0.828964 0.205123
H14   H     H_    0.289640 0.250340 0.828956 0.205063
H15   H     H_    0.710354 0.250400 0.171022 0.204947
H16   H     H_    0.289172 0.749441 0.170999 0.205121
C97   C     C_R   0.024629 0.163029 0.133458 -0.252927
C98   C     C_R   0.988350 0.834992 0.130180 -0.253163
C99   C     C_R   0.010974 0.834893 0.869942 -0.254587
C100  C     C_R   0.974722 0.162872 0.866296 -0.252956
C101  C     C_R   0.525104 0.662865 0.133660 -0.252180
C102  C     C_R   0.483776 0.335536 0.131070 -0.253677
C103  C     C_R   0.514441 0.335281 0.869316 -0.253134
C104  C     C_R   0.474675 0.662862 0.866279 -0.253275
C105  C     C_R   0.512007 0.164995 0.630256 -0.254600
C106  C     C_R   0.475127 0.837136 0.633555 -0.252346
C107  C     C_R   0.516591 0.835576 0.368847 -0.253540
C108  C     C_R   0.475119 0.163013 0.366467 -0.252832
C109  C     C_R   0.013791 0.664800 0.630583 -0.248968
C110  C     C_R   0.983631 0.335554 0.631099 -0.253573
C111  C     C_R   0.024822 0.337040 0.366504 -0.253263
C112  C     C_R   0.981333 0.631533 0.335958 -0.245838
H17   H     H_    0.042642 0.166062 0.111907 0.194200
H18   H     H_    0.977788 0.830390 0.106491 0.195848
H19   H     H_    0.020958 0.830178 0.893736 0.195622
H20   H     H_    0.956265 0.165781 0.887678 0.194395
H21   H     H_    0.543504 0.665763 0.112255 0.194404
H22   H     H_    0.470059 0.331540 0.108087 0.196754
H23   H     H_    0.526936 0.331009 0.892598 0.196242
H24   H     H_    0.456186 0.665761 0.887649 0.194423
H25   H     H_    0.522641 0.169599 0.606617 0.195824
H26   H     H_    0.456719 0.834263 0.612093 0.194341
H27   H     H_    0.530487 0.831598 0.391783 0.196915
H28   H     H_    0.456975 0.166031 0.387968 0.194140
H29   H     H_    0.025721 0.669177 0.607213 0.199514
H30   H     H_    0.969817 0.331581 0.608142 0.197107
H31   H     H_    0.043122 0.334094 0.388005 0.194356
H32   H     H_    0.968352 0.608375 0.331578 0.192802
C113  C     C_R   0.025427 0.186749 0.155761 0.348287
C114  C     C_R   0.985890 0.811229 0.152327 0.355120
C115  C     C_R   0.013383 0.811097 0.847831 0.358042
C116  C     C_R   0.973966 0.186592 0.843985 0.349056
C117  C     C_R   0.525899 0.686580 0.155973 0.350431
C118  C     C_R   0.481341 0.311940 0.153429 0.354009
C119  C     C_R   0.516867 0.311613 0.847044 0.352140
C120  C     C_R   0.473917 0.686579 0.843966 0.349012
C121  C     C_R   0.514355 0.188764 0.652409 0.356949
C122  C     C_R   0.474234 0.813436 0.655875 0.350241
C123  C     C_R   0.518971 0.811974 0.346486 0.355530
C124  C     C_R   0.474366 0.186738 0.344165 0.348026
C125  C     C_R   0.016153 0.688499 0.652822 0.351353
C126  C     C_R   0.981183 0.311969 0.653472 0.354733
C127  C     C_R   0.025674 0.313333 0.344188 0.347580
C128  C     C_R   0.983215 0.652893 0.311545 0.343662
C129  C     C_R   0.001346 0.182824 0.183600 -0.176501
C130  C     C_R   0.999376 0.817369 0.183284 -0.182140
C131  C     C_R   0.000655 0.817372 0.816733 -0.182875
C132  C     C_R   0.998630 0.182828 0.816379 -0.175212
C133  C     C_R   0.501321 0.682828 0.183615 -0.174311
C134  C     C_R   0.499130 0.317328 0.183394 -0.177482
C135  C     C_R   0.500765 0.317346 0.816653 -0.180913
C136  C     C_R   0.498625 0.682829 0.816377 -0.175148
C137  C     C_R   0.500741 0.182628 0.683296 -0.182681
C138  C     C_R   0.498795 0.817166 0.683603 -0.173347
C139  C     C_R   0.500925 0.817330 0.316592 -0.174795
C140  C     C_R   0.498622 0.182831 0.316395 -0.176903
C141  C     C_R   0.000797 0.682643 0.683336 -0.181862
C142  C     C_R   0.999101 0.317329 0.683402 -0.175818
C143  C     C_R   0.001249 0.317158 0.316406 -0.175956
C144  C     C_R   0.000645 0.682981 0.316924 -0.201074
C145  C     C_R   0.978479 0.154917 0.188950 -0.237936
C146  C     C_R   0.013154 0.847610 0.191400 -0.255060
C147  C     C_R   0.987655 0.847770 0.808480 -0.256533
C148  C     C_R   0.022037 0.155081 0.811237 -0.237443
C149  C     C_R   0.477944 0.655101 0.188780 -0.236944
C150  C     C_R   0.516881 0.346717 0.190592 -0.249373
C151  C     C_R   0.484571 0.347121 0.809064 -0.252417
C152  C     C_R   0.522072 0.655096 0.811252 -0.237522
C153  C     C_R   0.486970 0.152381 0.691353 -0.255746
C154  C     C_R   0.522276 0.844851 0.688830 -0.236595
C155  C     C_R   0.482990 0.846696 0.309445 -0.247686
C156  C     C_R   0.521627 0.154940 0.311108 -0.237975
C157  C     C_R   0.985376 0.652719 0.691040 -0.252766
C158  C     C_R   0.016965 0.346691 0.690568 -0.248422
C159  C     C_R   0.977935 0.344936 0.311134 -0.238340
C160  C     C_R   0.016077 0.690776 0.346780 -0.206626
H33   H     H_    0.960607 0.151793 0.210537 0.209614
H34   H     H_    0.023615 0.852429 0.215034 0.216214
H35   H     H_    0.977755 0.852715 0.784751 0.216507
H36   H     H_    0.040357 0.152085 0.789814 0.208844
H37   H     H_    0.459681 0.652116 0.210226 0.208561
H38   H     H_    0.530441 0.350834 0.213572 0.214587
H39   H     H_    0.472211 0.351556 0.785808 0.215090
H40   H     H_    0.540423 0.652110 0.789841 0.208834
H41   H     H_    0.476427 0.147566 0.714936 0.216214
H42   H     H_    0.540539 0.847812 0.710335 0.208549
H43   H     H_    0.469250 0.850781 0.286510 0.213944
H44   H     H_    0.539640 0.151831 0.289572 0.209433
H45   H     H_    0.973563 0.648167 0.714375 0.215541
H46   H     H_    0.030612 0.350795 0.713525 0.214128
H47   H     H_    0.959771 0.347970 0.289594 0.209077
H48   H     H_    0.029005 0.713916 0.351186 0.235614
C161  C     C_R   0.978834 0.130759 0.167068 0.356764
C162  C     C_R   0.014628 0.871701 0.169383 0.359608
C163  C     C_R   0.986226 0.871877 0.830481 0.359762
C164  C     C_R   0.021683 0.130928 0.833125 0.357180
C165  C     C_R   0.478260 0.630952 0.166887 0.358008
C166  C     C_R   0.518287 0.370750 0.168496 0.358679
C167  C     C_R   0.483148 0.371176 0.831132 0.359661
C168  C     C_R   0.521719 0.630944 0.833142 0.357265
C169  C     C_R   0.485607 0.128281 0.669337 0.359711
C170  C     C_R   0.522059 0.868989 0.666923 0.357566
C171  C     C_R   0.481642 0.870745 0.331532 0.358720
C172  C     C_R   0.521250 0.130785 0.332993 0.357125
C173  C     C_R   0.984013 0.628648 0.668987 0.359567
C174  C     C_R   0.018384 0.370713 0.668462 0.358986
C175  C     C_R   0.978188 0.369071 0.333043 0.357242
C176  C     C_R   0.014415 0.669331 0.371308 0.341737
C177  C     C_R   0.001702 0.135185 0.138796 -0.095013
C178  C     C_R   0.002283 0.864965 0.138380 -0.105119
C179  C     C_R   0.997835 0.865016 0.861595 -0.105023
C180  C     C_R   0.998206 0.135185 0.861178 -0.095172
C181  C     C_R   0.501665 0.635194 0.138807 -0.095156
C182  C     C_R   0.501869 0.364683 0.138250 -0.105573
C183  C     C_R   0.497988 0.364804 0.861699 -0.105149
C184  C     C_R   0.498202 0.635189 0.861179 -0.095158
C185  C     C_R   0.498059 0.135019 0.638390 -0.105175
C186  C     C_R   0.498644 0.864775 0.638772 -0.095260
C187  C     C_R   0.498303 0.864701 0.361727 -0.105834
C188  C     C_R   0.498189 0.135185 0.361193 -0.094890
C189  C     C_R   0.998131 0.635135 0.638329 -0.106206
C190  C     C_R   0.001859 0.364669 0.638242 -0.105863
C191  C     C_R   0.001470 0.364767 0.361239 -0.095501
C192  C     C_R   0.997161 0.639279 0.365577 -0.098122
C193  C     C_R   0.041600 0.099466 0.103079 -0.121038
C194  C     C_R   0.962622 0.905943 0.108789 -0.108960
C195  C     C_R   0.037474 0.905957 0.891186 -0.107648
C196  C     C_R   0.958331 0.099280 0.896697 -0.121019
C197  C     C_R   0.541565 0.599266 0.103286 -0.120299
C198  C     C_R   0.462544 0.405966 0.108804 -0.113758
C199  C     C_R   0.537467 0.405913 0.891201 -0.112190
C200  C     C_R   0.458329 0.599267 0.896684 -0.121196
C201  C     C_R   0.537693 0.094092 0.608810 -0.109145
C202  C     C_R   0.458693 0.900748 0.603225 -0.120904
C203  C     C_R   0.537587 0.905938 0.391205 -0.113280
C204  C     C_R   0.458308 0.099469 0.396888 -0.121088
C205  C     C_R   0.037679 0.594112 0.608806 -0.109040
C206  C     C_R   0.962575 0.406011 0.608849 -0.113461
C207  C     C_R   0.041409 0.400623 0.396865 -0.125315
C208  C     C_R   0.037337 0.604816 0.402424 -0.069561
H49   H     H_    0.072652 0.107305 0.112805 0.154612
H50   H     H_    0.933582 0.901926 0.122854 0.153919
H51   H     H_    0.066521 0.901915 0.877125 0.153688
H52   H     H_    0.927291 0.106958 0.886795 0.154703
H53   H     H_    0.572599 0.606937 0.113173 0.155601
H54   H     H_    0.433653 0.402257 0.123105 0.154878
H55   H     H_    0.566419 0.402041 0.876995 0.154541
H56   H     H_    0.427291 0.606930 0.886768 0.154548
H57   H     H_    0.566781 0.098118 0.622913 0.153772
H58   H     H_    0.427685 0.893084 0.613062 0.155175
H59   H     H_    0.566484 0.902219 0.376904 0.155042
H60   H     H_    0.427252 0.107302 0.387134 0.154691
H61   H     H_    0.066711 0.598040 0.622994 0.154965
H62   H     H_    0.933710 0.402341 0.623186 0.155328
H63   H     H_    0.072430 0.392875 0.387083 0.153419
H64   H     H_    0.068195 0.615298 0.395306 0.155178
C209  C     C_R   0.041704 0.076984 0.079687 -0.159685
C210  C     C_R   0.961346 0.928218 0.085154 -0.160912
C211  C     C_R   0.038728 0.928218 0.914834 -0.160870
C212  C     C_R   0.958241 0.076801 0.920097 -0.159669
C213  C     C_R   0.541680 0.576786 0.079889 -0.159266
C214  C     C_R   0.461387 0.428331 0.085246 -0.160635
C215  C     C_R   0.538679 0.428235 0.914797 -0.160714
C216  C     C_R   0.458241 0.576787 0.920084 -0.159522
C217  C     C_R   0.538899 0.071822 0.585168 -0.160401
C218  C     C_R   0.458518 0.923232 0.579839 -0.160429
C219  C     C_R   0.538705 0.928300 0.414766 -0.160372
C220  C     C_R   0.458224 0.076987 0.420284 -0.160468
C221  C     C_R   0.038865 0.571809 0.585192 -0.156942
C222  C     C_R   0.961418 0.428379 0.585293 -0.159484
C223  C     C_R   0.041562 0.423112 0.420248 -0.166848
C224  C     C_R   0.037649 0.581068 0.424531 -0.165091
H65   H     H_    0.073014 0.067890 0.071705 0.168964
H66   H     H_    0.931281 0.941350 0.081423 0.166569
H67   H     H_    0.068783 0.941319 0.918579 0.166606
H68   H     H_    0.926959 0.067549 0.927908 0.168964
H69   H     H_    0.572976 0.567528 0.072068 0.169547
H70   H     H_    0.431556 0.441802 0.081798 0.166540
H71   H     H_    0.568607 0.441530 0.918365 0.166717
H72   H     H_    0.426961 0.567519 0.927880 0.169083
H73   H     H_    0.568958 0.058701 0.581468 0.166533
H74   H     H_    0.427198 0.932498 0.571977 0.169138
H75   H     H_    0.568515 0.941757 0.418218 0.166437
H76   H     H_    0.426927 0.067888 0.428243 0.168956
H77   H     H_    0.068853 0.558578 0.581594 0.167723
H78   H     H_    0.931615 0.441891 0.581882 0.167468
H79   H     H_    0.072879 0.432298 0.428166 0.167461
H80   H     H_    0.068906 0.573779 0.434352 0.167729
C225  C     C_R   0.001779 0.066311 0.066965 -0.046182
C226  C     C_R   0.998883 0.933736 0.066899 -0.042806
C227  C     C_R   0.001180 0.933758 0.933084 -0.042816
C228  C     C_R   0.998156 0.066317 0.933035 -0.046242
C229  C     C_R   0.501777 0.566312 0.066968 -0.046543
C230  C     C_R   0.498769 0.433551 0.066746 -0.042858
C231  C     C_R   0.501233 0.433620 0.933198 -0.042942
C232  C     C_R   0.498154 0.566320 0.933037 -0.046407
C233  C     C_R   0.501291 0.066286 0.566877 -0.042664
C234  C     C_R   0.498383 0.933696 0.566973 -0.046216
C235  C     C_R   0.501309 0.933542 0.433261 -0.042700
C236  C     C_R   0.498157 0.066316 0.433037 -0.046283
C237  C     C_R   0.001318 0.566364 0.566811 -0.043252
C238  C     C_R   0.998768 0.433552 0.566747 -0.043199
C239  C     C_R   0.001679 0.433681 0.433040 -0.046204
C240  C     C_R   0.997960 0.567069 0.433868 -0.045616
C241  C     C_R   0.961784 0.078700 0.077883 -0.164371
C242  C     C_R   0.037458 0.916370 0.072348 -0.166706
C243  C     C_R   0.962613 0.916441 0.927610 -0.166842
C244  C     C_R   0.038114 0.078902 0.922336 -0.164240
C245  C     C_R   0.461801 0.578905 0.077683 -0.164627
C246  C     C_R   0.537008 0.415704 0.071791 -0.165647
C247  C     C_R   0.462854 0.416017 0.927985 -0.166189
C248  C     C_R   0.538110 0.578925 0.922357 -0.164302
C249  C     C_R   0.462726 0.083640 0.572282 -0.166682
C250  C     C_R   0.538390 0.921094 0.577744 -0.164162
C251  C     C_R   0.463101 0.915710 0.428214 -0.165480
C252  C     C_R   0.538134 0.078712 0.422155 -0.164260
C253  C     C_R   0.962858 0.583880 0.572066 -0.161511
C254  C     C_R   0.036971 0.415654 0.571742 -0.166815
C255  C     C_R   0.961677 0.421176 0.422205 -0.165341
C256  C     C_R   0.958017 0.577118 0.420618 -0.162378
H81   H     H_    0.930521 0.071028 0.068403 0.167110
H82   H     H_    0.066728 0.920017 0.058434 0.163872
H83   H     H_    0.933329 0.920111 0.941515 0.164006
H84   H     H_    0.069368 0.071386 0.931990 0.167126
H85   H     H_    0.430556 0.571393 0.068041 0.167064
H86   H     H_    0.566115 0.419086 0.057639 0.163250
H87   H     H_    0.433678 0.419538 0.942039 0.163562
H88   H     H_    0.569362 0.571423 0.932025 0.167281
H89   H     H_    0.433401 0.079985 0.558336 0.163549
H90   H     H_    0.569604 0.928603 0.568147 0.167223
H91   H     H_    0.433986 0.919104 0.442362 0.162887
H92   H     H_    0.569404 0.071044 0.431660 0.167316
H93   H     H_    0.933596 0.580310 0.558031 0.164396
H94   H     H_    0.066050 0.418999 0.557554 0.162624
H95   H     H_    0.930448 0.428765 0.431744 0.167511
H96   H     H_    0.926955 0.566691 0.427322 0.168976
C257  C     C_R   0.961745 0.101224 0.101244 -0.066533
C258  C     C_R   0.038483 0.893854 0.095684 -0.070217
C259  C     C_R   0.961607 0.893945 0.904262 -0.071898
C260  C     C_R   0.038138 0.101430 0.898979 -0.066592
C261  C     C_R   0.461752 0.601436 0.101038 -0.066832
C262  C     C_R   0.537891 0.393066 0.095033 -0.063599
C263  C     C_R   0.461906 0.393441 0.904698 -0.066039
C264  C     C_R   0.538132 0.601455 0.899002 -0.066450
C265  C     C_R   0.461768 0.106146 0.595622 -0.069954
C266  C     C_R   0.538500 0.898552 0.601095 -0.066567
C267  C     C_R   0.462256 0.893076 0.404968 -0.063514
C268  C     C_R   0.538153 0.101236 0.398795 -0.066768
C269  C     C_R   0.961928 0.606429 0.595372 -0.063540
C270  C     C_R   0.037850 0.393010 0.594980 -0.063536
C271  C     C_R   0.961589 0.398635 0.398856 -0.065802
C272  C     C_R   0.957787 0.600782 0.398435 -0.118698
H97   H     H_    0.930668 0.110655 0.109331 0.155674
H98   H     H_    0.068297 0.880455 0.099539 0.156756
H99   H     H_    0.931798 0.880583 0.900389 0.156849
H100  H     H_    0.069190 0.111012 0.891072 0.155813
H101  H     H_    0.430687 0.611028 0.108958 0.155750
H102  H     H_    0.567465 0.379326 0.098600 0.156485
H103  H     H_    0.432231 0.379878 0.901012 0.156625
H104  H     H_    0.569183 0.611053 0.891109 0.155941
H105  H     H_    0.431953 0.119526 0.599447 0.156705
H106  H     H_    0.569581 0.888945 0.609059 0.155869
H107  H     H_    0.432701 0.879354 0.401395 0.156405
H108  H     H_    0.569220 0.110669 0.390739 0.155757
H109  H     H_    0.932187 0.619923 0.599089 0.157137
H110  H     H_    0.067395 0.379228 0.598507 0.156307
H111  H     H_    0.930510 0.389111 0.390836 0.156026
H112  H     H_    0.926756 0.608266 0.388370 0.156535
C273  C     C_R   0.001629 0.111485 0.114120 0.158391
C274  C     C_R   0.001265 0.888894 0.114158 0.158946
C275  C     C_R   0.998844 0.888944 0.885809 0.159194
C276  C     C_R   0.998277 0.111490 0.885868 0.158153
C277  C     C_R   0.501605 0.611489 0.114128 0.157884
C278  C     C_R   0.500917 0.388520 0.113884 0.158653
C279  C     C_R   0.498976 0.388684 0.885997 0.158469
C280  C     C_R   0.498273 0.611497 0.885873 0.158187
C281  C     C_R   0.499046 0.111113 0.614147 0.159107
C282  C     C_R   0.498677 0.888502 0.614116 0.158104
C283  C     C_R   0.499236 0.888517 0.386114 0.158937
C284  C     C_R   0.498267 0.111489 0.385877 0.158324
C285  C     C_R   0.999110 0.611257 0.614040 0.157637
C286  C     C_R   0.000914 0.388512 0.613880 0.158634
C287  C     C_R   0.001429 0.388484 0.385903 0.160001
C288  C     C_R   0.997389 0.614851 0.389446 0.162436
C289  C     C_R   0.202852 0.274312 0.235541 0.310269
C290  C     C_R   0.796644 0.743503 0.222654 0.297777
C291  C     C_R   0.203164 0.740863 0.777282 0.295911
C292  C     C_R   0.797421 0.277923 0.754061 0.304953
C293  C     C_R   0.702799 0.778081 0.249878 0.302762
C294  C     C_R   0.297089 0.225605 0.235240 0.309644
C295  C     C_R   0.703552 0.240351 0.776779 0.296758
C296  C     C_R   0.297504 0.778605 0.752096 0.306080
C297  C     C_R   0.703259 0.259775 0.723413 0.293494
C298  C     C_R   0.297522 0.721750 0.747959 0.305808
C299  C     C_R   0.702472 0.721112 0.250947 0.305299
C300  C     C_R   0.297075 0.274083 0.264997 0.311536
C301  C     C_R   0.203443 0.758384 0.723256 0.295766
C302  C     C_R   0.797756 0.221510 0.745949 0.303964
C303  C     C_R   0.202897 0.225415 0.264618 0.311626
C304  C     C_R   0.797214 0.756099 0.278060 0.301146
C305  C     C_R   0.156397 0.275616 0.237625 0.246219
C306  C     C_R   0.843356 0.742912 0.222524 0.235607
C307  C     C_R   0.156464 0.741548 0.777410 0.228595
C308  C     C_R   0.844068 0.278280 0.752417 0.237650
C309  C     C_R   0.656135 0.778219 0.247939 0.234238
C310  C     C_R   0.343571 0.224365 0.237275 0.243804
C311  C     C_R   0.656841 0.239801 0.776752 0.237986
C312  C     C_R   0.344206 0.778620 0.752471 0.240632
C313  C     C_R   0.656560 0.259130 0.723102 0.231131
C314  C     C_R   0.344235 0.721651 0.748375 0.242721
C315  C     C_R   0.655803 0.721290 0.252432 0.240187
C316  C     C_R   0.343522 0.275427 0.262871 0.244485
C317  C     C_R   0.156736 0.759057 0.723151 0.236690
C318  C     C_R   0.844402 0.221381 0.747686 0.244379
C319  C     C_R   0.156423 0.224206 0.262514 0.245186
C320  C     C_R   0.843946 0.755502 0.278102 0.230740
C321  C     C_R   0.133080 0.249933 0.250060 -0.169653
C322  C     C_R   0.866869 0.749880 0.250082 -0.183714
C323  C     C_R   0.133285 0.749812 0.750034 -0.194488
C324  C     C_R   0.867283 0.249887 0.750031 -0.156328
C325  C     C_R   0.632858 0.749835 0.250101 -0.153036
C326  C     C_R   0.366891 0.249929 0.250037 -0.175032
C327  C     C_R   0.633351 0.250012 0.750129 -0.195117
C328  C     C_R   0.367251 0.750165 0.749793 -0.151819
C329  C     C_R   0.225681 0.249845 0.250089 0.077293
C330  C     C_R   0.774150 0.749253 0.250559 0.097987
C331  C     C_R   0.226061 0.750233 0.750569 0.097105
C332  C     C_R   0.774799 0.249664 0.749927 0.098811
C333  C     C_R   0.725448 0.749512 0.250580 0.098792
C334  C     C_R   0.274277 0.249830 0.250125 0.077135
C335  C     C_R   0.726145 0.249474 0.749862 0.098152
C336  C     C_R   0.274742 0.750136 0.750755 0.096810
O65   O     O_R   0.960850 0.531910 0.467880 -0.583229
O66   O     O_R   0.039150 0.468090 0.467880 -0.585120
O67   O     O_R   0.960850 0.468090 0.532120 -0.580925
O68   O     O_R   0.039150 0.531910 0.532120 -0.579361
O69   O     O_R   0.460850 0.031910 0.467880 -0.582468
O70   O     O_R   0.539150 0.968090 0.467880 -0.582205
O71   O     O_R   0.460850 0.968090 0.532120 -0.582719
O72   O     O_R   0.539150 0.031910 0.532120 -0.582091
O73   O     O_R   0.460850 0.531910 0.967880 -0.581527
O74   O     O_R   0.539150 0.468090 0.967880 -0.583206
O75   O     O_R   0.460850 0.468090 0.032120 -0.583321
O76   O     O_R   0.539150 0.531910 0.032120 -0.581241
O77   O     O_R   0.960850 0.031910 0.967880 -0.581631
O78   O     O_R   0.039150 0.968090 0.967880 -0.583183
O79   O     O_R   0.960850 0.968090 0.032120 -0.583239
O80   O     O_R   0.039150 0.031910 0.032120 -0.581617
O81   O     O_R   0.035590 0.531900 0.467860 -0.582704
O82   O     O_R   0.964410 0.468100 0.467860 -0.582614
O83   O     O_R   0.035590 0.468100 0.532140 -0.580419
O84   O     O_R   0.964410 0.531900 0.532140 -0.580569
O85   O     O_R   0.535590 0.031900 0.467860 -0.583262
O86   O     O_R   0.464410 0.968100 0.467860 -0.579023
O87   O     O_R   0.535590 0.968100 0.532140 -0.583145
O88   O     O_R   0.464410 0.031900 0.532140 -0.579916
O89   O     O_R   0.535590 0.531900 0.967860 -0.583690
O90   O     O_R   0.464410 0.468100 0.967860 -0.578814
O91   O     O_R   0.535590 0.468100 0.032140 -0.578315
O92   O     O_R   0.464410 0.531900 0.032140 -0.583913
O93   O     O_R   0.035590 0.031900 0.967860 -0.583770
O94   O     O_R   0.964410 0.968100 0.967860 -0.579326
O95   O     O_R   0.035590 0.968100 0.032140 -0.579201
O96   O     O_R   0.964410 0.031900 0.032140 -0.583874
C337  C     C_R   0.998141 0.542384 0.457571 0.802343
C338  C     C_R   0.001779 0.457711 0.457452 0.797338
C339  C     C_R   0.998278 0.457681 0.542490 0.799618
C340  C     C_R   0.001770 0.542298 0.542504 0.804113
C341  C     C_R   0.498164 0.042289 0.457451 0.801041
C342  C     C_R   0.501747 0.957677 0.457513 0.800288
C343  C     C_R   0.498244 0.957714 0.542552 0.800839
C344  C     C_R   0.501768 0.042278 0.542521 0.800684
C345  C     C_R   0.498164 0.542291 0.957452 0.801933
C346  C     C_R   0.501738 0.457698 0.957497 0.799127
C347  C     C_R   0.498277 0.457680 0.042489 0.799014
C348  C     C_R   0.501813 0.542288 0.042550 0.802019
C349  C     C_R   0.998164 0.042290 0.957451 0.802022
C350  C     C_R   0.001733 0.957735 0.957468 0.799850
C351  C     C_R   0.998290 0.957728 0.042528 0.799831
C352  C     C_R   0.001812 0.042287 0.042550 0.802084
Cu17  Cu    Cu3+1 0.954280 0.000000 0.000000 0.994179
Cu18  Cu    Cu3+1 0.045720 0.000000 0.000000 0.994420
Cu19  Cu    Cu3+1 0.454280 0.500000 0.000000 0.994668
Cu20  Cu    Cu3+1 0.545720 0.500000 0.000000 0.995777
Cu21  Cu    Cu3+1 0.454280 0.000000 0.500000 0.996838
Cu22  Cu    Cu3+1 0.545720 0.000000 0.500000 0.992548
Cu23  Cu    Cu3+1 0.954280 0.500000 0.500000 0.995302
Cu24  Cu    Cu3+1 0.045720 0.500000 0.500000 0.994379
N1    N     N_R   0.633149 0.250942 0.192631 0.128606
O97   O     O_R   0.633289 0.226907 0.174134 -0.312080
O98   O     O_R   0.608726 0.274992 0.185898 -0.357450
N2    N     N_R   0.366524 0.748932 0.192614 0.128302
O99   O     O_R   0.366309 0.772856 0.173973 -0.315049
O100  O     O_R   0.390873 0.724824 0.186027 -0.358472
N3    N     N_R   0.633505 0.748940 0.807361 0.128377
O101  O     O_R   0.633649 0.772890 0.825968 -0.314876
O102  O     O_R   0.609213 0.724841 0.813975 -0.357866
N4    N     N_R   0.366838 0.250929 0.807351 0.128684
O103  O     O_R   0.366763 0.226873 0.825822 -0.311710
O104  O     O_R   0.391208 0.274969 0.814106 -0.356668
N5    N     N_R   0.133164 0.750731 0.192602 0.128635
O105  O     O_R   0.133336 0.726617 0.174208 -0.308066
O106  O     O_R   0.108708 0.774736 0.185765 -0.356374
N6    N     N_R   0.866493 0.249119 0.192620 0.128362
O107  O     O_R   0.866292 0.273114 0.174070 -0.314181
O108  O     O_R   0.890819 0.225026 0.185939 -0.357125
N7    N     N_R   0.133512 0.249014 0.807359 0.128337
O109  O     O_R   0.133652 0.272989 0.825933 -0.314708
O110  O     O_R   0.109231 0.224919 0.814010 -0.357914
N8    N     N_R   0.866834 0.750852 0.807358 0.129036
O111  O     O_R   0.866757 0.726770 0.825795 -0.309637
O112  O     O_R   0.891210 0.774880 0.814147 -0.355140
N9    N     N_R   0.133135 0.251090 0.692635 0.128578
O113  O     O_R   0.133300 0.227109 0.674068 -0.312570
O114  O     O_R   0.108686 0.275147 0.685971 -0.358486
N10   N     N_R   0.866472 0.749407 0.692613 0.128876
O115  O     O_R   0.866262 0.773496 0.674185 -0.311156
O116  O     O_R   0.890799 0.725350 0.685806 -0.355524
N11   N     N_R   0.133577 0.749456 0.307340 0.129318
O117  O     O_R   0.133464 0.773605 0.325687 -0.312520
O118  O     O_R   0.109799 0.725210 0.314317 -0.362116
N12   N     N_R   0.866851 0.251150 0.307344 0.128353
O119  O     O_R   0.866799 0.227165 0.325906 -0.313938
O120  O     O_R   0.891205 0.275225 0.314004 -0.357419
N13   N     N_R   0.633131 0.751201 0.692643 0.128361
O121  O     O_R   0.633272 0.727252 0.674035 -0.314330
O122  O     O_R   0.608711 0.775283 0.686021 -0.358506
N14   N     N_R   0.366480 0.249349 0.692610 0.128931
O123  O     O_R   0.366252 0.273416 0.674154 -0.310884
O124  O     O_R   0.390828 0.225295 0.685831 -0.355249
N15   N     N_R   0.633524 0.249165 0.307364 0.128345
O125  O     O_R   0.633641 0.273195 0.325868 -0.314049
O126  O     O_R   0.609267 0.225079 0.314084 -0.357044
N16   N     N_R   0.366863 0.751308 0.307330 0.128649
O127  O     O_R   0.366720 0.727385 0.325971 -0.312132
O128  O     O_R   0.391295 0.775363 0.313918 -0.358485
O129  O     O_3   0.226849 0.296406 0.219396 -0.679536
H113  H     H_    0.207947 0.305512 0.202904 0.352328
O130  O     O_3   0.771971 0.739572 0.195859 -0.683680
H114  H     H_    0.789405 0.746838 0.177809 0.355166
O131  O     O_3   0.227402 0.730845 0.802661 -0.680947
H115  H     H_    0.209774 0.715391 0.814394 0.356680
O132  O     O_3   0.773016 0.304534 0.759814 -0.692712
H116  H     H_    0.791296 0.319324 0.771948 0.351836
O133  O     O_3   0.727216 0.805254 0.251114 -0.693757
H117  H     H_    0.709191 0.821777 0.260973 0.352682
O134  O     O_3   0.273054 0.203695 0.218804 -0.677107
H118  H     H_    0.291870 0.194847 0.202183 0.352440
O135  O     O_3   0.728131 0.233131 0.802936 -0.683557
H119  H     H_    0.710671 0.238221 0.821707 0.356139
O136  O     O_3   0.273109 0.805850 0.752352 -0.688833
H120  H     H_    0.290429 0.822570 0.742237 0.355331
O137  O     O_3   0.727509 0.270679 0.698494 -0.685154
H121  H     H_    0.709846 0.286517 0.687222 0.355935
O138  O     O_3   0.273156 0.694803 0.744025 -0.691451
H122  H     H_    0.290876 0.679564 0.732062 0.351076
O139  O     O_3   0.726588 0.693773 0.249756 -0.683226
H123  H     H_    0.708469 0.677422 0.239680 0.356466
O140  O     O_3   0.273056 0.295940 0.281482 -0.677877
H124  H     H_    0.291966 0.304802 0.298088 0.352961
O141  O     O_3   0.227991 0.764561 0.696904 -0.685786
H125  H     H_    0.210464 0.758851 0.678295 0.356401
O142  O     O_3   0.773665 0.194757 0.740247 -0.689554
H126  H     H_    0.792102 0.180006 0.728213 0.351183
O143  O     O_3   0.226953 0.203276 0.280772 -0.676498
H127  H     H_    0.208125 0.194200 0.297250 0.352794
O144  O     O_3   0.773117 0.763681 0.304252 -0.687923
H128  H     H_    0.790853 0.777895 0.317430 0.353656
O145  O     O_3   0.133299 0.301816 0.228286 -0.671768
H129  H     H_    0.152518 0.320359 0.230522 0.351498
O146  O     O_3   0.866721 0.735614 0.195944 -0.641408
H130  H     H_    0.849155 0.720841 0.183268 0.359677
O147  O     O_3   0.132798 0.735675 0.804216 -0.646355
H131  H     H_    0.150822 0.741701 0.822494 0.363094
O148  O     O_3   0.867720 0.305825 0.752174 -0.688209
H132  H     H_    0.848982 0.322587 0.743373 0.350940
O149  O     O_3   0.632492 0.805583 0.244566 -0.688457
H133  H     H_    0.650707 0.820815 0.232993 0.353707
O150  O     O_3   0.366689 0.198344 0.227547 -0.670244
H134  H     H_    0.347566 0.179732 0.229560 0.352559
O151  O     O_3   0.633536 0.229381 0.802298 -0.640856
H135  H     H_    0.651019 0.213041 0.812989 0.353814
O152  O     O_3   0.368121 0.805892 0.755384 -0.684588
H136  H     H_    0.350844 0.820973 0.767861 0.352439
O153  O     O_3   0.632948 0.265934 0.696412 -0.645650
H137  H     H_    0.650987 0.260460 0.678017 0.363224
O154  O     O_3   0.368221 0.694221 0.748916 -0.685656
H138  H     H_    0.350328 0.677740 0.758930 0.351891
O155  O     O_3   0.631839 0.694067 0.255499 -0.683399
H139  H     H_    0.649731 0.678696 0.267227 0.353060
O156  O     O_3   0.366550 0.301498 0.272568 -0.671506
H140  H     H_    0.347272 0.320067 0.270607 0.351207
O157  O     O_3   0.133377 0.768669 0.697235 -0.640748
H141  H     H_    0.150926 0.784522 0.685974 0.354714
O158  O     O_3   0.868380 0.193947 0.748048 -0.684306
H142  H     H_    0.849889 0.177139 0.756920 0.352541
O159  O     O_3   0.133327 0.198059 0.271852 -0.671153
H143  H     H_    0.152503 0.179475 0.269635 0.352158
O160  O     O_3   0.867966 0.758776 0.305279 -0.687893
H144  H     H_    0.850065 0.751194 0.322973 0.349096
N17   N     N_R   0.052377 0.213773 0.150350 0.142780
O161  O     O_R   0.056318 0.224954 0.122333 -0.303983
O162  O     O_R   0.078624 0.223947 0.172086 -0.347790
N18   N     N_R   0.967451 0.781766 0.143251 0.144803
O163  O     O_R   0.977649 0.769647 0.116444 -0.298911
O164  O     O_R   0.934324 0.770289 0.158635 -0.296471
N19   N     N_R   0.030984 0.781428 0.857125 0.146493
O165  O     O_R   0.019688 0.769360 0.883728 -0.298581
O166  O     O_R   0.064458 0.769687 0.842294 -0.313198
N20   N     N_R   0.946492 0.213440 0.849132 0.142104
O167  O     O_R   0.941672 0.224512 0.877123 -0.304866
O168  O     O_R   0.920691 0.223550 0.827087 -0.344296
N21   N     N_R   0.553329 0.713409 0.150789 0.142157
O169  O     O_R   0.558042 0.724486 0.122792 -0.305401
O170  O     O_R   0.579197 0.723491 0.172793 -0.341832
N22   N     N_R   0.458630 0.283549 0.145774 0.145043
O171  O     O_R   0.462455 0.271595 0.118067 -0.301139
O172  O     O_R   0.428210 0.272870 0.164231 -0.337114
N23   N     N_R   0.537937 0.282750 0.855288 0.144152
O173  O     O_R   0.531566 0.270668 0.882696 -0.301667
O174  O     O_R   0.569556 0.271798 0.838021 -0.303098
N24   N     N_R   0.446401 0.713411 0.849089 0.141863
O175  O     O_R   0.441509 0.724473 0.877078 -0.305292
O176  O     O_R   0.420638 0.723514 0.827018 -0.346509
N25   N     N_R   0.532813 0.218231 0.643423 0.145991
O177  O     O_R   0.522758 0.230328 0.616548 -0.300179
O178  O     O_R   0.565836 0.229736 0.658998 -0.315618
N26   N     N_R   0.446723 0.786647 0.650608 0.142301
O179  O     O_R   0.441974 0.775576 0.622598 -0.304395
O180  O     O_R   0.420839 0.776595 0.672536 -0.342206
N27   N     N_R   0.541884 0.783612 0.354057 0.144413
O181  O     O_R   0.538408 0.771687 0.381798 -0.302597
O182  O     O_R   0.572140 0.772929 0.335446 -0.335657
N28   N     N_R   0.447299 0.213753 0.349507 0.142797
O183  O     O_R   0.443123 0.224904 0.377520 -0.303573
O184  O     O_R   0.421191 0.223952 0.327685 -0.346637
N29   N     N_R   0.036405 0.717548 0.644388 0.144787
O185  O     O_R   0.028882 0.729659 0.617113 -0.296166
O186  O     O_R   0.068482 0.728636 0.661210 -0.299881
N30   N     N_R   0.958317 0.283625 0.645875 0.144696
O187  O     O_R   0.961918 0.271676 0.618151 -0.302058
O188  O     O_R   0.927985 0.272991 0.664430 -0.335948
N31   N     N_R   0.053003 0.286429 0.349526 0.142611
O189  O     O_R   0.057509 0.275323 0.377545 -0.303761
O190  O     O_R   0.078975 0.276287 0.327676 -0.348589
N32   N     N_R   0.966575 0.643682 0.281742 0.135416
O191  O     O_R   0.925265 0.636078 0.278902 -0.317558
O192  O     O_R   0.994075 0.635808 0.259914 -0.292388
N33   N     N_R   0.956991 0.101847 0.174295 0.127212
O193  O     O_R   0.922784 0.101713 0.192527 -0.311176
O194  O     O_R   0.974236 0.075305 0.166031 -0.311175
N34   N     N_R   0.028187 0.902485 0.179098 0.140334
O195  O     O_R   0.025378 0.910553 0.208236 -0.306735
O196  O     O_R   0.046161 0.921910 0.159641 -0.319017
N35   N     N_R   0.973376 0.902794 0.820666 0.140210
O197  O     O_R   0.976991 0.910884 0.791581 -0.306417
O198  O     O_R   0.955179 0.922319 0.839943 -0.318514
N36   N     N_R   0.044140 0.102174 0.826113 0.127069
O199  O     O_R   0.078836 0.102309 0.808352 -0.311294
O200  O     O_R   0.027061 0.075504 0.834066 -0.310816
N37   N     N_R   0.455844 0.602216 0.173923 0.126896
O201  O     O_R   0.421187 0.602380 0.191722 -0.312789
O202  O     O_R   0.472931 0.575533 0.165953 -0.311634
N38   N     N_R   0.535569 0.400833 0.177536 0.141435
O203  O     O_R   0.537866 0.408408 0.206836 -0.305276
O204  O     O_R   0.551273 0.420230 0.157103 -0.321072
N39   N     N_R   0.467319 0.401575 0.821815 0.140890
O205  O     O_R   0.467214 0.409442 0.792550 -0.305881
O206  O     O_R   0.450460 0.420894 0.841882 -0.320605
N40   N     N_R   0.544218 0.602203 0.826145 0.126974
O207  O     O_R   0.578937 0.602357 0.808407 -0.311482
O208  O     O_R   0.527157 0.575524 0.834087 -0.311545
N41   N     N_R   0.472057 0.097490 0.679002 0.140431
O209  O     O_R   0.474713 0.089456 0.708165 -0.306437
O210  O     O_R   0.454276 0.078011 0.659456 -0.319147
N42   N     N_R   0.544572 0.897688 0.674021 0.127015
O211  O     O_R   0.579237 0.897468 0.691918 -0.311634
O212  O     O_R   0.527563 0.924399 0.666006 -0.310916
N43   N     N_R   0.464183 0.900813 0.322520 0.141515
O213  O     O_R   0.461383 0.908277 0.293212 -0.305353
O214  O     O_R   0.448917 0.920349 0.343006 -0.321607
N44   N     N_R   0.543264 0.101895 0.325835 0.126939
O215  O     O_R   0.577676 0.101808 0.307799 -0.311600
O216  O     O_R   0.526012 0.075333 0.333957 -0.311885
N45   N     N_R   0.968922 0.598124 0.678387 0.140769
O217  O     O_R   0.969646 0.590208 0.707635 -0.305449
O218  O     O_R   0.951847 0.578747 0.658435 -0.322578
N46   N     N_R   0.035784 0.400770 0.677465 0.141375
O219  O     O_R   0.037948 0.408422 0.706749 -0.304685
O220  O     O_R   0.051772 0.420039 0.657023 -0.322932
N47   N     N_R   0.955838 0.397853 0.325906 0.126351
O221  O     O_R   0.921250 0.397764 0.307934 -0.312001
O222  O     O_R   0.972928 0.424501 0.333974 -0.321247
N48   N     N_R   0.029191 0.678709 0.401783 0.128398
O223  O     O_R   0.059468 0.700008 0.404718 -0.294625
O224  O     O_R   0.009165 0.668774 0.426633 -0.321804

loop_
_geom_bond_atom_site_label_1
_geom_bond_atom_site_label_2
_geom_bond_distance
_ccdc_geom_bond_type
O61   C27   1.302318 A    
N20   O168  1.301386 A    
O47   C17   1.294891 A    
C40   C66   1.403698 A    
O147  H131  0.990312 S    
C116  N20   1.437629 S    
C170  C186  1.412969 A    
C299  O139  1.381855 S    
N1    O97   1.301034 A    
C33   C71   1.403732 A    
C36   C52   1.408188 A    
C212  H68   1.082863 S    
C299  C315  1.417434 A    
O37   C21   1.294682 A    
N30   O187  1.301290 A    
O90   C346  1.296444 A    
O4    C4    1.292496 A    
O149  H133  0.990247 S    
C297  C313  1.417087 A    
C267  C283  1.398761 A    
O159  H143  0.990647 S    
N25   O178  1.300986 A    
O60   C30   1.301379 A    
N23   O174  1.301207 A    
O71   C343  1.297108 A    
C320  O160  1.382216 S    
C265  C281  1.397949 A    
C126  C142  1.413850 A    
O80   Cu18  1.953241 S    
C238  C254  1.405375 A    
O5    C5    1.292519 A    
C188  C284  1.468339 S    
C291  C307  1.417093 A    
N24   O176  1.301392 A    
C310  O150  1.382101 S    
C218  C234  1.404717 A    
C154  C170  1.398613 A    
N12   O119  1.301033 A    
C256  H96   1.082879 S    
C29   C325  1.477141 S    
C230  C246  1.405395 A    
C259  C275  1.397888 A    
C5    C133  1.466336 S    
O12   Cu12  1.961978 S    
O79   Cu17  1.952608 S    
C300  C316  1.413468 A    
C257  C273  1.400549 A    
C103  C119  1.396468 A    
C3    C131  1.476591 S    
C174  N46   1.445003 S    
C292  C332  1.403695 A    
C8    C136  1.466280 S    
C23   C52   1.457882 S    
C199  H55   1.083318 S    
O87   C343  1.298094 A    
C303  C319  1.413636 A    
O21   Cu11  1.975388 S    
C269  H109  1.083410 S    
O40   C24   1.294764 A    
C295  C335  1.401418 A    
C89   C94   1.386447 A    
C115  C131  1.415613 A    
C159  C175  1.398610 A    
O1    Cu1   1.961999 S    
C248  C264  1.392550 A    
C292  O132  1.381813 S    
O23   Cu9   1.975404 S    
C193  C273  1.400814 A    
C106  C122  1.397233 A    
C118  C134  1.413874 A    
C92   C95   1.386493 A    
C195  C211  1.394219 A    
C109  C189  1.398123 A    
O2    C2    1.296322 A    
O86   Cu21  1.967611 S    
C166  N38   1.445117 S    
C204  C220  1.392399 A    
C255  H95   1.082838 S    
N45   O217  1.301676 A    
C47   N15   1.436672 S    
C245  C261  1.392607 A    
C112  C192  1.399203 A    
C122  C138  1.412856 A    
Cu4   O52   1.969233 S    
C107  H27   1.084354 S    
C158  H46   1.083247 S    
C289  C329  1.402419 A    
C200  H56   1.083386 S    
N38   O204  1.300497 A    
O89   Cu20  1.966645 S    
O77   C349  1.297408 A    
C252  C268  1.392510 A    
O66   Cu24  1.952881 S    
C319  O159  1.382118 S    
C175  C191  1.412951 A    
O16   Cu16  1.961978 S    
C162  C178  1.412753 A    
C153  H41   1.083075 S    
N19   O165  1.301230 A    
Cu12  O60   1.969233 S    
O51   C27   1.301848 A    
C306  O146  1.381105 S    
N39   O205  1.301683 A    
C121  N25   1.435209 S    
O45   C19   1.294746 A    
C104  C184  1.401162 A    
N17   O162  1.301388 A    
C309  C325  1.410316 A    
O25   C9    1.295071 A    
C220  C236  1.404700 A    
C36   N4    1.436707 S    
C85   H5    1.081765 S    
O10   Cu10  1.961982 S    
C22   C49   1.457855 S    
O26   Cu8   1.975401 S    
O29   C13   1.295036 A    
O48   C18   1.294940 A    
C329  C334  1.474316 S    
N40   O207  1.301444 A    
C304  C330  1.402989 A    
C202  C218  1.392139 A    
C82   C85   1.386390 A    
O30   Cu4   1.975401 S    
C331  C336  1.476886 S    
O148  H132  0.990224 S    
O38   C22   1.294884 A    
C332  C335  1.476075 S    
C318  C324  1.409226 A    
C44   N12   1.436666 S    
C43   C61   1.403498 A    
N36   O199  1.301445 A    
C217  H73   1.082967 S    
C58   C82   1.403415 A    
C307  C323  1.413921 A    
O41   C23   1.294751 A    
C159  H47   1.083769 S    
C42   C56   1.408165 A    
C298  O138  1.381962 S    
O45   Cu13  1.970369 S    
C60   C76   1.415033 A    
Cu15  O63   1.968590 S    
C61   C77   1.414889 A    
C96   H16   1.081729 S    
O94   C350  1.296177 A    
C213  C229  1.404710 A    
O78   C350  1.297826 A    
O83   C339  1.296770 A    
O131  H115  0.990264 S    
O63   C25   1.301025 A    
O33   Cu1   1.970369 S    
C299  C333  1.403274 A    
C209  H65   1.082833 S    
O134  H118  0.990436 S    
C102  H22   1.084353 S    
C139  C155  1.404434 A    
C165  N37   1.439801 S    
C240  C337  1.468435 S    
O66   C338  1.297203 A    
O7    Cu7   1.962001 S    
C48   N16   1.436710 S    
C32   C328  1.475020 S    
N43   O214  1.300478 A    
O17   Cu15  1.975388 S    
C102  C182  1.399063 A    
C119  C135  1.414483 A    
O19   Cu13  1.975404 S    
C297  C335  1.401506 A    
C313  O153  1.381678 S    
O138  H122  0.990114 S    
C198  C214  1.394335 A    
C211  C227  1.404364 A    
O72   C344  1.297935 A    
C237  C340  1.467861 S    
C200  C216  1.392454 A    
C234  C250  1.405464 A    
C34   C50   1.408038 A    
O9    C9    1.296261 A    
C207  C223  1.392219 A    
C301  C331  1.402115 A    
C213  H69   1.082864 S    
C224  C240  1.405020 A    
O42   Cu10  1.971008 S    
C19   C56   1.457928 S    
C69   C75   1.415039 A    
C97   C113  1.397208 A    
O12   C12   1.292675 A    
C316  O156  1.382133 S    
O19   C3    1.295062 A    
O143  H127  0.990436 S    
O13   C13   1.295730 A    
Cu2   O50   1.968851 S    
C249  C265  1.391680 A    
Cu6   O54   1.968851 S    
O93   C349  1.297817 A    
C163  N35   1.443604 S    
N34   O196  1.300783 A    
C62   C78   1.414979 A    
C71   C73   1.414983 A    
Cu21  Cu22  2.774095 S    
C189  C285  1.461927 S    
C254  C270  1.392528 A    
O96   C352  1.297869 A    
O89   C345  1.297825 A    
O158  H142  0.990240 S    
C100  H20   1.084013 S    
C11   C139  1.473227 S    
C304  C320  1.417944 A    
C172  C188  1.412958 A    
C125  N29   1.435670 S    
N6    O107  1.301031 A    
N22   O172  1.301529 A    
N4    O103  1.301035 A    
O13   Cu13  1.961999 S    
O146  H130  0.990361 S    
O7    C7    1.295495 A    
C219  H75   1.082984 S    
C104  C120  1.397372 A    
C296  C312  1.416907 A    
N13   O121  1.301029 A    
C161  C177  1.412980 A    
C135  C151  1.405099 A    
C253  H93   1.083028 S    
C136  C152  1.402311 A    
O22   C6    1.294919 A    
C9    C137  1.476161 S    
C57   C81   1.403438 A    
C311  O151  1.381222 S    
C148  C164  1.398592 A    
C111  H31   1.084020 S    
O151  H135  0.990435 S    
C149  C165  1.398606 A    
C146  H34   1.083074 S    
O71   Cu21  1.952608 S    
O67   Cu23  1.952608 S    
O150  H134  0.990660 S    
C86   H6    1.081730 S    
C127  N31   1.437677 S    
C160  C176  1.399262 A    
C47   C49   1.408097 A    
N9    O113  1.301035 A    
C145  C161  1.398572 A    
C42   N10   1.436698 S    
O70   C342  1.297638 A    
C259  H99   1.083414 S    
N5    O105  1.301034 A    
C169  N41   1.443852 S    
O46   Cu14  1.971008 S    
C242  C258  1.391790 A    
C257  H97   1.083388 S    
C174  C190  1.414744 A    
C103  H23   1.084390 S    
C303  O143  1.382423 S    
O76   Cu20  1.953241 S    
N2    O100  1.301106 A    
N27   O182  1.301524 A    
O32   Cu2   1.975351 S    
C65   C79   1.415036 A    
C151  H39   1.083175 S    
O6    Cu6   1.961982 S    
C66   C80   1.414972 A    
N8    O112  1.301104 A    
N15   O125  1.301036 A    
C43   N11   1.436396 S    
C250  H90   1.082840 S    
N41   O209  1.301650 A    
C205  H61   1.083316 S    
C73   C78   1.412412 A    
C222  C238  1.404415 A    
C215  C231  1.404375 A    
N16   O127  1.301034 A    
O9    Cu9   1.961999 S    
C97   H17   1.084048 S    
O52   C28   1.299152 A    
C235  C251  1.405404 A    
C185  C281  1.461338 S    
C110  C190  1.399102 A    
C105  C185  1.397618 A    
O6    C6    1.294892 A    
C155  C171  1.401636 A    
C46   C52   1.408154 A    
C240  C256  1.405002 A    
O3    Cu3   1.962001 S    
N26   O180  1.301391 A    
C225  C241  1.405518 A    
C38   C54   1.408056 A    
Cu3   O51   1.968590 S    
C117  C133  1.412913 A    
C154  H42   1.083775 S    
C301  O141  1.382203 S    
C124  N28   1.437559 S    
C291  O131  1.381953 S    
C171  N43   1.445335 S    
C306  C322  1.412952 A    
C35   C69   1.403730 A    
N8    O111  1.301036 A    
C97   C177  1.400948 A    
C124  C140  1.413022 A    
C300  C334  1.402306 A    
N14   O123  1.301032 A    
Cu16  O64   1.969233 S    
C254  H94   1.083045 S    
O76   C348  1.297325 A    
C317  O157  1.381188 S    
C34   N2    1.436664 S    
O11   C11   1.294766 A    
C128  C144  1.413034 A    
O58   C32   1.298971 A    
C100  C116  1.397358 A    
C228  C244  1.405492 A    
O79   C351  1.297767 A    
C98   C114  1.395907 A    
C229  C245  1.405490 A    
O14   Cu14  1.961982 S    
N42   O212  1.301375 A    
C134  C150  1.404514 A    
C12   C140  1.466591 S    
C239  C338  1.469880 S    
O65   C337  1.296402 A    
N46   O219  1.301712 A    
C68   C78   1.415040 A    
O88   C344  1.296119 A    
O36   C20   1.294749 A    
C217  C233  1.404359 A    
Cu6   Cu12  2.686541 S    
C263  H103  1.083399 S    
O20   Cu14  1.975351 S    
N18   O163  1.301241 A    
C120  C136  1.412888 A    
C205  C221  1.394400 A    
C214  C230  1.404417 A    
N29   O185  1.301262 A    
C70   C94   1.403457 A    
C243  C259  1.391657 A    
C62   C86   1.403443 A    
O18   C2    1.295052 A    
C45   C51   1.408056 A    
C236  C341  1.469874 S    
C292  C308  1.417167 A    
C59   C75   1.414995 A    
C162  N34   1.443762 S    
C208  C224  1.392128 A    
N10   O116  1.301112 A    
N25   O177  1.301235 A    
C233  C249  1.405552 A    
N35   O198  1.300832 A    
O35   C19   1.294946 A    
N26   O179  1.301337 A    
C147  H35   1.083042 S    
N33   O194  1.301363 A    
C63   C87   1.403458 A    
O78   Cu18  1.952881 S    
N44   O216  1.301367 A    
C164  N36   1.439805 S    
C204  H60   1.083380 S    
O77   Cu17  1.953474 S    
C205  C285  1.399751 A    
C222  H78   1.083000 S    
O157  H141  0.990421 S    
C247  C263  1.392114 A    
C223  H79   1.082864 S    
O90   Cu19  1.967611 S    
N48   O224  1.301364 A    
C64   C80   1.415025 A    
C241  C257  1.392574 A    
C293  C309  1.417985 A    
Cu14  O62   1.968851 S    
O26   C10   1.293464 A    
C27   C323  1.485584 S    
C314  O154  1.382225 S    
C221  H77   1.082970 S    
C182  C278  1.462920 S    
C38   N6    1.436655 S    
C93   H13   1.081725 S    
C200  C280  1.400910 A    
O30   C14   1.294943 A    
C20   C55   1.457739 S    
C215  H71   1.082975 S    
C72   C74   1.415011 A    
O36   Cu4   1.970631 S    
C293  O133  1.381741 S    
O65   Cu23  1.953474 S    
C101  C117  1.397315 A    
C112  H32   1.084417 S    
O8    C8    1.292475 A    
C91   C96   1.386544 A    
C61   C85   1.403435 A    
O40   Cu8   1.970631 S    
C44   C54   1.408099 A    
C46   N14   1.436710 S    
C202  H58   1.083399 S    
O59   C29   1.300147 A    
C59   C83   1.403446 A    
C83   C88   1.386487 A    
C126  N30   1.436661 S    
C156  C172  1.398575 A    
C233  C344  1.467645 S    
C187  C283  1.463021 S    
C221  C237  1.404354 A    
O69   C341  1.297401 A    
C234  C343  1.469846 S    
C58   C74   1.415038 A    
N28   O183  1.301353 A    
C241  H81   1.082794 S    
C110  H30   1.084336 S    
C247  H87   1.083021 S    
C104  H24   1.084008 S    
O87   Cu22  1.967970 S    
C14   C142  1.473253 S    
C150  C166  1.401540 A    
C100  C180  1.401146 A    
O46   C20   1.294856 A    
O39   C23   1.294914 A    
C82   H2    1.081735 S    
C148  H36   1.083779 S    
C179  C275  1.461087 S    
C149  H37   1.083776 S    
C244  C260  1.392546 A    
C227  C350  1.467528 S    
O49   C25   1.301251 A    
O93   Cu18  1.966645 S    
C262  C278  1.398741 A    
C167  N39   1.444428 S    
C151  C167  1.401349 A    
O68   Cu24  1.953241 S    
O92   Cu19  1.967044 S    
C111  C191  1.401105 A    
C64   C88   1.403463 A    
C229  C348  1.469924 S    
O84   C340  1.296253 A    
O85   Cu22  1.966645 S    
C297  O137  1.381966 S    
O82   Cu23  1.967611 S    
O70   Cu22  1.952881 S    
C311  C327  1.415436 A    
O53   C29   1.299602 A    
O69   Cu21  1.953474 S    
N47   O221  1.301444 A    
C198  H54   1.083328 S    
C289  C305  1.413433 A    
C113  N17   1.437545 S    
C203  C219  1.394391 A    
C33   N1    1.436679 S    
O10   C10   1.292534 A    
Cu10  O58   1.968851 S    
C320  C322  1.412169 A    
N35   O197  1.301638 A    
O73   Cu19  1.953474 S    
N23   O173  1.301266 A    
C298  C314  1.417269 A    
O64   C26   1.300858 A    
O141  H125  0.990048 S    
C121  C137  1.415326 A    
O136  H120  0.990009 S    
O14   C14   1.294801 A    
C114  N18   1.435223 S    
C115  N19   1.435040 S    
C250  C266  1.392762 A    
C305  C321  1.414376 A    
C43   C53   1.408107 A    
C109  C125  1.396270 A    
C125  C141  1.414749 A    
O43   Cu11  1.971269 S    
C294  O134  1.382432 S    
C183  C279  1.462212 S    
O57   C31   1.302167 A    
C290  C306  1.417395 A    
O81   C337  1.298060 A    
O140  H124  0.990451 S    
C6    C134  1.473343 S    
O68   C340  1.297910 A    
C161  N33   1.439911 S    
C258  C274  1.398002 A    
N43   O213  1.301729 A    
N21   O170  1.301395 A    
Cu1   Cu15  2.686513 S    
Cu13  O61   1.969493 S    
N40   O208  1.301377 A    
C164  C180  1.413014 A    
C209  C225  1.404713 A    
C1    C129  1.466712 S    
C270  H110  1.083391 S    
C67   C77   1.415002 A    
Cu2   Cu16  2.686541 S    
O142  H126  0.990194 S    
C141  C157  1.405341 A    
O91   Cu20  1.967970 S    
N15   O126  1.301109 A    
C262  H102  1.083393 S    
N36   O200  1.301376 A    
O144  H128  0.990215 S    
C296  C336  1.403660 A    
C195  C275  1.399595 A    
C42   C64   1.403768 A    
O96   Cu17  1.967044 S    
C194  C274  1.399597 A    
O95   Cu18  1.967970 S    
C17   C54   1.457776 S    
C260  H100  1.083350 S    
O84   Cu23  1.967044 S    
C111  C127  1.397249 A    
C37   C53   1.408251 A    
C146  C162  1.401074 A    
C268  C284  1.400534 A    
N20   O167  1.301325 A    
C304  O144  1.381831 S    
C133  C149  1.402353 A    
C318  O158  1.382146 S    
O31   C15   1.293432 A    
N37   O201  1.301442 A    
C37   N5    1.436686 S    
N1    O98   1.301099 A    
C28   C324  1.474349 S    
O16   C16   1.293508 A    
O17   C1    1.293566 A    
C290  C330  1.402494 A    
N14   O124  1.301112 A    
C264  C280  1.400610 A    
C298  C336  1.403918 A    
C76   C79   1.412419 A    
C263  C279  1.398354 A    
C65   C89   1.403427 A    
C71   C95   1.403472 A    
C208  H64   1.083392 S    
O72   Cu22  1.953241 S    
Cu19  Cu20  2.774095 S    
C4    C132  1.466319 S    
C191  C287  1.468347 S    
C45   N13   1.436646 S    
O50   C26   1.301696 A    
C74   C77   1.412366 A    
C246  C262  1.392487 A    
C310  C326  1.414642 A    
C98   H18   1.084445 S    
C26   C322  1.482592 S    
N24   O175  1.301323 A    
C143  C159  1.402390 A    
C266  C282  1.400697 A    
O11   Cu11  1.962001 S    
O18   Cu16  1.975401 S    
O54   C30   1.301210 A    
C39   C55   1.408043 A    
C307  O147  1.381691 S    
N30   O188  1.301508 A    
C106  C186  1.401162 A    
C198  C278  1.399772 A    
O37   Cu5   1.970369 S    
C99   C115  1.395765 A    
N19   O166  1.300964 A    
C117  N21   1.437642 S    
C107  C123  1.396947 A    
C120  N24   1.437648 S    
C303  C329  1.402430 A    
C258  H98   1.083409 S    
O3    C3    1.296551 A    
C317  C323  1.414616 A    
Cu11  O59   1.968590 S    
C201  C217  1.394329 A    
N31   O189  1.301337 A    
O86   C342  1.296733 A    
C155  H43   1.083227 S    
C31   C327  1.486865 S    
C90   H10   1.081729 S    
C102  C118  1.396932 A    
C295  O135  1.382206 S    
C197  C277  1.400869 A    
C131  C147  1.406108 A    
C173  N45   1.444283 S    
O74   C346  1.297786 A    
O34   Cu2   1.971008 S    
C138  C154  1.402361 A    
C33   C49   1.408154 A    
O94   Cu17  1.967611 S    
C7    C135  1.474615 S    
C237  C253  1.405525 A    
C302  C318  1.416932 A    
O83   Cu24  1.967970 S    
C308  O148  1.382127 S    
C118  N22   1.436692 S    
N45   O218  1.300658 A    
C163  C179  1.412464 A    
C60   C84   1.403461 A    
C271  C287  1.400633 A    
O152  H136  0.990196 S    
C101  H21   1.084014 S    
N38   O203  1.301716 A    
N12   O120  1.301100 A    
C24   C51   1.457691 S    
C157  H45   1.083145 S    
C199  C215  1.394366 A    
O24   C8    1.293540 A    
C170  N42   1.439781 S    
C216  C232  1.404717 A    
C272  C288  1.399828 A    
C315  O155  1.381718 S    
C145  H33   1.083705 S    
C228  C349  1.469957 S    
C84   C87   1.386492 A    
C295  C311  1.417344 A    
C123  C139  1.413733 A    
C48   C50   1.408012 A    
C140  C156  1.402412 A    
N2    O99   1.301030 A    
C212  C228  1.404714 A    
C207  C287  1.400796 A    
C197  C213  1.392357 A    
C232  C345  1.469965 S    
C39   C65   1.403718 A    
C220  H76   1.082852 S    
C123  N27   1.436703 S    
C153  C169  1.401119 A    
C238  C339  1.468194 S    
C37   C67   1.403847 A    
C168  N40   1.439802 S    
C194  C210  1.394194 A    
C302  C332  1.403334 A    
Cu1   O49   1.969493 S    
C251  C267  1.392482 A    
O82   C338  1.298000 A    
C211  H67   1.082968 S    
C193  C209  1.392288 A    
C291  C331  1.401771 A    
N17   O161  1.301356 A    
O32   C16   1.296171 A    
C268  H108  1.083364 S    
O92   C348  1.297891 A    
C199  C279  1.399747 A    
O95   C351  1.296293 A    
Cu5   O53   1.969493 S    
O56   C32   1.299641 A    
Cu8   Cu10  2.686541 S    
O28   C12   1.293533 A    
C232  C248  1.405491 A    
C269  C285  1.398199 A    
C35   N3    1.436677 S    
C190  C286  1.462977 S    
C219  C235  1.404433 A    
N32   O191  1.300701 A    
N16   O128  1.301097 A    
C132  C148  1.402326 A    
C184  C280  1.468539 S    
C210  H66   1.082968 S    
C89   H9    1.081727 S    
C38   C68   1.403768 A    
O20   C4    1.293544 A    
O27   C11   1.294968 A    
O21   C5    1.293503 A    
C10   C138  1.466198 S    
C249  H89   1.083025 S    
Cu4   Cu14  2.686541 S    
N11   O117  1.301020 A    
C180  C276  1.468512 S    
C40   N8    1.436724 S    
C152  C168  1.398591 A    
C40   C56   1.408227 A    
C83   H3    1.081733 S    
O48   Cu16  1.970631 S    
C34   C72   1.403760 A    
C92   H12   1.081729 S    
N47   O222  1.301370 A    
O38   Cu6   1.971008 S    
C90   C93   1.386459 A    
C157  C173  1.401299 A    
O154  H138  0.990188 S    
C319  C321  1.414386 A    
C195  H51   1.083319 S    
C2    C130  1.476140 S    
O44   Cu12  1.970631 S    
O153  H137  0.990342 S    
C41   C63   1.403729 A    
C202  C282  1.400772 A    
O15   C15   1.292638 A    
N27   O181  1.301297 A    
C261  H101  1.083344 S    
C112  C128  1.393454 A    
C36   C70   1.403683 A    
O1    C1    1.292703 A    
O130  H114  0.990020 S    
C158  C174  1.401476 A    
C35   C51   1.408025 A    
O155  H139  0.990282 S    
C45   C59   1.403714 A    
Cu7   O55   1.968590 S    
C242  H82   1.083020 S    
C266  H106  1.083337 S    
O33   C17   1.294718 A    
C156  H44   1.083748 S    
C301  C317  1.417266 A    
C173  C189  1.413613 A    
C176  C192  1.412177 A    
O35   Cu3   1.971269 S    
C15   C143  1.466342 S    
C270  C286  1.398761 A    
C95   H15   1.081731 S    
C119  N23   1.435934 S    
N39   O206  1.300622 A    
N7    O110  1.301106 A    
C214  H70   1.082981 S    
Cu5   Cu11  2.686513 S    
C137  C153  1.405871 A    
C150  H38   1.083229 S    
C267  H107  1.083395 S    
C165  C181  1.412996 A    
O39   Cu7   1.971269 S    
N34   O195  1.301647 A    
C192  C288  1.465480 S    
C114  C130  1.415359 A    
N18   O164  1.301012 A    
C84   H4    1.081728 S    
C113  C129  1.412973 A    
C265  H105  1.083416 S    
C260  C276  1.400598 A    
O24   Cu10  1.975351 S    
C108  C124  1.397267 A    
C25   C321  1.481293 S    
C203  H59   1.083324 S    
O81   Cu24  1.966645 S    
C152  H40   1.083783 S    
C105  C121  1.395912 A    
O75   C347  1.297573 A    
C128  N32   1.430973 S    
C87   H7    1.081736 S    
O156  H140  0.990663 S    
O29   Cu3   1.975388 S    
N22   O171  1.301294 A    
C168  C184  1.413021 A    
C116  C132  1.412902 A    
C108  H28   1.084034 S    
O62   C28   1.299169 A    
C106  H26   1.084019 S    
C203  C283  1.399803 A    
Cu8   O56   1.969233 S    
O28   Cu6   1.975351 S    
N33   O193  1.301579 A    
C130  C146  1.405888 A    
C69   C93   1.403425 A    
C81   C86   1.386455 A    
O2    Cu2   1.961982 S    
O91   C347  1.296771 A    
O85   C341  1.297794 A    
C246  H86   1.083026 S    
C99   C179  1.397408 A    
C70   C76   1.414970 A    
C48   C58   1.403621 A    
C44   C62   1.403678 A    
O44   C22   1.294782 A    
O73   C345  1.297405 A    
N10   O115  1.301032 A    
C248  H88   1.082848 S    
C67   C91   1.403477 A    
C309  O149  1.381646 S    
C253  C269  1.391919 A    
N5    O106  1.301103 A    
C167  C183  1.413885 A    
C30   C326  1.481873 S    
N13   O122  1.301100 A    
C224  H80   1.082860 S    
O88   Cu21  1.967044 S    
C57   C73   1.415024 A    
C302  O142  1.381870 S    
C244  H84   1.082845 S    
C255  C271  1.392689 A    
C245  H85   1.082844 S    
C201  C281  1.399670 A    
O80   C352  1.297320 A    
C110  C126  1.396980 A    
C206  C222  1.394364 A    
N7    O109  1.301033 A    
N3    O102  1.301107 A    
C21   C50   1.457557 S    
C289  O129  1.382446 S    
C294  C334  1.402350 A    
C88   H8    1.081729 S    
C129  C145  1.402437 A    
C252  H92   1.082824 S    
C142  C158  1.404495 A    
C41   C55   1.408111 A    
C169  C185  1.412858 A    
C101  C181  1.401140 A    
N41   O210  1.300767 A    
C103  C183  1.398377 A    
O22   Cu12  1.975401 S    
N32   O192  1.300887 A    
C196  C212  1.392447 A    
C207  H63   1.083399 S    
C251  H91   1.083030 S    
C208  C288  1.400292 A    
C18   C53   1.458131 S    
C98   C178  1.397610 A    
C99   H19   1.084455 S    
C272  H112  1.083417 S    
C231  C346  1.467979 S    
N28   O184  1.301389 A    
C166  C182  1.414815 A    
C147  C163  1.401016 A    
C210  C226  1.404368 A    
O129  H113  0.990442 S    
C194  H50   1.083321 S    
C271  H111  1.083343 S    
C206  H62   1.083322 S    
C39   N7    1.436677 S    
C316  C326  1.414671 A    
O34   C18   1.294885 A    
C314  C328  1.409274 A    
N11   O118  1.300911 A    
C206  C286  1.399784 A    
C264  H104  1.083349 S    
N31   O190  1.301397 A    
O31   Cu1   1.975404 S    
C94   H14   1.081731 S    
C218  H74   1.082865 S    
C176  N48   1.440320 S    
C66   C90   1.403465 A    
C290  O130  1.382175 S    
O5    Cu5   1.961999 S    
O41   Cu9   1.970369 S    
C16   C144  1.472715 S    
C313  C327  1.414532 A    
C177  C273  1.468249 S    
C196  C276  1.400909 A    
C197  H53   1.083389 S    
C294  C310  1.413633 A    
O15   Cu15  1.962001 S    
O133  H117  0.990067 S    
O43   C21   1.294814 A    
C236  C252  1.405503 A    
O160  H144  0.990214 S    
C181  C277  1.468472 S    
O47   Cu15  1.971269 S    
C75   C80   1.412418 A    
O25   Cu7   1.975388 S    
C144  C160  1.404935 A    
C300  O140  1.382447 S    
C107  C187  1.399143 A    
C46   C60   1.403782 A    
C312  O152  1.381784 S    
N6    O108  1.301106 A    
N42   O211  1.301441 A    
O27   Cu5   1.975404 S    
C330  C333  1.477544 S    
C108  C188  1.401000 A    
C172  N44   1.439844 S    
Cu7   Cu9   2.686513 S    
C239  C255  1.405492 A    
C204  C284  1.400860 A    
C296  O136  1.381961 S    
C223  C239  1.404718 A    
C227  C243  1.405540 A    
C160  H48   1.083345 S    
O137  H121  0.990264 S    
N4    O104  1.301105 A    
C315  C325  1.410489 A    
C91   H11   1.081732 S    
C122  N26   1.437676 S    
C105  H25   1.084443 S    
N37   O202  1.301374 A    
N9    O114  1.301097 A    
C256  C272  1.391744 A    
C201  H57   1.083315 S    
Cu23  Cu24  2.774095 S    
N29   O186  1.301116 A    
O55   C31   1.302684 A    
O139  H123  0.990085 S    
Cu3   Cu13  2.686513 S    
C127  C143  1.412972 A    
C171  C187  1.415041 A    
C186  C282  1.468393 S    
O42   C24   1.294818 A    
O135  H119  0.990044 S    
C235  C342  1.468267 S    
Cu9   O57   1.969493 S    
C243  H83   1.083019 S    
C231  C247  1.405497 A    
C193  H49   1.083403 S    
C109  H29   1.084415 S    
O74   Cu20  1.952881 S    
C68   C92   1.403444 A    
C196  H52   1.083387 S    
C175  N47   1.439795 S    
C63   C79   1.414992 A    
N21   O169  1.301324 A    
C308  C324  1.409279 A    
O4    Cu4   1.961978 S    
O75   Cu19  1.952608 S    
N44   O215  1.301501 A    
N3    O101  1.301030 A    
C72   C96   1.403469 A    
C225  C352  1.469844 S    
O67   C339  1.297577 A    
C41   N9    1.436681 S    
C226  C351  1.467613 S    
C178  C274  1.461298 S    
N46   O220  1.300457 A    
Cu17  Cu18  2.774095 S    
C293  C333  1.403825 A    
O8    Cu8   1.961978 S    
C305  O145  1.382140 S    
N48   O223  1.301494 A    
C261  C277  1.400624 A    
C226  C242  1.405537 A    
C47   C57   1.403723 A    
C216  H72   1.082861 S    
O145  H129  0.990653 S    
C81   H1    1.081727 S    
C230  C347  1.468189 S    
O23   C7    1.295014 A    
O132  H116  0.990187 S    
C13   C141  1.475141 S    
C312  C328  1.410023 A    
