data_mof_unit_67387.cif
_audit_creation_date              2012-12-11T19:51:51-0500
_audit_creation_method            fapswitch 2.2
_symmetry_space_group_name_H-M    P1
_symmetry_Int_Tables_number       1
_space_group_crystal_system       triclinic
_cell_length_a                    16.888307
_cell_length_b                    27.997561
_cell_length_c                    8.441347
_cell_angle_alpha                 90.292585
_cell_angle_beta                  104.652122
_cell_angle_gamma                 90.09851
_cell_volume                      3861.46458929

loop_
_atom_site_label
_atom_site_type_symbol
_atom_type_description
_atom_site_fract_x
_atom_site_fract_y
_atom_site_fract_z
_atom_type_partial_charge
Ba1   Ba    Ba6+2 0.000400 0.534870 0.845190 1.684412
Ba2   Ba    Ba6+2 0.000400 0.465130 0.345190 1.714325
Ba3   Ba    Ba6+2 0.500400 0.034870 0.845190 1.684410
Ba4   Ba    Ba6+2 0.500400 0.965130 0.345190 1.714327
C1    C     C_3   0.913367 0.751347 0.612673 -0.341062
C2    C     C_2   0.744696 0.637385 0.394973 0.295202
C3    C     C_3   0.133085 0.146001 0.853918 -0.476677
C4    C     C_2   0.242697 0.863658 0.892844 0.331545
C5    C     C_2   0.244695 0.137385 0.394973 0.295201
C6    C     C_2   0.815220 0.390269 0.911609 0.030669
C7    C     C_2   0.815119 0.609395 0.408956 0.018200
C8    C     C_2   0.315220 0.890269 0.911609 0.030671
C9    C     C_2   0.315118 0.109395 0.408956 0.018200
C10   C     C_2   0.852762 0.342234 0.699028 -0.039835
C11   C     C_2   0.850342 0.656282 0.193187 -0.009844
C12   C     C_2   0.352762 0.842234 0.699028 -0.039837
C13   C     C_3   0.964539 0.236771 0.985019 -0.337542
C14   C     C_2   0.350341 0.156281 0.193187 -0.009840
C15   C     C_3   0.792830 0.307586 0.721460 -0.097036
C16   C     C_3   0.796492 0.693320 0.225423 -0.114266
C17   C     C_3   0.292830 0.807586 0.721460 -0.097033
C18   C     C_3   0.296492 0.193320 0.225423 -0.114265
C19   C     C_3   0.721815 0.329304 0.761023 0.029703
C20   C     C_3   0.725375 0.674557 0.274137 0.008867
C21   C     C_3   0.221815 0.829304 0.761023 0.029698
C22   C     C_3   0.225374 0.174557 0.274137 0.008867
C23   C     C_2   0.765139 0.271572 0.586357 -0.067025
C24   C     C_3   0.413371 0.251348 0.612693 -0.341048
C25   C     C_2   0.771943 0.731539 0.095976 -0.090557
C26   C     C_2   0.265140 0.771572 0.586357 -0.067025
C27   C     C_2   0.271941 0.231538 0.095975 -0.090554
C28   C     C_2   0.240829 0.728336 0.621851 -0.034419
C29   C     C_2   0.250860 0.275261 0.136670 -0.075228
C30   C     C_2   0.740830 0.228335 0.621851 -0.034416
C31   C     C_2   0.750860 0.775261 0.136671 -0.075229
C32   C     C_R   0.249181 0.686205 0.358528 0.094538
C33   C     C_R   0.266901 0.319839 0.880432 0.037938
C34   C     C_R   0.749181 0.186205 0.358526 0.094539
C35   C     C_3   0.464538 0.736771 0.985026 -0.337533
C36   C     C_R   0.766901 0.819840 0.880433 0.037935
C37   C     C_R   0.210870 0.691646 0.494983 0.011104
C38   C     C_R   0.227001 0.314216 0.015742 -0.004549
C39   C     C_R   0.710872 0.191646 0.494984 0.011105
C40   C     C_R   0.727001 0.814216 0.015743 -0.004548
C41   C     C_3   0.002241 0.729019 0.131859 0.488026
C42   C     C_3   0.953315 0.260411 0.517155 0.416999
C43   C     C_3   0.502239 0.229019 0.131860 0.488016
C44   C     C_3   0.453316 0.760411 0.517158 0.417004
C45   C     C_R   0.234102 0.643026 0.255769 -0.076321
C46   C     C_R   0.136231 0.615722 0.405638 -0.243823
C47   C     C_R   0.245059 0.360619 0.767618 -0.068131
C48   C     C_R   0.734102 0.143027 0.255766 -0.076324
C49   C     C_R   0.745059 0.860619 0.767619 -0.068129
C50   C     C_R   0.183337 0.608731 0.280953 0.042902
C51   C     C_R   0.186992 0.391931 0.782029 0.107908
C52   C     C_R   0.683337 0.108730 0.280953 0.042901
C53   C     C_R   0.686992 0.891932 0.782029 0.107909
C54   C     C_R   0.150970 0.655104 0.512815 0.029942
C55   C     C_R   0.165222 0.350248 0.030610 0.019051
C56   C     C_R   0.650973 0.155104 0.512817 0.029951
C57   C     C_R   0.144799 0.386691 0.914656 -0.224244
C58   C     C_R   0.665222 0.850248 0.030610 0.019047
C59   C     C_3   0.971613 0.776200 0.187296 -0.058090
C60   C     C_3   0.947853 0.213801 0.420258 -0.061877
C61   C     C_3   0.471611 0.276200 0.187297 -0.058083
C62   C     C_3   0.447853 0.713801 0.420264 -0.061877
C63   C     C_3   0.756931 0.524564 0.077285 0.293085
C64   C     C_3   0.763691 0.471190 0.552976 0.277004
C65   C     C_3   0.256931 0.024564 0.077285 0.293086
C66   C     C_3   0.263691 0.971190 0.552975 0.277003
C67   C     C_3   0.674759 0.543990 0.089821 -0.368147
C68   C     C_R   0.636233 0.115721 0.405641 -0.243827
C69   C     C_3   0.691568 0.438243 0.483220 -0.328186
C70   C     C_3   0.174759 0.043990 0.089821 -0.368146
C71   C     C_3   0.191568 0.938243 0.483219 -0.328186
C72   C     C_3   0.300937 0.507939 0.100874 0.404070
C73   C     C_3   0.267613 0.516958 0.604238 0.430986
C74   C     C_3   0.800939 0.007940 0.100876 0.404069
C75   C     C_3   0.767614 0.016958 0.604239 0.430989
C76   C     C_3   0.371785 0.543647 0.144448 -0.332392
C77   C     C_3   0.343542 0.505662 0.546288 -0.293172
C78   C     C_3   0.871788 0.043648 0.144460 -0.332396
C79   C     C_R   0.644799 0.886691 0.914655 -0.224242
C80   C     C_3   0.843542 0.005661 0.546288 -0.293175
C81   C     C_3   0.961510 0.705780 0.605131 0.397384
C82   C     C_3   0.989777 0.288102 0.032627 0.325656
C83   C     C_3   0.461512 0.205780 0.605148 0.397383
C84   C     C_3   0.489779 0.788101 0.032625 0.325654
C85   C     C_2   0.869065 0.379955 0.801991 -0.341755
C86   C     C_2   0.866610 0.618581 0.294606 -0.342032
C87   C     C_2   0.369065 0.879955 0.801991 -0.341757
C88   C     C_2   0.366610 0.118581 0.294606 -0.342029
C89   C     C_3   0.608132 0.364032 0.927192 0.272626
C90   C     C_2   0.742697 0.363658 0.892845 0.331543
C91   C     C_3   0.567358 0.403265 0.809075 -0.228922
C92   C     C_3   0.476145 0.393227 0.741592 -0.453377
C93   C     C_3   0.668480 0.648586 0.580121 0.293231
C94   C     C_3   0.646814 0.616857 0.710109 -0.127789
C95   C     C_3   0.633086 0.646002 0.853918 -0.476679
C96   C     C_3   0.108132 0.864032 0.927189 0.272628
C97   C     C_3   0.067357 0.903264 0.809066 -0.228928
C98   C     C_3   0.976143 0.893227 0.741588 -0.453373
C99   C     C_3   0.168479 0.148586 0.580122 0.293233
C100  C     C_3   0.146814 0.116856 0.710109 -0.127789
H1    H     H_    0.934890 0.677559 0.668174 0.086863
H2    H     H_    0.703823 0.402234 0.537248 0.084397
H3    H     H_    0.607708 0.681737 0.814781 0.175432
H4    H     H_    0.691978 0.650383 0.946039 0.133442
H5    H     H_    0.589788 0.627185 0.911598 0.168174
H6    H     H_    0.077697 0.862740 0.029354 0.132896
H7    H     H_    0.097514 0.828558 0.866197 0.099978
H8    H     H_    0.075723 0.938381 0.873277 0.155987
H9    H     H_    0.096352 0.904859 0.705322 0.124659
H10   H     H_    0.966600 0.857777 0.680169 0.158641
H11   H     H_    0.948991 0.920736 0.650138 0.158922
H12   H     H_    0.944390 0.893983 0.841808 0.161890
H13   H     H_    0.181807 0.080831 0.138425 0.081981
H14   H     H_    0.116218 0.172146 0.526281 0.103534
H15   H     H_    0.221320 0.172006 0.638792 0.065338
H16   H     H_    0.091146 0.095695 0.653483 0.161340
H17   H     H_    0.196605 0.090816 0.756365 0.143954
H18   H     H_    0.107708 0.181736 0.814781 0.175430
H19   H     H_    0.191976 0.150382 0.946040 0.133441
H20   H     H_    0.089786 0.127185 0.911597 0.168175
H21   H     H_    0.203823 0.902234 0.537246 0.084399
H22   H     H_    0.630993 0.544153 0.967073 0.120406
H23   H     H_    0.681520 0.435172 0.348289 0.166978
H24   H     H_    0.130993 0.044153 0.967073 0.120406
H25   H     H_    0.181520 0.935172 0.348288 0.166980
H26   H     H_    0.265137 0.512098 0.974333 0.122046
H27   H     H_    0.212571 0.520836 0.500674 0.020342
H28   H     H_    0.765141 0.012101 0.974335 0.122049
H29   H     H_    0.937356 0.306979 0.062000 0.066276
H30   H     H_    0.712571 0.020837 0.500676 0.020339
H31   H     H_    0.349103 0.580461 0.147317 0.108216
H32   H     H_    0.334593 0.472010 0.473959 0.144606
H33   H     H_    0.849107 0.080461 0.147344 0.108215
H34   H     H_    0.834591 0.972009 0.473957 0.144605
H35   H     H_    0.407769 0.541677 0.051307 0.141414
H36   H     H_    0.356447 0.535756 0.472316 0.122011
H37   H     H_    0.907770 0.041682 0.051315 0.141415
H38   H     H_    0.856448 0.035755 0.472317 0.122012
H39   H     H_    0.414048 0.535266 0.264353 0.138452
H40   H     H_    0.434897 0.177560 0.668205 0.086881
H41   H     H_    0.397236 0.501370 0.652828 0.129882
H42   H     H_    0.914053 0.035264 0.264359 0.138454
H43   H     H_    0.897236 0.001367 0.652827 0.129883
H44   H     H_    0.954095 0.695911 0.474770 -0.075416
H45   H     H_    0.004490 0.305097 0.924477 -0.045859
H46   H     H_    0.454089 0.195909 0.474787 -0.075413
H47   H     H_    0.504495 0.805093 0.924474 -0.045858
H48   H     H_    0.846740 0.743721 0.570725 0.061608
H49   H     H_    0.910444 0.236125 0.878542 0.097163
H50   H     H_    0.346743 0.243720 0.570792 0.061615
H51   H     H_    0.437358 0.806981 0.061990 0.066269
H52   H     H_    0.410448 0.736124 0.878539 0.097166
H53   H     H_    0.927177 0.765671 0.739457 0.161791
H54   H     H_    0.947882 0.218023 0.086793 0.124251
H55   H     H_    0.427199 0.265678 0.739470 0.161793
H56   H     H_    0.447872 0.718026 0.086798 0.124246
H57   H     H_    0.265109 0.639782 0.159157 0.101732
H58   H     H_    0.278474 0.365615 0.675116 0.083687
H59   H     H_    0.765107 0.139782 0.159151 0.101737
H60   H     H_    0.778474 0.865616 0.675117 0.083685
H61   H     H_    0.913639 0.406681 0.789232 0.078064
H62   H     H_    0.649193 0.521174 0.172152 0.155261
H63   H     H_    0.910719 0.591795 0.280463 0.079828
H64   H     H_    0.413639 0.906681 0.789233 0.078064
H65   H     H_    0.410718 0.091795 0.280463 0.079827
H66   H     H_    0.092784 0.588568 0.418978 0.072328
H67   H     H_    0.098067 0.412265 0.923111 0.064294
H68   H     H_    0.592786 0.088567 0.418981 0.072328
H69   H     H_    0.598066 0.912265 0.923111 0.064294
H70   H     H_    0.758730 0.281462 0.459536 0.145421
H71   H     H_    0.768260 0.723459 0.968466 0.114837
H72   H     H_    0.258731 0.781462 0.459537 0.145421
H73   H     H_    0.635324 0.452829 0.510361 0.123683
H74   H     H_    0.268257 0.223458 0.968465 0.114838
H75   H     H_    0.241793 0.720276 0.747966 0.126460
H76   H     H_    0.249863 0.282199 0.262794 0.111063
H77   H     H_    0.741795 0.220275 0.747967 0.126459
H78   H     H_    0.749863 0.782199 0.262794 0.111065
H79   H     H_    0.928765 0.778963 0.532198 0.135488
H80   H     H_    0.015592 0.217501 0.952661 0.146383
H81   H     H_    0.428751 0.278959 0.532185 0.135472
H82   H     H_    0.515593 0.717496 0.952688 0.146384
H83   H     H_    0.015575 0.703182 0.234996 -0.053488
H84   H     H_    0.149192 0.021174 0.172151 0.155261
H85   H     H_    0.922444 0.255531 0.616935 0.004395
H86   H     H_    0.515573 0.203182 0.234998 -0.053480
H87   H     H_    0.422446 0.755532 0.616940 0.004390
H88   H     H_    0.953348 0.800906 0.081803 0.113905
H89   H     H_    0.000941 0.209958 0.366442 0.123822
H90   H     H_    0.453350 0.300906 0.081806 0.113903
H91   H     H_    0.500940 0.709956 0.366446 0.123820
H92   H     H_    0.917784 0.769047 0.235283 0.064507
H93   H     H_    0.891946 0.213527 0.317662 0.105890
H94   H     H_    0.417781 0.269047 0.235278 0.064507
H95   H     H_    0.135324 0.952829 0.510361 0.123683
H96   H     H_    0.391946 0.713526 0.317670 0.105889
H97   H     H_    0.796221 0.519613 0.202748 0.020748
H98   H     H_    0.775904 0.472076 0.688125 -0.004416
H99   H     H_    0.296221 0.019612 0.202749 0.020748
H100  H     H_    0.275904 0.972075 0.688124 -0.004416
H101  H     H_    0.786420 0.550432 0.010557 0.024598
H102  H     H_    0.817536 0.456574 0.516336 0.070845
H103  H     H_    0.286420 0.050432 0.010559 0.024597
H104  H     H_    0.317536 0.956574 0.516335 0.070845
H105  H     H_    0.577698 0.362738 0.029358 0.132893
H106  H     H_    0.681807 0.580831 0.138424 0.081981
H107  H     H_    0.597514 0.328558 0.866196 0.099977
H108  H     H_    0.575722 0.438381 0.873291 0.155987
H109  H     H_    0.596354 0.404862 0.705332 0.124656
H110  H     H_    0.466603 0.357779 0.680163 0.158646
H111  H     H_    0.448992 0.420738 0.650148 0.158922
H112  H     H_    0.444390 0.393981 0.841810 0.161887
H113  H     H_    0.616218 0.672146 0.526281 0.103533
H114  H     H_    0.721321 0.672006 0.638792 0.065340
H115  H     H_    0.591146 0.595696 0.653483 0.161340
H116  H     H_    0.696604 0.590816 0.756364 0.143954
I1    I     I_    0.353560 0.438115 0.119228 -0.543330
I2    I     I_    0.079382 0.277199 0.621675 -0.531986
I3    I     I_    0.613540 0.241817 0.063144 -0.418083
I4    I     I_    0.579383 0.777200 0.621672 -0.531982
I5    I     I_    0.292955 0.582426 0.736568 -0.492375
I6    I     I_    0.853561 0.938116 0.119222 -0.543328
I7    I     I_    0.792959 0.082426 0.736569 -0.492378
I8    I     I_    0.058397 0.812593 0.380316 -0.531357
I9    I     I_    0.940441 0.153230 0.566821 -0.594030
I10   I     I_    0.558394 0.312591 0.380326 -0.531353
I11   I     I_    0.440441 0.653231 0.566833 -0.594031
I12   I     I_    0.113541 0.741817 0.063143 -0.418074
O1    O     O_2   0.163830 0.569270 0.980510 -0.458666
O2    O     O_3   0.915633 0.296100 0.407900 -0.572387
O3    O     O_3   0.444969 0.212545 0.989658 -0.607520
O4    O     O_3   0.415634 0.796100 0.407902 -0.572386
O5    O     O_3   0.904940 0.476110 0.001150 -0.510780
O6    O     O_3   0.904940 0.523890 0.501150 -0.515098
O7    O     O_3   0.404940 0.976110 0.001150 -0.510780
O8    O     O_3   0.404940 0.023890 0.501150 -0.515098
O9    O     O_3   0.095420 0.524330 0.188510 -0.468965
O10   O     O_3   0.095420 0.475670 0.688510 -0.483878
O11   O     O_3   0.595420 0.024330 0.188510 -0.468964
O12   O     O_2   0.163830 0.430730 0.480510 -0.456369
O13   O     O_3   0.595420 0.975670 0.688510 -0.483877
O14   O     O_3   0.028940 0.612400 0.656050 -0.497281
O15   O     O_3   0.028940 0.387600 0.156050 -0.481681
O16   O     O_3   0.528940 0.112400 0.656050 -0.497286
O17   O     O_3   0.528940 0.887600 0.156050 -0.481680
O18   O     O_2   0.156923 0.653855 0.848248 -0.426321
O19   O     O_2   0.158201 0.347862 0.360933 -0.443613
O20   O     O_2   0.656924 0.153855 0.848250 -0.426324
O21   O     O_2   0.658201 0.847862 0.360932 -0.443613
O22   O     O_3   0.250686 0.510236 0.210177 -0.638427
O23   O     O_2   0.663830 0.069270 0.980510 -0.458667
O24   O     O_3   0.260207 0.482188 0.717117 -0.643730
O25   O     O_3   0.750686 0.010236 0.210175 -0.638425
O26   O     O_3   0.760206 0.982189 0.717118 -0.643728
O27   O     O_3   0.044826 0.712963 0.682493 -0.559687
O28   O     O_3   0.056980 0.288508 0.171025 -0.567289
O29   O     O_3   0.544830 0.212963 0.682490 -0.559692
O30   O     O_3   0.556980 0.788508 0.171027 -0.567287
O31   O     O_2   0.837400 0.570350 0.710350 -0.458929
O32   O     O_2   0.837400 0.429650 0.210350 -0.427783
O33   O     O_2   0.337400 0.070350 0.710350 -0.458929
O34   O     O_2   0.663830 0.930730 0.480510 -0.456370
O35   O     O_2   0.337400 0.929650 0.210350 -0.427785
O36   O     O_3   0.972820 0.612580 0.035550 -0.458817
O37   O     O_3   0.972820 0.387420 0.535550 -0.453739
O38   O     O_3   0.472820 0.112580 0.035550 -0.458819
O39   O     O_3   0.472820 0.887420 0.535550 -0.453740
O40   O     O_2   0.836488 0.648678 0.859979 -0.509262
O41   O     O_2   0.819994 0.367129 0.386694 -0.437221
O42   O     O_2   0.336487 0.148678 0.859980 -0.509266
O43   O     O_2   0.319994 0.867129 0.386693 -0.437221
O44   O     O_3   0.692043 0.374227 0.996293 -0.616009
O45   O     O_3   0.742829 0.517023 0.490877 -0.603818
O46   O     O_3   0.682613 0.618771 0.455514 -0.643701
O47   O     O_3   0.192042 0.874228 0.996290 -0.616010
O48   O     O_3   0.182613 0.118770 0.455514 -0.643701
O49   O     O_3   0.741905 0.481685 0.989243 -0.621412
O50   O     O_3   0.242829 0.017023 0.490877 -0.603817
O51   O     O_3   0.241905 0.981685 0.989243 -0.621410
O52   O     O_3   0.944971 0.712545 0.989657 -0.607514
P1    P     P_3+3 0.171820 0.553000 0.158080 0.993801
P2    P     P_3+3 0.892885 0.345907 0.514153 0.994204
P3    P     P_3+3 0.400902 0.157943 0.022582 0.942759
P4    P     P_3+3 0.392885 0.845907 0.514153 0.994204
P5    P     P_3+3 0.104959 0.344369 0.182867 1.031316
P6    P     P_3+3 0.097403 0.659151 0.676794 1.024433
P7    P     P_3+3 0.604959 0.844368 0.182867 1.031315
P8    P     P_3+3 0.597404 0.159150 0.676794 1.024428
P9    P     P_3+3 0.171820 0.447000 0.658080 1.015997
P10   P     P_3+3 0.671820 0.053000 0.158080 0.993803
P11   P     P_3+3 0.671820 0.947000 0.658080 1.015999
P12   P     P_3+3 0.829210 0.554130 0.532500 1.010527
P13   P     P_3+3 0.829210 0.445870 0.032500 1.030476
P14   P     P_3+3 0.329210 0.054130 0.532500 1.010526
P15   P     P_3+3 0.329210 0.945870 0.032500 1.030477
P16   P     P_3+3 0.900902 0.657944 0.022582 0.942766

loop_
_geom_bond_atom_site_label_1
_geom_bond_atom_site_label_2
_ccdc_geom_bond_type
C74   I6    S    
C77   H36   S    
Ba4   O35   S    
C58   C79   A    
C96   H6    S    
C97   C98   S    
Ba3   O33   S    
C94   H116  S    
C86   H63   S    
O17   P7    S    
C97   H9    S    
C8    C87   S    
C1    H48   S    
C91   C92   S    
C13   H80   S    
Ba4   P11   S    
O9    P1    S    
C3    H20   S    
C63   O49   S    
C13   H49   S    
Ba1   P1    S    
C93   C94   S    
C84   O30   S    
O39   P4    S    
C10   C85   D    
C47   C51   D    
O40   P16   D    
C97   H8    S    
C73   I5    S    
C95   H4    S    
O8    P14   S    
O33   P14   D    
C12   C17   A    
C92   H111  S    
C99   O48   S    
C61   I10   S    
C77   H32   S    
C63   H97   S    
C91   H108  S    
C68   H68   S    
C100  H16   S    
C10   P2    S    
Ba4   O17   S    
C60   I9    S    
C78   H33   S    
Ba1   O14   S    
C78   H37   S    
C90   O44   S    
O24   P9    S    
C33   C47   S    
O12   P9    D    
O22   P1    S    
C63   C67   S    
C34   C48   S    
C6    C90   A    
Ba4   O34   S    
C45   C50   D    
C95   H5    S    
O29   P8    S    
C92   H110  S    
O30   P7    S    
O42   P3    D    
C47   H58   S    
Ba3   O7    S    
Ba1   Ba2   S    
C73   H27   S    
C75   I7    S    
C33   C38   S    
Ba2   O37   S    
C74   H28   S    
C96   C97   S    
C44   H87   S    
C5    C9    A    
C98   H11   S    
Ba1   O31   S    
C35   H82   S    
C72   H26   S    
O26   P11   S    
Ba4   O7    S    
O1    P1    D    
C16   C20   A    
C6    C85   S    
Ba1   O1    S    
C52   C68   S    
C67   H62   S    
C89   H107  S    
O3    P3    S    
O31   P12   D    
C81   H44   S    
C5    O48   S    
O35   P15   D    
C57   H67   S    
Ba4   P15   S    
C80   H38   S    
C83   H40   S    
C12   P4    S    
C72   O22   S    
O38   P3    S    
Ba4   O11   S    
O7    P15   S    
C63   H101  S    
Ba3   O8    S    
C1    C81   S    
C76   H39   S    
Ba4   O39   S    
C55   P5    S    
C80   H34   S    
C89   C91   S    
C49   H60   S    
C14   C18   A    
C60   H93   S    
C29   H76   S    
C24   H50   S    
O41   P2    D    
Ba2   P9    S    
C32   C37   S    
O21   P7    D    
C73   O24   S    
C76   H31   S    
C35   C84   S    
C25   H71   S    
O23   P10   D    
C81   H1    S    
O43   P4    D    
C23   H70   S    
C26   H72   S    
C78   H42   S    
O5    P13   S    
C5    C22   A    
C62   H91   S    
C70   H84   S    
C16   C25   S    
C23   C30   D    
C66   H100  S    
C11   C16   A    
C70   H24   S    
C55   C57   A    
C65   H103  S    
C18   C27   S    
O16   P8    S    
C27   H74   S    
C64   H98   S    
C13   C82   S    
C46   C54   A    
C84   H51   S    
O37   P2    S    
O32   P13   D    
C89   O44   S    
C46   H66   S    
C17   C21   A    
Ba1   O10   S    
C82   H45   S    
O49   P13   S    
C2    C7    A    
C49   C53   D    
Ba2   O6    S    
Ba1   O6    S    
C100  H17   S    
C44   I4    S    
O27   P6    S    
Ba1   O5    S    
C64   C69   S    
C66   O50   S    
C62   I11   S    
C41   C59   S    
C24   H55   S    
Ba2   O32   S    
O34   P11   D    
O11   P10   S    
C54   P6    S    
C15   C19   A    
Ba2   O15   S    
C59   H92   S    
Ba3   P14   S    
C69   H23   S    
C75   C80   S    
C53   P11   S    
O51   P15   S    
C41   H83   S    
C87   H64   S    
C82   H29   S    
C73   C77   S    
C88   H65   S    
C4    C8    A    
C67   H106  S    
C2    C20   A    
C60   H89   S    
O15   P5    S    
C24   C83   S    
C53   C79   S    
Ba4   O8    S    
C31   H78   S    
C65   C70   S    
C67   H22   S    
C46   C50   S    
C81   O27   S    
C98   H10   S    
C31   C40   S    
Ba3   O38   S    
C82   O28   S    
C44   O4    S    
C18   C22   A    
C50   P1    S    
C39   C56   S    
C12   C87   D    
O4    P4    S    
Ba3   O13   S    
O25   P10   S    
C41   I12   S    
C11   P16   S    
C65   H99   S    
C8    P15   S    
C77   H41   S    
C3    C100  S    
C79   H69   S    
C9    C88   S    
C64   H102  S    
O19   P5    D    
C84   H47   S    
C93   H113  S    
C99   H14   S    
Ba3   O16   S    
C29   C38   S    
C42   H85   S    
C4    C21   A    
Ba3   Ba4   S    
C2    O46   S    
C42   O2    S    
C99   C100  S    
C4    O47   S    
C15   C23   S    
O50   P14   S    
O10   P9    S    
C61   H90   S    
C80   H43   S    
C52   P10   S    
C70   H13   S    
C43   I3    S    
O28   P5    S    
O14   P6    S    
C27   C29   D    
Ba1   P12   S    
C56   P8    S    
C93   H114  S    
C75   O26   S    
C45   H57   S    
C10   C15   A    
C28   C37   S    
C93   O46   S    
C99   H15   S    
C30   C39   S    
C72   C76   S    
Ba3   P10   S    
C3    H19   S    
C74   C78   S    
C92   H112  S    
C38   C55   S    
C37   C54   S    
C36   C49   S    
Ba2   O5    S    
C59   I8    S    
C64   O45   S    
C71   H95   S    
C72   I1    S    
C76   H35   S    
C95   H3    S    
C17   C26   S    
C25   C31   D    
C1    H53   S    
C58   P7    S    
O18   P6    D    
C19   C90   A    
C35   H52   S    
C40   C58   S    
C3    H18   S    
C43   H86   S    
C14   C88   D    
C34   C39   S    
C96   O47   S    
C13   H54   S    
C24   H81   S    
C6    P13   S    
C26   C28   D    
C30   H77   S    
C83   H46   S    
C7    C86   S    
C69   H2    S    
C65   O51   S    
O45   P12   S    
C48   C52   D    
O13   P11   S    
C91   H109  S    
C51   C57   S    
O2    P2    S    
C9    P14   S    
C74   O25   S    
O52   P16   S    
O6    P12   S    
C42   I2    S    
Ba2   O9    S    
Ba3   O23   S    
C1    H79   S    
C69   H73   S    
C98   H12   S    
Ba1   O36   S    
C51   P9    S    
C48   H59   S    
O20   P8    D    
C61   H94   S    
C14   P3    S    
C71   H25   S    
C36   C40   S    
C66   H104  S    
C96   H7    S    
O36   P16   S    
C94   C95   S    
C75   H30   S    
C42   C60   S    
C66   C71   S    
C41   O52   S    
C44   C62   S    
C56   C68   A    
C83   O29   S    
C89   H105  S    
C7    P12   S    
Ba2   P13   S    
C28   H75   S    
C71   H21   S    
C94   H115  S    
Ba2   O12   S    
C43   C61   S    
C62   H96   S    
C32   C45   S    
C59   H88   S    
C43   O3    S    
C11   C86   D    
C35   H56   S    
C85   H61   S    
