data_mof_unit_45556.cif
_audit_creation_date              2012-12-11T15:28:40-0500
_audit_creation_method            fapswitch 2.2
_symmetry_space_group_name_H-M    P1
_symmetry_Int_Tables_number       1
_space_group_crystal_system       triclinic
_cell_length_a                    6.95826
_cell_length_b                    19.597254
_cell_length_c                    23.355657
_cell_angle_alpha                 96.003898
_cell_angle_beta                  91.020378
_cell_angle_gamma                 88.823368
_cell_volume                      3166.3123071

loop_
_atom_site_label
_atom_site_type_symbol
_atom_type_description
_atom_site_fract_x
_atom_site_fract_y
_atom_site_fract_z
_atom_type_partial_charge
O1    O     O_R   0.617180 0.809390 0.808140 -0.526378
O2    O     O_R   0.382820 0.190610 0.191860 -0.526379
O3    O     O_R   0.293300 0.672410 0.795490 -0.531312
O4    O     O_R   0.706700 0.327590 0.204510 -0.531312
O5    O     O_R   0.117220 0.690610 0.691850 -0.528547
O6    O     O_R   0.882780 0.309390 0.308150 -0.528546
C1    C     C_R   0.464534 0.647649 0.804995 0.868292
C2    C     C_R   0.535466 0.352352 0.195005 0.868292
O7    O     O_R   0.287840 0.807750 0.814460 -0.525173
O8    O     O_R   0.712160 0.192250 0.185540 -0.525174
O9    O     O_R   0.111720 0.826910 0.710960 -0.531679
O10   O     O_R   0.888280 0.173090 0.289040 -0.531678
C3    C     C_R   0.456469 0.830790 0.833158 0.737781
C4    C     C_R   0.543531 0.169210 0.166842 0.737779
O11   O     O_R   0.622680 0.673080 0.789040 -0.530339
O12   O     O_R   0.377320 0.326920 0.210960 -0.530339
O13   O     O_3   0.448820 0.756130 0.716020 -0.366748
O14   O     O_3   0.551180 0.243870 0.283980 -0.366748
V1    V     V_3+5 0.176220 0.748860 0.756300 1.579803
V2    V     V_3+5 0.823780 0.251140 0.243700 1.579804
O15   O     O_R   0.781670 0.827580 0.704500 -0.534276
O16   O     O_R   0.218330 0.172420 0.295500 -0.534277
C5    C     C_R   0.948529 0.851738 0.693862 0.834136
C6    C     C_R   0.051471 0.148263 0.306139 0.834133
O17   O     O_R   0.787130 0.692240 0.685530 -0.521673
O18   O     O_R   0.212870 0.307760 0.314470 -0.521673
C7    C     C_R   0.956114 0.669239 0.666795 0.748493
C8    C     C_R   0.043885 0.330761 0.333205 0.748497
V3    V     V_3+5 0.675510 0.751130 0.743690 1.580330
V4    V     V_3+5 0.324490 0.248870 0.256310 1.580328
O19   O     O_3   0.952780 0.743870 0.783980 -0.364975
O20   O     O_3   0.047220 0.256130 0.216020 -0.364976
C9    C     C_1   0.966668 0.617178 0.614740 -0.117369
C10   C     C_1   0.033332 0.382821 0.385260 -0.117365
C11   C     C_1   0.978223 0.573663 0.571923 0.070562
C12   C     C_1   0.021777 0.426337 0.428077 0.070564
C13   C     C_1   0.993431 0.521860 0.521317 0.064170
C14   C     C_1   0.006569 0.478140 0.478683 0.064171
C15   C     C_R   0.951345 0.915072 0.664233 -0.276666
C16   C     C_R   0.048652 0.084931 0.335770 -0.276671
C17   C     C_R   0.944532 0.039933 0.668810 0.286779
C18   C     C_R   0.055433 0.960071 0.331199 0.286781
C19   C     C_R   0.925316 0.979411 0.695956 -0.002966
C20   C     C_R   0.074674 0.020590 0.304051 -0.002958
C21   C     C_R   0.979034 0.910951 0.604451 0.680684
C22   C     C_R   0.020957 0.089056 0.395553 0.680679
C23   C     C_R   0.976726 0.971128 0.574934 -0.087721
C24   C     C_R   0.023253 0.028880 0.425073 -0.087719
C25   C     C_R   0.985054 0.035540 0.608977 -0.287116
C26   C     C_R   0.014901 0.964468 0.391031 -0.287109
C27   C     C_R   0.977504 0.969752 0.513084 -0.212739
C28   C     C_R   0.022469 0.030258 0.486922 -0.212744
C29   C     C_R   0.075846 0.088718 0.523689 0.691826
C30   C     C_R   0.924099 0.911295 0.476319 0.691834
C31   C     C_R   0.046177 0.092785 0.582746 0.597920
C32   C     C_R   0.953738 0.907229 0.417261 0.597915
C33   C     C_R   0.484233 0.585494 0.835213 -0.330975
C34   C     C_R   0.515767 0.414506 0.164788 -0.330974
C35   C     C_R   0.612578 0.469986 0.834646 -0.085225
C36   C     C_R   0.387419 0.530014 0.165354 -0.085226
C37   C     C_R   0.556504 0.525284 0.805156 0.528826
C38   C     C_R   0.443492 0.474715 0.194845 0.528826
C39   C     C_R   0.456956 0.588500 0.894993 0.641624
C40   C     C_R   0.543047 0.411500 0.105008 0.641623
C41   C     C_R   0.495726 0.529769 0.925128 -0.050591
C42   C     C_R   0.504277 0.470232 0.074873 -0.050590
C43   C     C_R   0.590787 0.472792 0.894475 -0.271881
C44   C     C_R   0.409213 0.527209 0.105526 -0.271878
C45   C     C_R   0.457491 0.527000 0.985120 -0.201772
C46   C     C_R   0.542512 0.473002 0.014881 -0.201772
C47   C     C_R   0.667287 0.425255 0.983893 0.691229
C48   C     C_R   0.332716 0.574747 0.016108 0.691228
C49   C     C_R   0.677745 0.421923 0.924334 0.606718
C50   C     C_R   0.322256 0.578078 0.075666 0.606717
H1    H     H_    0.679837 0.425783 0.810675 0.229883
H2    H     H_    0.320157 0.574216 0.189325 0.229881
C51   C     C_1   0.467131 0.882883 0.885194 -0.123024
C52   C     C_1   0.532869 0.117117 0.114806 -0.123028
C53   C     C_1   0.478593 0.926399 0.928016 0.069468
C54   C     C_1   0.521407 0.073601 0.071984 0.069465
C55   C     C_1   0.493553 0.978163 0.978661 0.062427
C56   C     C_1   0.506447 0.021837 0.021339 0.062426
F1    F     F_    0.101522 0.151226 0.614395 -0.579323
F2    F     F_    0.898306 0.848799 0.385610 -0.579329
F3    F     F_    0.794911 0.385595 0.010713 -0.574541
F4    F     F_    0.205094 0.614407 0.989288 -0.574541
F5    F     F_    0.970051 0.151268 0.422738 -0.627492
F6    F     F_    0.029935 0.848740 0.577262 -0.627499
I1    I     I_    0.130386 0.016728 0.213655 -0.310557
I2    I     I_    0.869632 0.983265 0.786352 -0.310571
I3    I     I_    0.889321 0.136824 0.718327 -0.019723
I4    I     I_    0.110644 0.863174 0.281691 -0.019722
F7    F     F_    0.174917 0.140287 0.504151 -0.569168
F8    F     F_    0.825011 0.859733 0.495860 -0.569182
F9    F     F_    0.789157 0.371809 0.896246 -0.600684
F10   F     F_    0.210843 0.628192 0.103755 -0.600685
F11   F     F_    0.575845 0.348524 0.076444 -0.619569
F12   F     F_    0.424163 0.651477 0.923556 -0.619570
F13   F     F_    0.414098 0.478089 0.252411 -0.660730
F14   F     F_    0.585893 0.521910 0.747589 -0.660726

loop_
_geom_bond_atom_site_label_1
_geom_bond_atom_site_label_2
_ccdc_geom_bond_type
C34   C38   A    
C42   C44   A    
C39   C41   A    
O13   V3    S    
C29   C31   A    
O4    C2    A    
V1    O19   S    
C55   C56   T    
C23   C25   A    
C7    C9    S    
C16   C22   A    
O9    V1    S    
C11   C13   S    
C39   F12   S    
O3    C1    A    
C9    C11   T    
C32   F2    S    
C52   C54   T    
O12   V4    S    
C36   C38   A    
O9    C5    A    
O7    C3    A    
C2    C34   S    
C47   F3    S    
O7    V1    S    
O6    C8    A    
O8    V2    S    
C41   C43   A    
O3    V1    S    
C46   C47   A    
C43   C49   A    
C18   I4    S    
C15   C21   A    
C35   C43   A    
C51   C53   T    
C8    C10   S    
C2    O12   A    
O5    C7    A    
C34   C40   A    
C17   C19   A    
C18   C20   A    
C17   C25   A    
O11   V3    S    
C22   C24   A    
C21   C23   A    
O17   V3    S    
C3    C51   S    
C35   C37   A    
C19   I2    S    
C29   F7    S    
C27   C28   A    
C50   F10   S    
C21   F6    S    
C48   C50   A    
O8    C4    A    
C47   C49   A    
C15   C19   A    
C1    O11   A    
C25   C31   A    
O15   V3    S    
C36   H2    S    
C26   C32   A    
C40   C42   A    
C45   C48   A    
C13   C14   T    
C48   F4    S    
C16   C20   A    
O10   V2    S    
O1    V3    S    
C18   C26   A    
O14   V4    S    
C54   C56   S    
C40   F11   S    
C17   I3    S    
O18   V4    S    
O15   C5    A    
O16   C6    A    
C37   F14   S    
O1    C3    A    
C49   F9    S    
C31   F1    S    
C35   H1    S    
C28   C29   A    
C53   C55   S    
C22   F5    S    
V2    O20   S    
C6    C16   S    
O16   V4    S    
C33   C39   A    
C23   C27   A    
C30   C32   A    
C33   C37   A    
O5    V1    S    
O17   C7    A    
O6    V2    S    
O10   C6    A    
O18   C8    A    
O2    V4    S    
C27   C30   A    
C12   C14   S    
V3    O19   S    
V4    O20   S    
C42   C46   A    
C41   C45   A    
C24   C26   A    
O13   V1    S    
C10   C12   T    
C1    C33   S    
O14   V2    S    
C4    C52   S    
C45   C46   A    
O2    C4    A    
C30   F8    S    
C38   F13   S    
O4    V2    S    
C24   C28   A    
C36   C44   A    
C44   C50   A    
C5    C15   S    
C20   I1    S    
