data_mof_unit_11989.cif
_audit_creation_date              2012-12-10T20:31:08-0500
_audit_creation_method            fapswitch 2.2
_symmetry_space_group_name_H-M    P1
_symmetry_Int_Tables_number       1
_space_group_crystal_system       triclinic
_cell_length_a                    14.931808
_cell_length_b                    10.690284
_cell_length_c                    9.901933
_cell_angle_alpha                 89.079961
_cell_angle_beta                  89.973258
_cell_angle_gamma                 90.238493
_cell_volume                      1580.3810198

loop_
_atom_site_label
_atom_site_type_symbol
_atom_type_description
_atom_site_fract_x
_atom_site_fract_y
_atom_site_fract_z
_atom_type_partial_charge
C1    C     C_R   0.502370 0.259747 0.500568 0.844468
C2    C     C_R   0.187648 0.372638 0.503606 0.133764
C3    C     C_R   0.232145 0.488942 0.500326 -0.066252
C4    C     C_R   0.327340 0.496790 0.500102 0.891685
C5    C     C_R   0.186692 0.601744 0.497095 -0.306007
C6    C     C_R   0.529914 0.060887 0.619579 0.141136
C7    C     C_R   0.517540 0.128079 0.499487 -0.099033
C8    C     C_R   0.525214 0.066514 0.375552 -0.217008
C9    C     C_R   0.526195 0.937212 0.374310 -0.232967
C10   C     C_R   0.519637 0.870849 0.497038 -0.106239
C11   C     C_R   0.530654 0.933125 0.618137 0.130064
C12   C     C_R   0.907113 0.602868 0.496804 0.077910
C13   C     C_3   0.479564 0.920694 0.747181 -0.461186
C14   C     C_3   0.478734 0.062009 0.749085 -0.512089
C15   C     C_R   0.427316 0.456805 0.072433 0.179275
C16   C     C_R   0.503584 0.739794 0.498962 0.871416
C17   C     C_R   0.568225 0.552775 0.070793 -0.141311
C18   C     C_R   0.568331 0.552536 0.927140 -0.138731
C19   C     C_R   0.426680 0.458366 0.929676 0.174976
C20   C     C_3   0.388032 0.329465 0.926387 -0.091028
C21   C     C_3   0.390197 0.326975 0.080616 -0.079662
C22   C     C_R   0.672694 0.499563 0.499974 0.890827
C23   C     C_R   0.952470 0.259977 0.506294 -0.227665
C24   C     C_R   0.814683 0.603369 0.496707 -0.315031
C25   C     C_R   0.767740 0.491225 0.500096 -0.045417
C26   C     C_R   0.810919 0.374399 0.503617 0.131205
C27   C     C_R   0.905088 0.373043 0.503329 0.127485
C28   C     C_R   0.953060 0.487916 0.500050 0.019708
C29   C     C_3   0.295794 0.324104 0.859196 -0.820188
C30   C     C_3   0.300036 0.318851 0.153935 -0.798216
C31   C     C_3   0.757841 0.252839 0.507719 -0.916059
C32   C     C_3   0.239021 0.249980 0.507439 -0.996289
C33   C     C_3   0.093973 0.844009 0.490660 -0.947410
C34   C     C_R   0.044966 0.259751 0.506278 -0.219595
C35   C     C_R   0.093584 0.372577 0.503337 0.141211
C36   C     C_R   0.046897 0.488117 0.500096 -0.027014
C37   C     C_R   0.093811 0.603848 0.496984 0.099218
C38   C     C_R   0.046797 0.718653 0.493852 0.214988
C39   C     C_R   0.953536 0.716385 0.493750 -0.207797
H1    H     H_    0.778590 0.691417 0.494151 0.138383
H2    H     H_    0.439650 0.258722 0.121526 0.150860
H3    H     H_    0.919036 0.170044 0.508662 0.159433
H4    H     H_    0.077392 0.169522 0.508649 0.165001
H5    H     H_    0.225330 0.687800 0.494731 0.157613
H6    H     H_    0.916706 0.803667 0.491343 0.145317
H7    H     H_    0.523793 0.116749 0.279777 0.166850
H8    H     H_    0.252802 0.403759 0.888557 0.249835
H9    H     H_    0.304779 0.326976 0.748869 0.266985
H10   H     H_    0.261891 0.234403 0.885455 0.233790
H11   H     H_    0.312624 0.315892 0.263561 0.264960
H12   H     H_    0.524888 0.890444 0.278072 0.173216
H13   H     H_    0.256520 0.400211 0.129708 0.246722
H14   H     H_    0.264933 0.230754 0.128040 0.232590
H15   H     H_    0.773794 0.196743 0.417489 0.238709
H16   H     H_    0.774629 0.198588 0.600792 0.237417
H17   H     H_    0.684683 0.266620 0.508243 0.238225
H18   H     H_    0.312611 0.262260 0.508028 0.234826
H19   H     H_    0.221056 0.195392 0.599923 0.246402
H20   H     H_    0.221885 0.193916 0.417585 0.250250
H21   H     H_    0.136255 0.853705 0.582146 0.242681
H22   H     H_    0.136437 0.852320 0.398845 0.245014
H23   H     H_    0.411873 0.878867 0.733686 0.208520
H24   H     H_    0.045916 0.923080 0.488515 0.234510
H25   H     H_    0.520393 0.878003 0.829572 0.203439
H26   H     H_    0.410373 0.101531 0.736760 0.211297
H27   H     H_    0.519883 0.099499 0.832810 0.197451
H28   H     H_    0.624152 0.593678 0.123879 0.156671
H29   H     H_    0.624359 0.593158 0.872558 0.157223
H30   H     H_    0.436148 0.263851 0.882752 0.157496
N1    N     N_R   0.499390 0.499140 0.142800 -0.121694
N2    N     N_R   0.499390 0.499180 0.857150 -0.121194
O1    O     O_R   0.500010 0.316790 0.614690 -0.617674
O2    O     O_R   0.500000 0.316760 0.385350 -0.626779
O3    O     O_R   0.367850 0.499990 0.614680 -0.615568
O4    O     O_R   0.367840 0.499950 0.385340 -0.612916
O5    O     O_R   0.500000 0.683240 0.614650 -0.617940
O6    O     O_R   0.499990 0.683210 0.385310 -0.622085
O7    O     O_R   0.632160 0.500050 0.614660 -0.619815
O8    O     O_R   0.632150 0.500010 0.385320 -0.619499
Zn1   Zn    Zn3+2 0.500010 0.500020 0.653130 0.943163
Zn2   Zn    Zn3+2 0.499990 0.499980 0.346870 0.943173

loop_
_geom_bond_atom_site_label_1
_geom_bond_atom_site_label_2
_ccdc_geom_bond_type
C2    C35   A    
C5    C37   A    
C19   N2    A    
C19   C20   S    
C9    H12   S    
C32   H19   S    
C7    C8    A    
C29   H10   S    
C15   C19   A    
C26   C27   A    
C23   H3    S    
C12   C28   A    
C36   C37   A    
C22   O8    A    
C34   C35   A    
C38   C39   A    
O7    Zn1   S    
C18   H29   S    
C2    C32   S    
C16   O6    A    
N1    Zn2   S    
C4    O4    A    
C1    C7    S    
C13   H23   S    
C35   C36   A    
C8    C9    A    
C22   C25   S    
C23   C27   A    
C31   H17   S    
C9    C10   A    
C4    O3    A    
C39   H6    S    
C30   H11   S    
C26   C31   S    
O3    Zn1   S    
C13   C14   S    
C32   H18   S    
O2    Zn2   S    
N2    Zn1   S    
C20   C29   S    
C30   H14   S    
C17   H28   S    
C1    O1    A    
C29   H9    S    
C24   C25   A    
C22   O7    A    
C6    C11   A    
O8    Zn2   S    
O4    Zn2   S    
C25   C26   A    
C37   C38   A    
C6    C14   S    
O6    Zn2   S    
C33   H24   S    
C23   C34   A    
C17   C18   A    
C14   H27   S    
C21   H2    S    
C5    H5    S    
C29   H8    S    
C33   H21   S    
C20   H30   S    
C3    C4    S    
C18   N2    A    
C15   N1    A    
C30   H13   S    
C16   O5    A    
C34   H4    S    
O5    Zn1   S    
C3    C5    A    
C6    C7    A    
C21   C30   S    
C12   C24   A    
C33   C38   S    
C1    O2    A    
C12   C39   A    
C2    C3    A    
O1    Zn1   S    
C10   C16   S    
C11   C13   S    
C13   H25   S    
C24   H1    S    
C14   H26   S    
C31   H15   S    
C8    H7    S    
C10   C11   A    
C15   C21   S    
C20   C21   S    
C28   C36   A    
C33   H22   S    
C27   C28   A    
C32   H20   S    
C31   H16   S    
C17   N1    A    
