data_mof_unit_7115.cif
_audit_creation_date              2013-03-05T16:36:43-0500
_audit_creation_method            fapswitch 2.2
_symmetry_space_group_name_H-M    P1
_symmetry_Int_Tables_number       1
_space_group_crystal_system       triclinic
_cell_length_a                    7.778008
_cell_length_b                    9.089937
_cell_length_c                    17.090402
_cell_angle_alpha                 89.3328
_cell_angle_beta                  94.347675
_cell_angle_gamma                 89.946748
_cell_volume                      1204.75807497

loop_
_atom_site_label
_atom_site_type_symbol
_atom_site_description
_atom_site_fract_x
_atom_site_fract_y
_atom_site_fract_z
_atom_type_partial_charge
O1    O     O_R   0.642760 0.288400 0.500000 -0.556844
O2    O     O_R   0.357240 0.711600 0.500000 -0.547239
O3    O     O_R   0.357190 0.288380 0.500000 -0.588031
O4    O     O_R   0.642810 0.711620 0.500000 -0.589462
C1    C     C_R   0.500046 0.219998 0.500110 0.859350
C2    C     C_R   0.499956 0.780001 0.499893 0.884426
O5    O     O_R   0.658410 0.498660 0.613920 -0.548898
O6    O     O_R   0.341590 0.501340 0.386080 -0.555008
O7    O     O_R   0.372840 0.498650 0.613930 -0.549981
O8    O     O_R   0.627160 0.501350 0.386070 -0.552569
C3    C     C_R   0.522096 0.499441 0.651390 0.894223
C4    C     C_R   0.478089 0.501211 0.348635 0.924079
Cu1   Cu    Cu3+1 0.669080 0.500010 0.500000 1.137403
Cu2   Cu    Cu3+1 0.330920 0.499990 0.500000 1.138512
N1    N     N_1   0.076820 0.499970 0.500010 0.001488
N2    N     N_1   0.923180 0.500030 0.499990 0.003290
C5    C     C_R   0.536741 0.504368 0.737592 -0.310446
C6    C     C_R   0.463307 0.496092 0.262478 -0.313759
C7    C     C_R   0.418127 0.588842 0.777273 0.188300
C8    C     C_R   0.579352 0.408328 0.223193 0.185258
C9    C     C_R   0.426170 0.585954 0.859720 0.365963
C10   C     C_R   0.564029 0.401664 0.140975 0.372459
C11   C     C_R   0.548695 0.495019 0.902333 0.156131
C12   C     C_R   0.435445 0.485446 0.097720 0.152294
C13   C     C_R   0.668293 0.416482 0.862807 -0.275168
C14   C     C_R   0.317207 0.566175 0.136971 -0.282161
C15   C     C_R   0.664238 0.420071 0.781214 0.286119
C16   C     C_R   0.331171 0.575446 0.218665 0.286225
N3    N     N_2   0.562025 0.485578 0.985241 -0.147032
N4    N     N_2   0.420594 0.491875 0.014679 -0.146811
C17   C     C_1   0.500065 0.065370 0.500028 -0.078139
C18   C     C_1   0.499929 0.934626 0.499950 -0.070305
H1    H     H_    0.764726 0.350090 0.895978 0.207773
H2    H     H_    0.218390 0.628862 0.103113 0.212693
N5    N     N_R   0.708678 0.320276 0.266158 0.157857
O9    O     O_R   0.867805 0.324409 0.247553 -0.269358
O10   O     O_R   0.664080 0.223054 0.317295 -0.368614
N6    N     N_R   0.294447 0.683265 0.734728 0.159950
O11   O     O_R   0.344761 0.777633 0.683406 -0.369650
O12   O     O_R   0.135303 0.686827 0.753287 -0.257211
O13   O     O_3   0.676069 0.313467 0.103202 -0.520883
C19   C     C_3   0.600499 0.173331 0.092487 0.100925
H3    H     H_    0.476309 0.181198 0.055720 0.134903
H4    H     H_    0.577324 0.120774 0.149957 0.179083
C20   C     C_3   0.722349 0.075176 0.050993 -0.701934
H5    H     H_    0.849047 0.067915 0.085481 0.275858
H6    H     H_    0.667192 0.962987 0.045020 0.192681
H7    H     H_    0.741357 0.120619 0.991676 0.240189
O14   O     O_3   0.313619 0.672101 0.898372 -0.521323
C21   C     C_3   0.391004 0.810423 0.913137 0.104008
H8    H     H_    0.420731 0.866487 0.857427 0.177989
H9    H     H_    0.511824 0.798404 0.952008 0.136748
C22   C     C_3   0.266805 0.907423 0.953948 -0.704345
H10   H     H_    0.241823 0.858865 0.011914 0.238283
H11   H     H_    0.323265 0.018567 0.962784 0.191610
H12   H     H_    0.142982 0.918025 0.917417 0.278025
N7    N     N_R   0.786010 0.332090 0.743667 0.140733
O15   O     O_R   0.918026 0.394800 0.714888 -0.283811
O16   O     O_R   0.787688 0.190267 0.754794 -0.344928
N8    N     N_R   0.215974 0.672006 0.255551 0.157379
O17   O     O_R   0.055862 0.683745 0.227975 -0.312987
O18   O     O_R   0.276462 0.765593 0.307685 -0.355315

loop_
_geom_bond_atom_site_label_1
_geom_bond_atom_site_label_2
_geom_bond_distance
_ccdc_geom_bond_type
C7    C9    1.405637 A    
C21   H9    1.113473 S    
O7    Cu2   1.949584 S    
O8    Cu1   1.949586 S    
C22   H10   1.110470 S    
N3    N4    1.245377 D    
C7    N6    1.438285 S    
C13   C15   1.392434 A    
O13   C19   1.411434 S    
C14   C16   1.395712 A    
C17   C18   1.188478 T    
O6    C4    1.280522 A    
C22   H12   1.110803 S    
C22   H11   1.109355 S    
C21   H8    1.114433 S    
C6    C16   1.416554 A    
Cu1   Cu2   2.630212 S    
N8    O18   1.301433 A    
N6    O12   1.301361 A    
O7    C3    1.282607 A    
N7    O15   1.300897 A    
O2    C2    1.272931 A    
O3    Cu2   1.934155 S    
C19   H4    1.114226 S    
O1    C1    1.272925 A    
C11   N3    1.414452 S    
C9    O14   1.383612 S    
N5    O10   1.301408 A    
C12   C14   1.392116 A    
O5    C3    1.279577 A    
O8    C4    1.281112 A    
C20   H6    1.109518 S    
C9    C11   1.414617 A    
N6    O11   1.301323 A    
O2    Cu2   1.934574 S    
C10   C12   1.414251 A    
N7    O16   1.300822 A    
C10   O13   1.383819 S    
O1    Cu1   1.934575 S    
C19   H3    1.113469 S    
C8    C10   1.403171 A    
C12   N4    1.415672 S    
C5    C7    1.416450 A    
N1    N2    1.194988 T    
C21   C22   1.520529 S    
O5    Cu1   1.954879 S    
C11   C13   1.391609 A    
C16   N8    1.437945 S    
C6    C8    1.415953 A    
O4    C2    1.272528 A    
O14   C21   1.411611 S    
C15   N7    1.432176 S    
Cu1   N2    1.976404 S    
C4    C6    1.469508 S    
O4    Cu1   1.934155 S    
Cu2   N1    1.976404 S    
C3    C5    1.470189 S    
C2    C18   1.405542 S    
O6    Cu2   1.954881 S    
C20   H7    1.110523 S    
C1    C17   1.405574 S    
C20   H5    1.110765 S    
C8    N5    1.436826 S    
C14   H2    1.083670 S    
N5    O9    1.301485 A    
C13   H1    1.083924 S    
N8    O17   1.301537 A    
O3    C1    1.272544 A    
C19   C20   1.520616 S    
C5    C15   1.414054 A    
