data_mof_unit_40442.cif
_audit_creation_date              2012-10-26T20:02:53-0400
_audit_creation_method            fapswitch 2.2
_symmetry_space_group_name_H-M    P1
_symmetry_Int_Tables_number       1
_space_group_crystal_system       triclinic
_cell_length_a                    10.733711
_cell_length_b                    12.322282
_cell_length_c                    13.26719
_cell_angle_alpha                 116.943057
_cell_angle_beta                  75.582159
_cell_angle_gamma                 101.066211
_cell_volume                      1508.65954051

loop_
_atom_site_label
_atom_site_type_symbol
_atom_type_description
_atom_site_fract_x
_atom_site_fract_y
_atom_site_fract_z
_atom_type_partial_charge
C1    C     C_R   0.510777 0.855017 0.286419 0.552416
C2    C     C_R   0.462761 0.561748 0.022955 0.022147
C3    C     C_R   0.526242 0.653452 0.111365 0.009739
C4    C     C_R   0.739288 0.003196 0.504725 0.549721
C5    C     C_R   0.491439 0.438155 0.977744 0.033074
C6    C     C_R   0.574503 0.408393 0.028001 0.038959
C7    C     C_R   0.646121 0.501236 0.104508 -0.129488
C8    C     C_R   0.629995 0.622712 0.137790 -0.010228
C9    C     C_R   0.449817 0.344796 0.878544 -0.126752
C10   C     C_R   0.554068 0.195779 0.893292 -0.130455
C11   C     C_R   0.489442 0.774769 0.167084 -0.008015
C12   C     C_3   0.121135 0.007051 0.509749 0.045941
C13   C     C_R   0.718314 0.349968 0.335550 -0.149883
C14   C     C_R   0.320918 0.760221 0.644840 0.053905
C15   C     C_R   0.280933 0.664355 0.677116 -0.160833
C16   C     C_R   0.482050 0.145050 0.713410 0.531890
C17   C     C_R   0.348790 0.560837 0.623115 -0.133935
C18   C     C_R   0.458454 0.552532 0.536132 0.000543
C19   C     C_R   0.496181 0.653695 0.506719 0.182213
C20   C     C_R   0.532076 0.448368 0.477421 -0.005600
C21   C     C_R   0.644236 0.450126 0.394533 0.037105
C22   C     C_R   0.681410 0.551412 0.370273 -0.178584
C23   C     C_3   0.035041 0.995534 0.618134 -0.238680
C24   C     C_R   0.606434 0.649101 0.422216 -0.097964
C25   C     C_R   0.500058 0.341889 0.497154 0.053946
C26   C     C_R   0.681412 0.248159 0.358719 0.051388
C27   C     C_R   0.259498 0.004193 0.506021 0.539075
C28   C     C_3   0.952166 0.131525 0.518580 -0.234902
C29   C     C_3   0.096645 0.128499 0.511650 -0.233155
C30   C     C_3   0.890602 0.988411 0.614241 -0.230359
C31   C     C_3   0.941004 0.905009 0.397526 -0.232744
C32   C     C_3   0.877259 0.006978 0.509296 0.036074
C33   C     C_1   0.371438 0.931812 0.167925 0.203038
C34   C     C_3   0.080606 0.898168 0.401946 -0.233098
C35   C     C_1   0.740722 0.709343 0.164238 0.164833
C36   C     C_R   0.598478 0.286781 0.990057 -0.125814
C37   C     C_R   0.487407 0.226602 0.833312 0.002969
C38   C     C_R   0.407218 0.808428 0.119685 -0.029274
C39   C     C_R   0.352507 0.719826 0.027057 -0.141255
C40   C     C_R   0.375360 0.597682 0.982247 -0.130938
Cu1   Cu    Cu3+1 0.529690 0.098270 0.475420 0.947546
Cu2   Cu    Cu3+1 0.470310 0.901730 0.524580 0.918736
H1    H     H_    0.912748 0.206703 0.601288 0.127579
H2    H     H_    0.286721 0.744467 0.992250 0.122318
H3    H     H_    0.941316 0.151849 0.447702 0.135365
H4    H     H_    0.738467 0.170598 0.314096 0.126279
H5    H     H_    0.768671 0.554592 0.309117 0.103871
H6    H     H_    0.803998 0.350398 0.271867 0.089556
H7    H     H_    0.417024 0.332699 0.558881 0.107798
H8    H     H_    0.267702 0.840299 0.687025 0.124566
H9    H     H_    0.313934 0.489499 0.651721 0.089355
H10   H     H_    0.197179 0.670299 0.744124 0.101966
H11   H     H_    0.637889 0.719381 0.393319 0.184347
H12   H     H_    0.088311 0.810335 0.403909 0.133861
H13   H     H_    0.152272 0.137132 0.432310 0.159954
H14   H     H_    0.129886 0.208264 0.586665 0.109602
H15   H     H_    0.842043 0.059415 0.695427 0.110498
H16   H     H_    0.058902 0.075683 0.697163 0.107134
H17   H     H_    0.884921 0.814740 0.381896 0.134411
H18   H     H_    0.944164 0.928532 0.325530 0.167026
H19   H     H_    0.145665 0.898895 0.322572 0.133506
H20   H     H_    0.842651 0.897653 0.608021 0.138388
H21   H     H_    0.053035 0.912162 0.622946 0.128044
H22   H     H_    0.583393 0.104375 0.858769 0.125763
H23   H     H_    0.725559 0.478857 0.126417 0.100921
H24   H     H_    0.659865 0.263667 0.029850 0.110806
H25   H     H_    0.398389 0.363493 0.828706 0.097446
H26   H     H_    0.322656 0.533549 0.916112 0.100857
N1    N     N_R   0.574690 0.246280 0.438200 -0.229169
N2    N     N_R   0.426100 0.754320 0.561190 -0.236445
N3    N     N_1   0.342813 0.030620 0.206373 -0.302326
N4    N     N_1   0.831233 0.777974 0.179998 -0.361867
O1    O     O_R   0.537340 0.972510 0.318130 -0.478959
O2    O     O_R   0.487200 0.806530 0.359650 -0.509926
O3    O     O_R   0.707380 0.082980 0.479220 -0.506850
O4    O     O_R   0.657240 0.917000 0.520740 -0.526783
O5    O     O_R   0.512800 0.193470 0.640350 -0.506180
O6    O     O_R   0.462660 0.027490 0.681870 -0.508631
O7    O     O_R   0.342760 0.083000 0.479260 -0.502204
O8    O     O_R   0.292620 0.917020 0.520780 -0.515178

loop_
_geom_bond_atom_site_label_1
_geom_bond_atom_site_label_2
_ccdc_geom_bond_type
C23   H16   S    
Cu2   O8    S    
C12   C29   S    
Cu1   Cu2   S    
C1    C11   S    
C17   H9    S    
C7    C8    A    
C12   C23   S    
C10   C37   A    
C5    C6    A    
C1    O2    A    
C28   C29   S    
C18   C19   A    
C27   O7    A    
Cu1   O5    S    
C38   C39   A    
C36   H24   S    
C7    H23   S    
C20   C25   A    
C30   H15   S    
Cu2   N2    S    
C16   O5    A    
C31   H17   S    
C4    O3    A    
C18   C20   A    
C16   C37   S    
C23   H21   S    
C22   H5    S    
C21   C22   A    
C14   N2    A    
C6    C7    A    
C28   H3    S    
Cu2   O2    S    
C12   C27   S    
C23   C30   S    
C28   C32   S    
C3    C8    A    
C39   C40   A    
C33   N3    T    
C29   H13   S    
C24   H11   S    
C34   H19   S    
C8    C35   S    
C31   H18   S    
C11   C38   A    
C9    H25   S    
C5    C9    A    
Cu1   O3    S    
C31   C32   S    
C9    C37   A    
C17   C18   A    
C31   C34   S    
C13   C21   A    
C15   H10   S    
C4    C32   S    
C35   N4    T    
Cu2   O6    S    
C30   H20   S    
C22   C24   A    
C13   C26   A    
C2    C5    A    
C25   N1    A    
C12   C34   S    
Cu1   N1    S    
C15   C17   A    
C10   H22   S    
Cu1   O7    S    
C13   H6    S    
C34   H12   S    
C39   H2    S    
C29   H14   S    
C28   H1    S    
Cu2   O4    S    
C33   C38   S    
C1    O1    A    
C19   C24   A    
C30   C32   S    
C14   H8    S    
C6    C36   A    
C2    C3    A    
C16   O6    A    
C25   H7    S    
C4    O4    A    
C3    C11   A    
C26   H4    S    
Cu1   O1    S    
C2    C40   A    
C20   C21   A    
C27   O8    A    
C40   H26   S    
C26   N1    A    
C14   C15   A    
C19   N2    A    
C10   C36   A    
