data_mof_unit_28968.cif
_audit_creation_date              2012-10-26T19:52:43-0400
_audit_creation_method            fapswitch 2.2
_symmetry_space_group_name_H-M    P1
_symmetry_Int_Tables_number       1
_space_group_crystal_system       triclinic
_cell_length_a                    15.086539
_cell_length_b                    10.823814
_cell_length_c                    9.531524
_cell_angle_alpha                 89.924726
_cell_angle_beta                  90.003011
_cell_angle_gamma                 90.163264
_cell_volume                      1556.43198712

loop_
_atom_site_label
_atom_site_type_symbol
_atom_type_description
_atom_site_fract_x
_atom_site_fract_y
_atom_site_fract_z
_atom_type_partial_charge
C1    C     C_R   0.501560 0.262260 0.500023 0.550565
C2    C     C_R   0.185321 0.498291 0.627647 -0.140374
C3    C     C_R   0.231697 0.499038 0.500014 -0.014512
C4    C     C_R   0.328574 0.499725 0.500009 0.549402
C5    C     C_R   0.185309 0.498880 0.372389 -0.138217
C6    C     C_R   0.513135 0.063360 0.625619 0.026204
C7    C     C_R   0.510398 0.129194 0.499666 0.009856
C8    C     C_R   0.520385 0.064633 0.372683 -0.161523
C9    C     C_R   0.520361 0.935854 0.372575 -0.161598
C10   C     C_R   0.510429 0.870805 0.499448 0.007689
C11   C     C_R   0.513102 0.936189 0.625485 0.017996
C12   C     C_R   0.907221 0.497297 0.371532 0.013014
C13   C     C_3   0.453322 0.929094 0.750214 -0.264971
C14   C     C_3   0.453483 0.069370 0.750530 -0.274385
C15   C     C_R   0.531346 0.599878 0.073482 0.157699
C16   C     C_R   0.501623 0.737719 0.499866 0.550490
C17   C     C_R   0.459989 0.407945 0.074591 -0.017520
C18   C     C_R   0.459873 0.408044 0.925635 -0.016821
C19   C     C_R   0.531379 0.599813 0.926099 0.156924
C20   C     C_3   0.622557 0.652813 0.919933 -0.277271
C21   C     C_3   0.622558 0.652921 0.079228 -0.278179
C22   C     C_R   0.671469 0.499346 0.499999 0.550523
C23   C     C_R   0.953880 0.496403 0.755720 -0.132006
C24   C     C_R   0.814881 0.497293 0.372482 -0.136864
C25   C     C_R   0.768426 0.497846 0.500016 -0.012488
C26   C     C_R   0.814882 0.496717 0.627557 -0.136598
C27   C     C_R   0.907226 0.496708 0.628512 0.013008
C28   C     C_R   0.953640 0.497237 0.500023 0.061073
C29   C     C_R   0.046295 0.496880 0.755740 -0.132637
C30   C     C_R   0.092970 0.497591 0.628556 0.011749
C31   C     C_R   0.046557 0.497646 0.500022 0.061475
C32   C     C_R   0.092959 0.498187 0.371487 0.011881
C33   C     C_R   0.046277 0.498069 0.244302 -0.132275
C34   C     C_R   0.953864 0.497588 0.244323 -0.131997
Cu1   Cu    Cu3+1 0.500000 0.499980 0.640670 0.936625
Cu2   Cu    Cu3+1 0.500000 0.500020 0.359330 0.934744
H1    H     H_    0.779422 0.496717 0.273745 0.116610
H2    H     H_    0.779422 0.495681 0.726290 0.116866
H3    H     H_    0.623462 0.747326 0.124865 0.119681
H4    H     H_    0.918913 0.495993 0.855042 0.100656
H5    H     H_    0.081242 0.496775 0.855080 0.101384
H6    H     H_    0.220942 0.498255 0.726459 0.125932
H7    H     H_    0.220920 0.499317 0.273575 0.126936
H8    H     H_    0.081216 0.498430 0.144961 0.101495
H9    H     H_    0.918891 0.497638 0.145000 0.100595
H10   H     H_    0.523776 0.112871 0.273159 0.130602
H11   H     H_    0.671525 0.587757 0.874746 0.144594
H12   H     H_    0.523598 0.888002 0.273005 0.128765
H13   H     H_    0.671557 0.587981 0.124745 0.144825
H14   H     H_    0.387496 0.888220 0.725028 0.142673
H15   H     H_    0.486971 0.888572 0.843192 0.132294
H16   H     H_    0.387720 0.110207 0.725824 0.133067
H17   H     H_    0.487486 0.109347 0.843544 0.129745
H18   H     H_    0.428910 0.332335 0.130382 0.113664
H19   H     H_    0.428461 0.332792 0.870025 0.111187
H20   H     H_    0.623433 0.747107 0.873663 0.126011
N1    N     N_R   0.500570 0.500930 0.147930 -0.230591
N2    N     N_R   0.500570 0.500890 0.852020 -0.230578
O1    O     O_R   0.500000 0.319640 0.618810 -0.504539
O2    O     O_R   0.500010 0.319680 0.381230 -0.514655
O3    O     O_R   0.370250 0.499950 0.618800 -0.507447
O4    O     O_R   0.370260 0.499990 0.381220 -0.504040
O5    O     O_R   0.499990 0.680320 0.618770 -0.498662
O6    O     O_R   0.500000 0.680360 0.381190 -0.505355
O7    O     O_R   0.629740 0.500010 0.618780 -0.505973
O8    O     O_R   0.629750 0.500050 0.381200 -0.506422

loop_
_geom_bond_atom_site_label_1
_geom_bond_atom_site_label_2
_ccdc_geom_bond_type
Cu1   O5    S    
C22   O7    A    
C29   C30   A    
C16   O5    A    
C23   C27   A    
C6    C14   S    
C11   C13   S    
C9    C10   A    
C12   C24   A    
Cu2   O8    S    
Cu2   O6    S    
C31   C32   A    
C21   H3    S    
C2    C30   A    
C17   H18   S    
C20   H20   S    
C5    C32   A    
C32   C33   A    
C3    C5    A    
C21   H13   S    
C17   C18   A    
C5    H7    S    
C7    C8    A    
Cu1   O3    S    
C34   H9    S    
C13   H15   S    
C13   C14   S    
C24   C25   A    
C15   C19   A    
C15   N1    A    
C6    C11   A    
C26   C27   A    
C6    C7    A    
C18   H19   S    
C2    H6    S    
Cu1   N2    S    
Cu2   O4    S    
C23   C29   A    
C14   H16   S    
C13   H14   S    
C12   C28   A    
C33   C34   A    
C2    C3    A    
C1    O1    A    
C19   N2    A    
C30   C31   A    
C8    H10   S    
C20   H11   S    
C10   C11   A    
Cu1   O7    S    
C12   C34   A    
C23   H4    S    
C4    O4    A    
C15   C21   S    
C14   H17   S    
C20   C21   S    
C9    H12   S    
Cu1   O1    S    
Cu2   N1    S    
C1    O2    A    
C27   C28   A    
C24   H1    S    
C26   H2    S    
C10   C16   S    
Cu1   Cu2   S    
C16   O6    A    
C29   H5    S    
C25   C26   A    
C1    C7    S    
C33   H8    S    
C4    O3    A    
C18   N2    A    
C28   C31   A    
C22   O8    A    
C3    C4    S    
C19   C20   S    
C17   N1    A    
C8    C9    A    
Cu2   O2    S    
C22   C25   S    
