data_mof_unit_47883.cif
_audit_creation_date              2012-12-11T14:03:32-0500
_audit_creation_method            fapswitch 2.2
_symmetry_space_group_name_H-M    P1
_symmetry_Int_Tables_number       1
_space_group_crystal_system       triclinic
_cell_length_a                    6.956194
_cell_length_b                    11.503728
_cell_length_c                    18.721017
_cell_angle_alpha                 90.108763
_cell_angle_beta                  93.157556
_cell_angle_gamma                 90.235297
_cell_volume                      1495.80594067

loop_
_atom_site_label
_atom_site_type_symbol
_atom_type_description
_atom_site_fract_x
_atom_site_fract_y
_atom_site_fract_z
_atom_type_partial_charge
O1    O     O_R   0.330540 0.606360 0.598870 -0.512783
O2    O     O_R   0.669460 0.106360 0.401130 -0.510044
O3    O     O_R   0.026770 0.620470 0.750430 -0.540198
O4    O     O_R   0.973230 0.120470 0.249570 -0.544911
O5    O     O_R   0.856460 0.393640 0.750930 -0.543495
O6    O     O_R   0.143540 0.893640 0.249070 -0.543207
C1    C     C_R   0.199977 0.647669 0.774965 0.710630
C2    C     C_R   0.801285 0.147849 0.225683 0.721628
O7    O     O_R   0.000920 0.620350 0.599420 -0.545964
O8    O     O_R   0.999080 0.120350 0.400580 -0.549292
O9    O     O_R   0.830430 0.393520 0.598850 -0.547783
O10   O     O_R   0.169570 0.893520 0.401150 -0.549064
C3    C     C_R   0.166281 0.644431 0.573127 0.790686
C4    C     C_R   0.833922 0.144591 0.426869 0.793551
O11   O     O_R   0.356570 0.606480 0.750960 -0.538281
O12   O     O_R   0.643430 0.106480 0.249040 -0.533534
O13   O     O_3   0.176990 0.425580 0.674890 -0.384686
O14   O     O_3   0.823010 0.925580 0.325110 -0.384205
V1    V     V_3+5 0.902170 0.513810 0.674910 1.462957
V2    V     V_3+5 0.097830 0.013810 0.325090 1.466123
O15   O     O_R   0.500800 0.379530 0.599380 -0.554505
O16   O     O_R   0.499200 0.879530 0.400620 -0.552797
C5    C     C_R   0.666859 0.352948 0.574140 0.657348
C6    C     C_R   0.332893 0.853170 0.425901 0.658628
O17   O     O_R   0.526650 0.379650 0.750390 -0.540723
O18   O     O_R   0.473350 0.879650 0.249610 -0.541681
C7    C     C_R   0.698400 0.350337 0.773152 0.698869
C8    C     C_R   0.299973 0.852368 0.225145 0.700072
V3    V     V_3+5 0.402160 0.486190 0.674900 1.468748
V4    V     V_3+5 0.597840 0.986190 0.325100 1.476723
O19   O     O_3   0.677210 0.574420 0.674910 -0.349740
O20   O     O_3   0.322790 0.074420 0.325090 -0.349371
C9    C     C_R   0.768605 0.079346 0.881851 -0.057393
C10   C     C_R   0.119656 0.593434 0.117266 -0.052477
H1    H     H_    0.792350 0.988004 0.871253 0.186898
H2    H     H_    0.048822 0.511214 0.126566 0.178804
C11   C     C_R   0.714331 0.271465 0.834727 -0.162066
C12   C     C_R   0.272743 0.767513 0.166145 -0.174025
C13   C     C_R   0.729887 0.348696 0.185973 0.242372
C14   C     C_R   0.257128 0.852321 0.817773 0.249587
C15   C     C_R   0.646207 0.420237 0.132294 0.301684
C16   C     C_R   0.274307 0.934569 0.873859 0.292657
C17   C     C_R   0.625577 0.379030 0.061224 0.296607
C18   C     C_R   0.266155 0.898622 0.945934 0.326313
C19   C     C_R   0.718141 0.276099 0.039971 0.028535
C20   C     C_R   0.250041 0.778482 0.963184 -0.001237
C21   C     C_R   0.783258 0.199265 0.095566 -0.078964
C22   C     C_R   0.216780 0.697647 0.906046 -0.081404
C23   C     C_R   0.733605 0.241585 0.966050 0.063614
C24   C     C_R   0.247748 0.736676 0.035784 0.027615
C25   C     C_R   0.774512 0.122220 0.952139 -0.033607
C26   C     C_R   0.163737 0.626432 0.047925 -0.032449
C27   C     C_R   0.825625 0.045516 0.008124 0.372488
C28   C     C_R   0.138232 0.546588 0.991662 0.363276
C29   C     C_R   0.839171 0.086118 0.078369 -0.198798
C30   C     C_R   0.175363 0.581115 0.922112 -0.219635
C31   C     C_R   0.718933 0.318644 0.905048 0.110877
C32   C     C_R   0.330869 0.796404 0.097109 0.131504
C33   C     C_R   0.733720 0.151140 0.823483 0.311497
C34   C     C_R   0.163681 0.665182 0.175734 0.314453
C35   C     C_R   0.781617 0.234326 0.168201 -0.192017
C36   C     C_R   0.223044 0.733898 0.833739 -0.193520
H3    H     H_    0.887746 0.026175 0.119970 0.115001
H4    H     H_    0.164594 0.516136 0.880238 0.113755
C37   C     C_2   0.833467 0.217705 0.492288 -0.074740
C38   C     C_2   0.166542 0.717492 0.507800 -0.075808
C39   C     C_2   0.670416 0.276137 0.509898 0.173783
C40   C     C_2   0.329370 0.776546 0.490118 0.170232
O21   O     O_3   0.728015 0.099729 0.756509 -0.628190
H5    H     H_    0.689295 0.156909 0.719134 0.274814
O22   O     O_3   0.106239 0.628248 0.241512 -0.629630
H6    H     H_    0.174325 0.673474 0.280193 0.277026
O23   O     O_3   0.507048 0.268751 0.464184 -0.631751
H7    H     H_    0.409442 0.324674 0.479387 0.288805
O24   O     O_3   0.493033 0.769667 0.535640 -0.633117
H8    H     H_    0.590550 0.826164 0.520593 0.290114
O25   O     O_3   0.866626 0.930849 0.992738 -0.656096
H9    H     H_    0.904923 0.889158 0.037585 0.295225
O26   O     O_3   0.097655 0.431708 0.007115 -0.641332
H10   H     H_    0.107284 0.383837 0.963359 0.313851
C41   C     C_3   0.728913 0.450877 0.909570 -0.674898
H11   H     H_    0.835146 0.485532 0.873309 0.177283
H12   H     H_    0.587116 0.488691 0.892459 0.220607
H13   H     H_    0.777751 0.485357 0.962176 0.227133
C42   C     C_3   0.507556 0.871646 0.092458 -0.657155
H14   H     H_    0.626929 0.835850 0.127517 0.189944
H15   H     H_    0.558705 0.870969 0.037790 0.228979
H16   H     H_    0.478383 0.962066 0.109545 0.219488
O27   O     O_3   0.743348 0.389308 0.255740 -0.632229
H17   H     H_    0.833005 0.340007 0.285150 0.292126
O28   O     O_3   0.269611 0.892177 0.748301 -0.633368
H18   H     H_    0.253796 0.828103 0.713268 0.293612
O29   O     O_3   0.494025 0.430701 0.014553 -0.627727
H19   H     H_    0.497433 0.515236 0.024590 0.324271
O30   O     O_3   0.255543 0.980368 0.999922 -0.642511
H20   H     H_    0.270002 0.060198 0.981399 0.339175
O31   O     O_3   0.571968 0.528344 0.147713 -0.651532
H21   H     H_    0.598677 0.547859 0.198796 0.345988
O32   O     O_3   0.295262 0.052147 0.860135 -0.654674
H22   H     H_    0.294451 0.066848 0.808092 0.349863
C43   C     C_3   0.016465 0.216028 0.540508 -0.752368
H23   H     H_    0.118956 0.148518 0.524203 0.215631
H24   H     H_    0.091867 0.301036 0.538340 0.223448
H25   H     H_    0.982445 0.194962 0.596319 0.216680
C44   C     C_3   0.982878 0.715664 0.459924 -0.746946
H26   H     H_    0.879766 0.648129 0.476264 0.216582
H27   H     H_    0.908637 0.800654 0.462398 0.223315
H28   H     H_    0.015778 0.694553 0.404005 0.216455

loop_
_geom_bond_atom_site_label_1
_geom_bond_atom_site_label_2
_ccdc_geom_bond_type
C38   C40   D    
O29   H19   S    
O13   V3    S    
O23   H7    S    
O30   H20   S    
C37   C43   S    
O4    C2    A    
V1    O19   S    
C41   H11   S    
C23   C31   A    
C13   C15   A    
C42   H14   S    
C40   O24   S    
C44   H27   S    
O9    V1    S    
C43   H23   S    
O3    C1    A    
O12   V4    S    
O31   H21   S    
C14   C36   A    
C2    O12   A    
C19   C21   A    
C5    C39   S    
O7    C3    A    
O13   V1    S    
O5    C7    A    
O7    V1    S    
O6    C8    A    
C18   C20   A    
C23   C25   A    
C29   H3    S    
C24   C26   A    
C30   H4    S    
O3    V1    S    
O14   V4    S    
C19   C23   A    
O14   V2    S    
C2    C35   S    
C14   C16   A    
C9    C33   A    
C12   C32   A    
C10   C34   A    
C15   C17   A    
C16   C18   A    
C17   O29   S    
C41   H12   S    
C26   C28   A    
O11   V3    S    
C20   C22   A    
C3    C38   S    
C27   C29   A    
O17   V3    S    
C13   C35   A    
C44   H28   S    
C28   C30   A    
C42   H15   S    
C24   C32   A    
O8    C4    A    
O8    V2    S    
O28   H18   S    
C1    O11   A    
C34   O22   S    
C37   C39   D    
O25   H9    S    
O15   V3    S    
C9    C25   A    
C25   C27   A    
C27   O25   S    
O24   H8    S    
C1    C36   S    
C22   C36   A    
O32   H22   S    
C8    C12   S    
O10   V2    S    
O1    V3    S    
C17   C19   A    
C11   C33   A    
C33   O21   S    
C12   C34   A    
C39   O23   S    
O18   V4    S    
C43   H25   S    
O15   C5    A    
O16   C6    A    
O1    C3    A    
C38   C44   S    
C32   C42   S    
C41   H13   S    
C21   C29   A    
C28   O26   S    
V2    O20   S    
C42   H16   S    
C22   C30   A    
O10   C6    A    
O16   V4    S    
C10   C26   A    
C21   C35   A    
O5    V1    S    
O17   C7    A    
O6    V2    S    
C44   H26   S    
C20   C24   A    
O18   C8    A    
O2    V4    S    
O22   H6    S    
V3    O19   S    
C18   O30   S    
C16   O32   S    
V4    O20   S    
C7    C11   S    
O9    C5    A    
C9    H1    S    
C4    C37   S    
C15   O31   S    
C14   O28   S    
O21   H5    S    
O2    C4    A    
C31   C41   S    
C6    C40   S    
O26   H10   S    
O4    V2    S    
C10   H2    S    
C43   H24   S    
O27   H17   S    
C13   O27   S    
C11   C31   A    
