data_mof_unit_50626.cif
_audit_creation_date              2012-12-10T17:19:51-0500
_audit_creation_method            fapswitch 2.2
_symmetry_space_group_name_H-M    P1
_symmetry_Int_Tables_number       1
_space_group_crystal_system       triclinic
_cell_length_a                    22.087234
_cell_length_b                    22.063446
_cell_length_c                    23.305584
_cell_angle_alpha                 89.943563
_cell_angle_beta                  89.719552
_cell_angle_gamma                 89.933565
_cell_volume                      11357.1395904

loop_
_atom_site_label
_atom_site_type_symbol
_atom_type_description
_atom_site_fract_x
_atom_site_fract_y
_atom_site_fract_z
_atom_type_partial_charge
C1    C     C_R   0.380045 0.000010 0.499630 0.935636
C2    C     C_R   0.031447 0.281617 0.455060 -0.004761
C3    C     C_R   0.412192 0.225069 0.864040 -0.131152
C4    C     C_R   0.223849 0.391375 0.124193 -0.124040
C5    C     C_R   0.434850 0.778847 0.148452 -0.104390
C6    C     C_R   0.774452 0.587208 0.136455 -0.128035
C7    C     C_R   0.581112 0.224171 0.140137 -0.124231
C8    C     C_R   0.224794 0.890384 0.376803 -0.122248
C9    C     C_R   0.113924 0.223952 0.380524 -0.124096
C10   C     C_R   0.776208 0.126111 0.393063 -0.117774
C11   C     C_R   0.883333 0.776092 0.384326 -0.122403
C12   C     C_R   0.775462 0.867387 0.601055 -0.105488
C13   C     C_R   0.718338 0.035268 0.457952 -0.010745
C14   C     C_R   0.893165 0.224210 0.625912 -0.118397
C15   C     C_R   0.223584 0.114104 0.618590 -0.124875
C16   C     C_R   0.110603 0.775598 0.621919 -0.121265
C17   C     C_R   0.724777 0.389430 0.877482 -0.119075
C18   C     C_R   0.595938 0.724793 0.867717 -0.123892
C19   C     C_R   0.276049 0.628564 0.896217 -0.121514
C20   C     C_R   0.383439 0.276079 0.884238 -0.121890
C21   C     C_R   0.275450 0.366877 0.100581 -0.103413
C22   C     C_R   0.407441 0.724034 0.137065 -0.102471
C23   C     C_R   0.723634 0.616254 0.116472 -0.126873
C24   C     C_R   0.967877 0.718348 0.455861 -0.005095
C25   C     C_R   0.610687 0.275622 0.121878 -0.120394
C26   C     C_R   0.190261 0.917726 0.420708 0.200412
C27   C     C_R   0.084702 0.189458 0.423237 0.200914
C28   C     C_R   0.810710 0.091029 0.431178 0.189904
C29   C     C_R   0.914091 0.810589 0.425643 0.208649
C30   C     C_R   0.810650 0.906107 0.566802 0.179686
C31   C     C_R   0.919235 0.189866 0.581166 0.204432
C32   C     C_R   0.189294 0.084764 0.576157 0.200673
C33   C     C_R   0.082973 0.810027 0.578346 0.201961
C34   C     C_R   0.690237 0.417251 0.921100 0.200887
C35   C     C_R   0.717947 0.961862 0.541194 -0.012711
C36   C     C_R   0.575209 0.690649 0.915208 0.209653
C37   C     C_R   0.310554 0.592434 0.933413 0.189128
C38   C     C_R   0.414154 0.310578 0.925584 0.208724
C39   C     C_R   0.310622 0.405787 0.066510 0.180540
C40   C     C_R   0.427071 0.690297 0.088797 0.199604
C41   C     C_R   0.689339 0.585987 0.074665 0.198782
C42   C     C_R   0.583009 0.310050 0.078334 0.201774
C43   C     C_R   0.218149 0.963059 0.458069 -0.034261
C44   C     C_R   0.038453 0.217697 0.459788 -0.029896
C45   C     C_R   0.782228 0.041618 0.463363 -0.031396
C46   C     C_R   0.970341 0.281934 0.546540 0.000765
C47   C     C_R   0.961124 0.782288 0.460764 -0.020281
C48   C     C_R   0.782103 0.956480 0.536198 -0.020736
C49   C     C_R   0.963898 0.217876 0.542686 -0.029890
C50   C     C_R   0.217617 0.038364 0.539925 -0.030215
C51   C     C_R   0.037434 0.781977 0.541408 -0.027870
C52   C     C_R   0.718162 0.462825 0.958166 -0.035561
C53   C     C_R   0.533066 0.718286 0.956372 -0.036475
C54   C     C_R   0.282114 0.542310 0.964398 -0.034281
C55   C     C_R   0.461165 0.282283 0.960740 -0.020262
C56   C     C_R   0.282050 0.456281 0.036136 -0.020359
C57   C     C_R   0.281481 0.031313 0.544687 -0.008884
C58   C     C_R   0.467324 0.718267 0.046016 -0.027178
C59   C     C_R   0.717676 0.539023 0.039212 -0.033457
C60   C     C_R   0.537468 0.281988 0.041400 -0.027746
C61   C     C_2   0.294210 0.090941 0.698959 0.401392
C62   C     C_2   0.919829 0.297596 0.703442 0.389089
C63   C     C_2   0.705738 0.876595 0.684859 0.370856
C64   C     C_2   0.085682 0.703233 0.701052 0.402735
C65   C     C_2   0.707556 0.110887 0.309742 0.386584
C66   C     C_2   0.090625 0.295203 0.300367 0.420886
C67   C     C_2   0.297889 0.915280 0.298156 0.366269
C68   C     C_R   0.030894 0.717937 0.545697 0.000777
C69   C     C_2   0.904494 0.705608 0.303046 0.399041
C70   C     C_2   0.793697 0.594359 0.197555 0.399570
C71   C     C_2   0.430383 0.807628 0.206253 0.386069
C72   C     C_2   0.205856 0.376049 0.184498 0.385682
C73   C     C_2   0.585852 0.203225 0.201009 0.399676
C74   C     C_2   0.208376 0.615008 0.811979 0.384113
C75   C     C_2   0.562048 0.798970 0.793012 0.406869
C76   C     C_2   0.797826 0.413662 0.798620 0.381291
C77   C     C_2   0.404650 0.205555 0.802998 0.396218
C78   C     C_3   0.388300 0.868343 0.402709 -0.624022
C79   C     C_R   0.782223 0.469113 0.954024 -0.006165
C80   C     C_3   0.120135 0.398086 0.387859 -0.566713
C81   C     C_3   0.598949 0.124651 0.392299 -0.560411
C82   C     C_3   0.878947 0.601330 0.389779 -0.562398
C83   C     C_3   0.596682 0.871147 0.604159 -0.558376
C84   C     C_3   0.869181 0.386914 0.598132 -0.622089
C85   C     C_3   0.397837 0.119677 0.611752 -0.568503
C86   C     C_3   0.131747 0.611706 0.596547 -0.621408
C87   C     C_3   0.888700 0.367971 0.902980 -0.619024
C88   C     C_3   0.627374 0.881839 0.901250 -0.640144
C89   C     C_3   0.098427 0.625234 0.892850 -0.558439
C90   C     C_R   0.525855 0.782148 0.952747 0.000708
C91   C     C_3   0.378967 0.101342 0.889768 -0.562614
C92   C     C_3   0.096505 0.370999 0.104251 -0.553465
C93   C     C_3   0.370152 0.882319 0.095037 -0.642077
C94   C     C_3   0.898315 0.620349 0.111140 -0.567153
C95   C     C_3   0.631823 0.111689 0.096491 -0.620495
C96   C     C_2   0.209791 0.829507 0.352406 0.393101
C97   C     C_2   0.175275 0.208309 0.357256 0.395050
C98   C     C_2   0.793737 0.188873 0.375146 0.395303
C99   C     C_2   0.821413 0.792018 0.363218 0.399241
C100  C     C_2   0.793862 0.803926 0.615525 0.382719
C101  C     C_R   0.218284 0.535946 0.958641 -0.014765
C102  C     C_2   0.833077 0.208973 0.652162 0.394852
C103  C     C_2   0.207890 0.175592 0.641389 0.395423
C104  C     C_2   0.171549 0.790699 0.645791 0.392508
C105  C     C_2   0.709570 0.328452 0.853429 0.392907
C106  C     C_2   0.654765 0.711827 0.838040 0.392032
C107  C     C_2   0.293437 0.691863 0.880016 0.395894
C108  C     C_2   0.321543 0.292008 0.863073 0.398602
C109  C     C_2   0.294000 0.303447 0.114976 0.381960
C110  C     C_2   0.355299 0.704229 0.173311 0.380304
C111  C     C_2   0.707961 0.678224 0.138057 0.395101
C112  C     C_R   0.000048 0.380047 0.500184 0.933063
C113  C     C_R   0.467918 0.218343 0.955851 -0.005105
C114  C     C_2   0.671618 0.290785 0.145750 0.391692
C115  C     C_3   0.093718 0.900465 0.370989 -0.582548
C116  C     C_3   0.100589 0.093484 0.371789 -0.583970
C117  C     C_3   0.904073 0.103759 0.375257 -0.593386
C118  C     C_3   0.898437 0.906023 0.373439 -0.589348
C119  C     C_3   0.895479 0.907662 0.631805 -0.643596
C120  C     C_3   0.902665 0.092906 0.631132 -0.597005
C121  C     C_3   0.093239 0.100725 0.627712 -0.584007
C122  C     C_3   0.099843 0.906647 0.628471 -0.581344
C123  C     C_3   0.593836 0.400297 0.871100 -0.584875
C124  C     C_R   0.217886 0.461633 0.041131 -0.013050
C125  C     C_3   0.597513 0.592510 0.868618 -0.579992
C126  C     C_3   0.403896 0.607039 0.877936 -0.585585
C127  C     C_3   0.398544 0.406006 0.873360 -0.589837
C128  C     C_3   0.395270 0.407529 0.131709 -0.647003
C129  C     C_3   0.410721 0.591594 0.136362 -0.622685
C130  C     C_3   0.593427 0.602609 0.126252 -0.577951
C131  C     C_3   0.599718 0.406638 0.128550 -0.581753
C132  C     C_R   0.473498 0.782397 0.048731 0.004154
C133  C     C_R   0.781514 0.531962 0.044195 -0.012488
C134  C     C_R   0.530945 0.217944 0.045687 0.000691
C135  C     C_R   0.186284 0.000367 0.499318 -0.176251
C136  C     C_R   0.000593 0.186217 0.500711 -0.177147
C137  C     C_R   0.813703 0.999713 0.500363 -0.172676
C138  C     C_R   0.999935 0.813716 0.500534 -0.177263
C139  C     C_R   0.686310 0.500518 0.999109 -0.175057
C140  C     C_R   0.619958 0.999858 0.500280 0.923725
C141  C     C_R   0.500022 0.686544 0.000880 -0.179570
C142  C     C_R   0.313650 0.499788 0.000641 -0.171578
C143  C     C_R   0.499955 0.313717 0.000528 -0.177064
C144  C     C_R   0.313680 0.999962 0.499607 -0.134637
C145  C     C_R   0.000190 0.313634 0.500314 -0.131250
C146  C     C_R   0.686290 0.999250 0.500032 -0.137057
C147  C     C_R   0.999939 0.686287 0.500367 -0.131737
C148  C     C_R   0.813711 0.500001 0.999505 -0.137674
C149  C     C_R   0.499744 0.813910 0.000594 -0.130054
C150  C     C_R   0.186233 0.499292 0.000173 -0.140063
C151  C     C_R   0.999971 0.619930 0.500278 0.931039
C152  C     C_R   0.499962 0.186288 0.000372 -0.130811
C153  C     C_R   0.000087 0.120490 0.500130 0.962825
C154  C     C_R   0.879483 0.999923 0.500146 0.972072
C155  C     C_R   0.000515 0.879491 0.500080 0.956606
C156  C     C_R   0.120517 0.999927 0.499822 0.965791
C157  C     C_R   0.499946 0.620605 0.000179 0.957113
C158  C     C_R   0.379468 0.499888 0.000201 0.974745
C159  C     C_R   0.500514 0.379492 0.000079 0.956468
C160  C     C_R   0.620526 0.500057 0.999771 0.969574
C161  C     C_R   0.500429 0.000063 0.391022 0.885434
C162  C     C_R   0.880054 0.500013 0.999614 0.936096
C163  C     C_R   0.000135 0.500245 0.391036 0.885162
C164  C     C_R   0.501033 0.999968 0.608964 0.889182
C165  C     C_R   0.999888 0.500174 0.608960 0.877420
C166  C     C_R   0.000545 0.500062 0.891021 0.886976
C167  C     C_R   0.500110 0.000031 0.891037 0.882467
C168  C     C_R   0.000922 0.499964 0.108968 0.890612
C169  C     C_R   0.499900 0.000257 0.108960 0.879199
C170  C     C_1   0.500648 0.000278 0.330645 -0.189810
C171  C     C_1   0.000489 0.500284 0.330624 -0.199647
C172  C     C_1   0.501297 0.999966 0.669332 -0.195782
C173  C     C_R   0.499969 0.880160 0.000268 0.947985
C174  C     C_1   0.999753 0.500313 0.669364 -0.186255
C175  C     C_1   0.000747 0.500248 0.830648 -0.191672
C176  C     C_1   0.500364 0.000358 0.830618 -0.193297
C177  C     C_1   0.001240 0.499924 0.169334 -0.197651
C178  C     C_1   0.499801 0.000519 0.169366 -0.186693
C179  C     C_1   0.500472 0.000469 0.279680 0.128090
C180  C     C_1   0.000846 0.500188 0.279655 0.107557
C181  C     C_1   0.501140 0.000142 0.720298 0.111653
C182  C     C_1   0.000027 0.500377 0.720332 0.132619
C183  C     C_1   0.000514 0.500356 0.779682 0.122109
C184  C     C_R   0.119940 0.499861 0.000295 0.924518
C185  C     C_1   0.500715 0.000362 0.779649 0.122074
C186  C     C_1   0.001180 0.500016 0.220302 0.103766
C187  C     C_1   0.500055 0.000583 0.220333 0.135467
C188  C     C_R   0.311347 0.945595 0.402720 0.188163
C189  C     C_R   0.055701 0.310053 0.403771 0.190184
C190  C     C_R   0.690300 0.064555 0.408750 0.199090
C191  C     C_R   0.942499 0.690060 0.405151 0.190772
C192  C     C_R   0.689352 0.929912 0.588962 0.196824
C193  C     C_R   0.947380 0.310995 0.598081 0.186228
C194  C     C_R   0.309668 0.055589 0.595854 0.192275
C195  C     C_R   0.499975 0.119931 0.000293 0.928811
C196  C     C_R   0.054897 0.689024 0.596810 0.188485
C197  C     C_R   0.811373 0.444860 0.902955 0.185786
C198  C     C_R   0.544657 0.811351 0.899982 0.190903
C199  C     C_R   0.190390 0.566078 0.909771 0.200777
C200  C     C_R   0.442565 0.190043 0.905135 0.190828
C201  C     C_R   0.189312 0.429480 0.088759 0.196113
C202  C     C_R   0.453341 0.812466 0.100592 0.176454
C203  C     C_R   0.809608 0.556944 0.095150 0.193154
C204  C     C_R   0.554993 0.189032 0.096782 0.187880
C205  C     C_R   0.276468 0.919898 0.358989 -0.113175
C206  C     C_R   0.282187 0.969445 0.453935 -0.004437
C207  C     C_R   0.084671 0.275147 0.361495 -0.138470
C208  C     C_R   0.725383 0.099380 0.370693 -0.128615
C209  C     C_R   0.912076 0.725094 0.364092 -0.132136
C210  C     C_R   0.723873 0.891987 0.624586 -0.117111
C211  C     C_R   0.923013 0.275970 0.642693 -0.124471
C212  C     C_R   0.274577 0.084806 0.637863 -0.129158
C213  C     C_R   0.080986 0.724169 0.640175 -0.125387
C214  C     C_R   0.776492 0.418720 0.859453 -0.120932
C215  C     C_R   0.563929 0.776270 0.853376 -0.126370
C216  C     C_R   0.225546 0.602198 0.872857 -0.126709
H1    H     H_    0.268608 0.118546 0.728876 0.034645
H2    H     H_    0.392289 0.799232 0.234567 0.046093
H3    H     H_    0.121741 0.911153 0.332631 0.180612
H4    H     H_    0.138232 0.118510 0.451514 0.234404
H5    H     H_    0.064269 0.059086 0.371800 0.232825
H6    H     H_    0.144703 0.070283 0.364838 0.235290
H7    H     H_    0.090871 0.122509 0.333986 0.179103
H8    H     H_    0.885698 0.138861 0.457672 0.235917
H9    H     H_    0.937948 0.066923 0.372331 0.234181
H10   H     H_    0.927457 0.147728 0.368177 0.234404
H11   H     H_    0.872514 0.095742 0.339077 0.184455
H12   H     H_    0.862120 0.882320 0.454530 0.238312
H13   H     H_    0.229376 0.341093 0.208272 0.034291
H14   H     H_    0.935169 0.939987 0.372057 0.233163
H15   H     H_    0.854453 0.929621 0.367358 0.236704
H16   H     H_    0.907050 0.876409 0.335770 0.180711
H17   H     H_    0.891790 0.861480 0.553236 0.255935
H18   H     H_    0.945123 0.913147 0.633079 0.238391
H19   H     H_    0.884136 0.868042 0.659099 0.218103
H20   H     H_    0.875047 0.949105 0.650931 0.210042
H21   H     H_    0.862782 0.120970 0.553216 0.235329
H22   H     H_    0.937038 0.056621 0.628620 0.237948
H23   H     H_    0.857844 0.071920 0.639834 0.232909
H24   H     H_    0.613460 0.227549 0.231555 0.039168
H25   H     H_    0.916074 0.120340 0.668904 0.180811
H26   H     H_    0.118528 0.138293 0.547674 0.234368
H27   H     H_    0.058941 0.064308 0.628057 0.233015
H28   H     H_    0.069966 0.144865 0.634375 0.235287
H29   H     H_    0.122105 0.091137 0.665527 0.179931
H30   H     H_    0.137397 0.879928 0.548627 0.231245
H31   H     H_    0.063747 0.941343 0.628102 0.232091
H32   H     H_    0.144102 0.929518 0.634832 0.235148
H33   H     H_    0.089652 0.878440 0.666777 0.179809
H34   H     H_    0.620314 0.362818 0.950813 0.231302
H35   H     H_    0.233041 0.648063 0.786689 0.034715
H36   H     H_    0.558816 0.436067 0.871827 0.231661
H37   H     H_    0.571420 0.355814 0.864411 0.235432
H38   H     H_    0.622045 0.410970 0.832856 0.180475
H39   H     H_    0.635905 0.626102 0.945606 0.229859
H40   H     H_    0.563404 0.556206 0.872145 0.233810
H41   H     H_    0.642770 0.571686 0.861573 0.235140
H42   H     H_    0.584114 0.617562 0.829390 0.176738
H43   H     H_    0.385497 0.638745 0.961877 0.233506
H44   H     H_    0.436437 0.569197 0.873183 0.233432
H45   H     H_    0.428673 0.650558 0.872964 0.235087
H46   H     H_    0.587834 0.777048 0.759303 0.045200
H47   H     H_    0.372221 0.602042 0.841376 0.184032
H48   H     H_    0.362146 0.382312 0.954419 0.238271
H49   H     H_    0.435200 0.440055 0.872048 0.233307
H50   H     H_    0.354522 0.429504 0.867185 0.236682
H51   H     H_    0.407310 0.376401 0.835714 0.180722
H52   H     H_    0.391911 0.361413 0.053113 0.256066
H53   H     H_    0.444873 0.413391 0.133058 0.238263
H54   H     H_    0.384157 0.367739 0.158869 0.218032
H55   H     H_    0.374496 0.448767 0.150910 0.211484
H56   H     H_    0.365148 0.624788 0.062776 0.232794
H57   H     H_    0.773130 0.386654 0.767844 0.038260
H58   H     H_    0.439007 0.551395 0.128325 0.246884
H59   H     H_    0.365361 0.576225 0.151094 0.230697
H60   H     H_    0.434178 0.615119 0.172024 0.177309
H61   H     H_    0.618088 0.638108 0.044994 0.231356
H62   H     H_    0.559853 0.565529 0.127727 0.232652
H63   H     H_    0.569410 0.646525 0.131772 0.236013
H64   H     H_    0.622540 0.594735 0.164237 0.179858
H65   H     H_    0.637391 0.380041 0.048729 0.231555
H66   H     H_    0.563688 0.441403 0.128129 0.231971
H67   H     H_    0.643996 0.429429 0.135042 0.235162
H68   H     H_    0.376020 0.230986 0.774030 0.035772
H69   H     H_    0.589382 0.378395 0.166801 0.179819
H70   H     H_    0.395391 0.954392 0.366320 0.261532
H71   H     H_    0.437646 0.860970 0.406302 0.249421
H72   H     H_    0.373048 0.844398 0.363479 0.205171
H73   H     H_    0.893177 0.273582 0.735227 0.037489
H74   H     H_    0.366254 0.847538 0.440913 0.229349
H75   H     H_    0.027018 0.389361 0.368675 0.240495
H76   H     H_    0.121939 0.425194 0.347679 0.246725
H77   H     H_    0.155714 0.362507 0.385452 0.193745
H78   H     H_    0.133008 0.427275 0.424426 0.245790
H79   H     H_    0.613919 0.032833 0.369344 0.238445
H80   H     H_    0.572316 0.126501 0.352007 0.249857
H81   H     H_    0.632126 0.162441 0.391701 0.183642
H82   H     H_    0.568685 0.134519 0.429113 0.244634
H83   H     H_    0.971698 0.611447 0.368642 0.239559
H84   H     H_    0.729744 0.842145 0.708859 0.042236
H85   H     H_    0.877029 0.574297 0.349627 0.249343
H86   H     H_    0.842885 0.636438 0.388096 0.189719
H87   H     H_    0.866754 0.571911 0.426554 0.245552
H88   H     H_    0.613708 0.961407 0.630818 0.236927
H89   H     H_    0.570334 0.867910 0.644788 0.245171
H90   H     H_    0.628960 0.832555 0.602352 0.180865
H91   H     H_    0.565860 0.863848 0.567536 0.245390
H92   H     H_    0.954838 0.395192 0.634004 0.261396
H93   H     H_    0.861204 0.436248 0.594419 0.248057
H94   H     H_    0.845582 0.371165 0.637597 0.209576
H95   H     H_    0.113277 0.727558 0.731608 0.039886
H96   H     H_    0.848661 0.364646 0.560141 0.232000
H97   H     H_    0.388902 0.026248 0.630835 0.242019
H98   H     H_    0.424815 0.121165 0.651843 0.250499
H99   H     H_    0.362446 0.155432 0.614233 0.190421
H100  H     H_    0.427123 0.132672 0.575080 0.245907
H101  H     H_    0.046005 0.605296 0.633753 0.259947
H102  H     H_    0.138950 0.562250 0.593205 0.247794
H103  H     H_    0.155946 0.627324 0.635463 0.215153
H104  H     H_    0.152398 0.633292 0.558036 0.228406
H105  H     H_    0.895360 0.454049 0.866448 0.261740
H106  H     H_    0.732401 0.142841 0.283367 0.033904
H107  H     H_    0.938074 0.360820 0.906580 0.247967
H108  H     H_    0.873564 0.343852 0.863809 0.208958
H109  H     H_    0.866763 0.347143 0.941230 0.227698
H110  H     H_    0.544038 0.895734 0.863747 0.261185
H111  H     H_    0.638192 0.930700 0.904590 0.248065
H112  H     H_    0.650290 0.864039 0.862184 0.216918
H113  H     H_    0.645884 0.858566 0.939700 0.239487
H114  H     H_    0.114789 0.533833 0.869174 0.237472
H115  H     H_    0.071794 0.627009 0.852554 0.249960
H116  H     H_    0.131089 0.663459 0.892503 0.182087
H117  H     H_    0.118373 0.269986 0.270270 0.035420
H118  H     H_    0.068071 0.634572 0.929713 0.244246
H119  H     H_    0.471758 0.111374 0.868716 0.238696
H120  H     H_    0.377049 0.074325 0.849606 0.249698
H121  H     H_    0.342924 0.136470 0.888088 0.189378
H122  H     H_    0.366750 0.071913 0.926530 0.245592
H123  H     H_    0.113829 0.461263 0.130751 0.236506
H124  H     H_    0.070216 0.367906 0.144921 0.247768
H125  H     H_    0.128654 0.332302 0.102448 0.181516
H126  H     H_    0.065630 0.363743 0.067659 0.243687
H127  H     H_    0.451404 0.897313 0.135939 0.255432
H128  H     H_    0.273259 0.888467 0.267183 0.044214
H129  H     H_    0.359176 0.931108 0.090608 0.247533
H130  H     H_    0.345561 0.864777 0.133290 0.206363
H131  H     H_    0.353642 0.858461 0.056150 0.244452
H132  H     H_    0.888391 0.527168 0.130934 0.241046
H133  H     H_    0.925289 0.621873 0.151233 0.251029
H134  H     H_    0.863277 0.656460 0.113369 0.188600
H135  H     H_    0.927711 0.632868 0.074402 0.245429
H136  H     H_    0.546101 0.105319 0.133737 0.259762
H137  H     H_    0.639001 0.062230 0.093139 0.248116
H138  H     H_    0.656044 0.127291 0.135401 0.214335
H139  H     H_    0.875797 0.731016 0.274121 0.035154
H140  H     H_    0.652466 0.133272 0.057975 0.228169
H141  H     H_    0.231002 0.813429 0.313318 0.047234
H142  H     H_    0.193015 0.230368 0.319231 0.041927
H143  H     H_    0.770309 0.211777 0.340641 0.044079
H144  H     H_    0.802249 0.769548 0.326249 0.041603
H145  H     H_    0.768477 0.777682 0.646688 0.050908
H146  H     H_    0.818530 0.228973 0.692301 0.039193
H147  H     H_    0.229826 0.193460 0.679200 0.041842
H148  H     H_    0.187992 0.769262 0.684499 0.041527
H149  H     H_    0.730858 0.311989 0.814522 0.041424
H150  H     H_    0.768233 0.622912 0.226774 0.034990
H151  H     H_    0.664658 0.729807 0.795829 0.038463
H152  H     H_    0.269690 0.715846 0.846363 0.045839
H153  H     H_    0.302431 0.269572 0.826062 0.041118
H154  H     H_    0.268661 0.277089 0.146083 0.048982
H155  H     H_    0.357242 0.706875 0.219690 0.040448
H156  H     H_    0.730298 0.697088 0.175223 0.043440
H157  H     H_    0.688087 0.269365 0.184455 0.040562
H158  H     H_    0.120700 0.862845 0.450516 0.230986
H159  H     H_    0.058736 0.936269 0.371861 0.231959
H160  H     H_    0.071253 0.855995 0.364370 0.235294
N1    N     N_2   0.374112 0.932847 0.399720 -0.274577
N2    N     N_2   0.562182 0.873027 0.897888 -0.284909
N3    N     N_2   0.127243 0.565655 0.899127 -0.271909
N4    N     N_2   0.439770 0.126553 0.897463 -0.276368
N5    N     N_2   0.126116 0.430330 0.099779 -0.271124
N6    N     N_2   0.435195 0.874062 0.101228 -0.285159
N7    N     N_2   0.873054 0.559598 0.102823 -0.275225
N8    N     N_2   0.567451 0.126170 0.099982 -0.276332
N9    N     N_2   0.128368 0.899869 0.424542 -0.262946
N10   N     N_2   0.101185 0.127078 0.426109 -0.262972
N11   N     N_2   0.873885 0.103347 0.431466 -0.263685
N12   N     N_2   0.059162 0.373566 0.396667 -0.278268
N13   N     N_2   0.898522 0.873137 0.428211 -0.263446
N14   N     N_2   0.874196 0.899193 0.573088 -0.263818
N15   N     N_2   0.900816 0.128043 0.577689 -0.262380
N16   N     N_2   0.126991 0.101240 0.573308 -0.263201
N17   N     N_2   0.100446 0.872083 0.574705 -0.263575
N18   N     N_2   0.628242 0.399749 0.924794 -0.262819
N19   N     N_2   0.597944 0.630288 0.920390 -0.262761
N20   N     N_2   0.373696 0.604557 0.934110 -0.263776
N21   N     N_2   0.398574 0.373124 0.928134 -0.263396
N22   N     N_2   0.374167 0.399069 0.072939 -0.264054
N23   N     N_2   0.627045 0.064785 0.398888 -0.272114
N24   N     N_2   0.405151 0.629522 0.084893 -0.260785
N25   N     N_2   0.626965 0.602025 0.071727 -0.262603
N26   N     N_2   0.600412 0.372131 0.074753 -0.263389
N27   N     N_2   0.939741 0.626572 0.397447 -0.276374
N28   N     N_2   0.626126 0.930577 0.599803 -0.270348
N29   N     N_2   0.933786 0.373644 0.600735 -0.276788
N30   N     N_2   0.373122 0.058775 0.603069 -0.275788
N31   N     N_2   0.067368 0.626163 0.600011 -0.275979
N32   N     N_2   0.874196 0.432406 0.899868 -0.273695
O1    O     O_R   0.408370 0.051730 0.500010 -0.605543
O2    O     O_R   0.448270 0.908370 0.000010 -0.597967
O3    O     O_R   0.091630 0.448270 0.000010 -0.605765
O4    O     O_R   0.551730 0.091630 0.000010 -0.600034
O5    O     O_R   0.091630 0.551730 0.999990 -0.609769
O6    O     O_R   0.551730 0.908370 0.999990 -0.598468
O7    O     O_R   0.908370 0.448270 0.999990 -0.597733
O8    O     O_R   0.448270 0.091630 0.999990 -0.603859
O9    O     O_R   0.499980 0.051730 0.417240 -0.618436
O10   O     O_R   0.948270 0.499980 0.417240 -0.618113
O11   O     O_R   0.500020 0.948270 0.417240 -0.615455
O12   O     O_R   0.948270 0.408370 0.500010 -0.597108
O13   O     O_R   0.051730 0.500020 0.417240 -0.619089
O14   O     O_R   0.500020 0.051730 0.582760 -0.620071
O15   O     O_R   0.051730 0.499980 0.582760 -0.616264
O16   O     O_R   0.499980 0.948270 0.582760 -0.618374
O17   O     O_R   0.948270 0.500020 0.582760 -0.613935
O18   O     O_R   0.999980 0.551730 0.917240 -0.618622
O19   O     O_R   0.448270 0.999980 0.917240 -0.614876
O20   O     O_R   0.000020 0.448270 0.917240 -0.616783
O21   O     O_R   0.551730 0.000020 0.917240 -0.617240
O22   O     O_R   0.000020 0.551730 0.082760 -0.619586
O23   O     O_R   0.591630 0.948270 0.500010 -0.606111
O24   O     O_R   0.551730 0.999980 0.082760 -0.614655
O25   O     O_R   0.999980 0.448270 0.082760 -0.620523
O26   O     O_R   0.448270 0.000020 0.082760 -0.613443
O27   O     O_R   0.999980 0.091600 0.546760 -0.620554
O28   O     O_R   0.908400 0.999980 0.546760 -0.611118
O29   O     O_R   0.000020 0.908400 0.546760 -0.620845
O30   O     O_R   0.091600 0.000020 0.546760 -0.621696
O31   O     O_R   0.000020 0.091600 0.453240 -0.619795
O32   O     O_R   0.091600 0.999980 0.453240 -0.621334
O33   O     O_R   0.999980 0.908400 0.453240 -0.621802
O34   O     O_R   0.051730 0.591630 0.500010 -0.599896
O35   O     O_R   0.908400 0.000020 0.453240 -0.621953
O36   O     O_R   0.499980 0.591600 0.046760 -0.617694
O37   O     O_R   0.408400 0.499980 0.046760 -0.613223
O38   O     O_R   0.500020 0.408400 0.046760 -0.621057
O39   O     O_R   0.591600 0.500020 0.046760 -0.622313
O40   O     O_R   0.500020 0.591600 0.953240 -0.620333
O41   O     O_R   0.591600 0.499980 0.953240 -0.623849
O42   O     O_R   0.499980 0.408400 0.953240 -0.621627
O43   O     O_R   0.408400 0.500020 0.953240 -0.622877
O44   O     O_2   0.336949 0.062185 0.717855 -0.559663
O45   O     O_R   0.591630 0.051730 0.499990 -0.608275
O46   O     O_2   0.950440 0.340042 0.720061 -0.558973
O47   O     O_2   0.666252 0.904946 0.710023 -0.565230
O48   O     O_2   0.055448 0.661044 0.719184 -0.562730
O49   O     O_2   0.667323 0.081924 0.286819 -0.551824
O50   O     O_2   0.061511 0.337842 0.281642 -0.555758
O51   O     O_2   0.340884 0.944705 0.280545 -0.568994
O52   O     O_2   0.933205 0.663260 0.283013 -0.560458
O53   O     O_2   0.835929 0.565455 0.217255 -0.559416
O54   O     O_2   0.470847 0.840502 0.223437 -0.559087
O55   O     O_2   0.167052 0.405051 0.209940 -0.553325
O56   O     O_R   0.051730 0.408370 0.499990 -0.605699
O57   O     O_2   0.555638 0.161029 0.219156 -0.563372
O58   O     O_2   0.168930 0.586002 0.787907 -0.552092
O59   O     O_2   0.527919 0.839913 0.779094 -0.568364
O60   O     O_2   0.840831 0.442913 0.780774 -0.558593
O61   O     O_2   0.433321 0.163153 0.783016 -0.562634
O62   O     O_2   0.176321 0.794513 0.377857 -0.560846
O63   O     O_2   0.208760 0.173369 0.382535 -0.559567
O64   O     O_2   0.831877 0.217655 0.401253 -0.567375
O65   O     O_2   0.789110 0.827672 0.389217 -0.559731
O66   O     O_2   0.835111 0.778441 0.590179 -0.566502
O67   O     O_R   0.408370 0.948270 0.499990 -0.598091
O68   O     O_2   0.796951 0.176664 0.627180 -0.560521
O69   O     O_2   0.173056 0.209035 0.615943 -0.559558
O70   O     O_2   0.206174 0.824514 0.620297 -0.561175
O71   O     O_2   0.675837 0.293800 0.878990 -0.562516
O72   O     O_2   0.694846 0.683559 0.862133 -0.554876
O73   O     O_2   0.331877 0.719735 0.906611 -0.565443
O74   O     O_2   0.289198 0.327625 0.889071 -0.560444
O75   O     O_2   0.335333 0.278110 0.089618 -0.567066
O76   O     O_2   0.309068 0.685322 0.151107 -0.553308
O77   O     O_2   0.672653 0.710874 0.112277 -0.559590
O78   O     O_R   0.948270 0.591630 0.499990 -0.603116
O79   O     O_2   0.706210 0.324632 0.120254 -0.562186
O80   O     O_R   0.908370 0.551730 0.000010 -0.607373
Zn1   Zn    Zn3+2 0.500000 0.069080 0.500000 0.935902
Zn2   Zn    Zn3+2 1.000000 0.000000 0.437580 0.858481
Zn3   Zn    Zn3+2 0.500000 0.500000 0.062420 0.863512
Zn4   Zn    Zn3+2 0.500000 0.500000 0.937580 0.857467
Zn5   Zn    Zn3+2 0.930920 0.500000 0.500000 0.948543
Zn6   Zn    Zn3+2 0.500000 0.930920 0.500000 0.941620
Zn7   Zn    Zn3+2 0.069080 0.500000 0.500000 0.945544
Zn8   Zn    Zn3+2 0.000000 0.569080 0.000000 0.932701
Zn9   Zn    Zn3+2 0.430920 0.000000 0.000000 0.952557
Zn10  Zn    Zn3+2 0.000000 0.430920 0.000000 0.938811
Zn11  Zn    Zn3+2 0.569080 0.000000 0.000000 0.955178
Zn12  Zn    Zn3+2 0.000000 1.000000 0.562420 0.864146

loop_
_geom_bond_atom_site_label_1
_geom_bond_atom_site_label_2
_ccdc_geom_bond_type
C121  H28   S    
C140  O45   A    
C35   C192  A    
C5    C71   S    
C8    C26   A    
C93   H131  S    
C87   H107  S    
C15   C32   A    
C7    C73   S    
C65   C208  S    
C192  N28   S    
C1    O1    A    
C63   H84   S    
C202  N6    S    
C26   N9    S    
C127  H51   S    
C69   H139  S    
O67   Zn6   S    
C61   H1    S    
C115  H159  S    
C87   N32   S    
C188  N1    S    
C38   N21   S    
C193  C211  A    
C83   H89   S    
O39   Zn3   S    
C42   N26   S    
C6    C70   S    
C116  H5    S    
C105  H149  S    
C182  C183  S    
C36   C53   A    
C19   C37   A    
C16   C104  S    
C38   C55   A    
C184  O5    A    
O8    Zn9   S    
O27   Zn12  S    
C67   C205  S    
C82   H85   S    
O25   Zn10  S    
C157  O40   A    
C86   N31   S    
C129  H58   S    
C142  C158  S    
C140  O23   A    
C107  O73   D    
C88   H111  S    
C199  N3    S    
C78   H74   S    
C94   H135  S    
C188  C205  A    
C62   H73   S    
C40   C58   A    
C83   N28   S    
C66   O50   D    
C9    C207  A    
C85   H98   S    
C131  H69   S    
C110  H155  S    
C162  O80   A    
C177  C186  T    
C123  H37   S    
C160  O41   A    
C153  O27   A    
C92   H126  S    
O22   Zn8   S    
C39   C56   A    
C46   C49   A    
H97   N30   S    
C95   H138  S    
C125  N19   S    
C143  C159  S    
C126  N20   S    
C100  H145  S    
C119  H19   S    
H79   N23   S    
C91   H122  S    
C12   C210  A    
H21   N15   S    
C17   C34   A    
C63   C210  S    
C98   H143  S    
C3    C77   S    
C60   C134  A    
C175  C183  T    
C27   N10   S    
O18   Zn8   S    
C181  C185  S    
C127  H49   S    
C195  O4    A    
C50   C57   A    
C128  H54   S    
O42   Zn4   S    
C37   N20   S    
O30   Zn12  S    
C79   C148  A    
C198  N2    S    
C97   H142  S    
C23   C41   A    
C124  C201  A    
C167  O21   A    
C148  C162  S    
C173  O6    A    
H105  N32   S    
C99   H144  S    
C6    C203  A    
C96   H141  S    
C13   C45   A    
C136  C153  S    
C58   C141  A    
C4    C201  A    
C116  H7    S    
H88   N28   S    
C75   C215  S    
C76   H57   S    
C194  N30   S    
C120  H25   S    
C77   H68   S    
C8    C205  A    
C14   C102  S    
C13   C190  A    
C120  H23   S    
C194  C212  A    
C51   C138  A    
C31   N15   S    
C158  O37   A    
C32   N16   S    
C129  H60   S    
C15   C103  S    
C25   C114  S    
C197  C214  A    
C20   C108  S    
C133  C203  A    
C94   H133  S    
C195  O8    A    
C66   C207  S    
H30   N17   S    
C169  O26   A    
C54   C101  A    
C39   N22   S    
C14   C31   A    
C174  C182  T    
C85   H100  S    
C131  H67   S    
C74   H35   S    
C1    O67   A    
C71   H2    S    
H39   N19   S    
C14   C211  A    
C29   C47   A    
C30   C48   A    
C81   H81   S    
C60   C143  A    
C163  O10   A    
C104  H148  S    
C89   H116  S    
C112  C145  S    
C11   C99   S    
C130  H63   S    
C10   C208  A    
C123  H38   S    
C119  H18   S    
C161  O11   A    
C172  C181  T    
C2    C44   A    
C126  H47   S    
C52   C79   A    
C154  O35   A    
C158  O43   A    
O6    Zn11  S    
C28   N11   S    
C164  O14   A    
H114  N3    S    
C73   O57   D    
C43   C206  A    
C204  N8    S    
C78   H72   S    
C84   H93   S    
C102  H146  S    
O28   Zn12  S    
C121  N16   S    
C117  H10   S    
O13   Zn7   S    
C55   C143  A    
O1    Zn1   S    
C64   C213  S    
C41   N25   S    
H12   N13   S    
C97   O63   D    
C129  N24   S    
C80   H76   S    
C150  C184  S    
C165  C174  S    
C128  N22   S    
C125  H42   S    
C135  C156  S    
C126  H45   S    
C61   C212  S    
C147  C151  S    
C18   C106  S    
C15   C212  A    
O4    Zn11  S    
C86   H104  S    
C157  O36   A    
C118  H15   S    
C32   C50   A    
C3    C200  A    
C109  O75   D    
C4    C21   A    
O36   Zn3   S    
H65   N26   S    
O11   Zn6   S    
C180  C186  S    
C191  C209  A    
O24   Zn11  S    
C163  O13   A    
C74   O58   D    
O43   Zn4   S    
C164  C172  S    
C161  C170  S    
C17   C214  A    
O12   Zn5   S    
C131  N26   S    
C190  C208  A    
C121  H27   S    
H26   N16   S    
O41   Zn4   S    
C57   C144  A    
C71   O54   D    
C106  O72   D    
C153  O31   A    
C33   N17   S    
C93   H130  S    
C24   C147  A    
C21   C109  S    
C101  C199  A    
O23   Zn6   S    
C23   C111  S    
C132  C202  A    
C89   H118  S    
C57   C194  A    
C120  N15   S    
C91   H120  S    
C123  H36   S    
C1    C144  S    
C105  O71   D    
C81   H82   S    
C47   C138  A    
C121  H29   S    
C72   O55   D    
C165  O17   A    
H83   N27   S    
C87   H109  S    
O34   Zn7   S    
C76   C214  S    
C80   H77   S    
C164  O16   A    
O9    Zn1   S    
C62   O46   D    
O80   Zn8   S    
H43   N20   S    
C89   N3    S    
C189  N12   S    
C64   H95   S    
C82   H86   S    
C120  H22   S    
C122  H31   S    
C19   C107  S    
C138  C155  S    
C44   C136  A    
C78   H71   S    
C88   H112  S    
H34   N18   S    
C176  C185  T    
C2    C145  A    
C61   O44   D    
C188  C206  A    
C166  C175  S    
C184  O3    A    
C201  N5    S    
C56   C124  A    
C191  N27   S    
H56   N24   S    
C81   H80   S    
C203  N7    S    
C91   N4    S    
C40   N24   S    
C86   H102  S    
C179  C187  S    
C198  C215  A    
C168  C177  S    
C101  C150  A    
C115  N9    S    
C98   O64   D    
C58   C132  A    
H92   N29   S    
C22   C110  S    
C161  O9    A    
C95   H137  S    
C163  C171  S    
O7    Zn10  S    
O29   Zn12  S    
O26   Zn9   S    
C56   C142  A    
O14   Zn1   S    
O15   Zn7   S    
O2    Zn9   S    
C110  O76   D    
C103  O69   D    
C132  C149  A    
C113  C152  A    
C108  O74   D    
C31   C49   A    
H8    N11   S    
C35   C48   A    
C63   O47   D    
C87   H108  S    
C144  C206  A    
C112  O56   A    
C67   O51   D    
C114  H157  S    
C99   O65   D    
C81   N23   S    
C65   O49   D    
C73   H24   S    
C65   H106  S    
C140  C146  S    
O16   Zn6   S    
C83   H90   S    
C35   C146  A    
C125  H40   S    
C29   N13   S    
C166  O20   A    
C7    C204  A    
C80   N12   S    
C88   H113  S    
C107  H152  S    
O21   Zn11  S    
C59   C139  A    
C134  C152  A    
C92   N5    S    
C82   N27   S    
C3    C20   A    
C68   C196  A    
C196  N31   S    
C94   N7    S    
C118  N13   S    
C123  N18   S    
O32   Zn2   S    
C178  C187  T    
C109  H154  S    
C54   C142  A    
C139  C160  S    
C115  H160  S    
C129  H59   S    
C151  O78   A    
C4    C72   S    
C96   O62   D    
C9    C27   A    
C127  N21   S    
C10   C28   A    
C94   H134  S    
C124  C150  A    
C93   N6    S    
C9    C97   S    
C173  O2    A    
C70   H150  S    
C12   C30   A    
C95   N8    S    
C25   C42   A    
C85   H99   S    
C103  H147  S    
C134  C204  A    
C33   C51   A    
H119  N4    S    
C170  C179  T    
C34   C52   A    
C7    C25   A    
C102  O68   D    
C84   N29   S    
C76   O60   D    
C100  O66   D    
C92   H125  S    
C165  O15   A    
H158  N9    S    
C189  C207  A    
C89   H115  S    
C113  C200  A    
C137  C154  S    
C53   C141  A    
C130  H64   S    
C112  O12   A    
C12   C100  S    
C119  N14   S    
O31   Zn2   S    
O3    Zn10  S    
C119  H20   S    
C88   N2    S    
C155  O33   A    
C53   C90   A    
C156  O30   A    
C167  O19   A    
O38   Zn3   S    
C18   C36   A    
H75   N12   S    
C34   N18   S    
H127  N6    S    
C122  H33   S    
C108  H153  S    
C79   C197  A    
C127  H50   S    
C159  O42   A    
C128  H53   S    
C18   C215  A    
C8    C96   S    
C2    C189  A    
C162  O7    A    
C52   C139  A    
C84   H94   S    
C117  H9    S    
C48   C137  A    
C166  O18   A    
C154  O28   A    
C64   O48   D    
C111  O77   D    
C46   C145  A    
C125  H41   S    
H136  N8    S    
C19   C216  A    
C10   C98   S    
C66   H117  S    
C5    C22   A    
C160  O39   A    
C118  H16   S    
C62   C211  S    
C155  O29   A    
H48   N21   S    
C106  H151  S    
O33   Zn2   S    
C75   H46   S    
O20   Zn10  S    
O17   Zn5   S    
O19   Zn9   S    
C116  H6    S    
C115  H3    S    
C13   C146  A    
H123  N5    S    
C90   C149  A    
C27   C44   A    
O56   Zn7   S    
C169  O24   A    
C26   C43   A    
O40   Zn4   S    
C117  N11   S    
C36   N19   S    
C28   C45   A    
C72   H13   S    
C199  C216  A    
C116  N10   S    
C122  N17   S    
C69   O52   D    
C93   H129  S    
C42   C60   A    
C5    C202  A    
O10   Zn5   S    
O45   Zn1   S    
C55   C113  A    
C197  N32   S    
C59   C133  A    
H61   N25   S    
C130  H62   S    
C151  O34   A    
C168  O22   A    
C17   C105  S    
C16   C33   A    
C20   C38   A    
H110  N2    S    
O5    Zn8   S    
C21   C39   A    
H70   N1    S    
C83   H91   S    
C22   C40   A    
C45   C137  A    
C156  O32   A    
C77   O61   D    
C133  C148  A    
C200  N4    S    
C70   O53   D    
C43   C135  A    
H101  N31   S    
C75   O59   D    
C67   H128  S    
C68   C147  A    
C37   C54   A    
C80   H78   S    
C49   C136  A    
H4    N10   S    
C193  N29   S    
C128  H55   S    
C171  C180  T    
C69   C209  S    
C192  C210  A    
H132  N7    S    
C169  C178  S    
C84   H96   S    
C82   H87   S    
C46   C193  A    
C122  H32   S    
C141  C157  S    
C78   N1    S    
C85   N30   S    
C117  H11   S    
C152  C195  S    
C74   C216  S    
C24   C47   A    
H17   N14   S    
C30   N14   S    
C111  H156  S    
C90   C198  A    
C126  H44   S    
C190  N23   S    
C91   H121  S    
C11   C209  A    
C130  N25   S    
C196  C213  A    
C159  O38   A    
C86   H103  S    
C118  H14   S    
C6    C23   A    
C104  O70   D    
H52   N22   S    
C24   C191  A    
C149  C173  S    
C51   C68   A    
C16   C213  A    
O37   Zn3   S    
C92   H124  S    
O35   Zn2   S    
C11   C29   A    
C50   C135  A    
C41   C59   A    
C114  O79   D    
C95   H140  S    
O78   Zn5   S    
C131  H66   S    
C168  O25   A    
C167  C176  S    
