data_mof_unit_17529.cif
_audit_creation_date              2012-12-10T17:22:07-0500
_audit_creation_method            fapswitch 2.2
_symmetry_space_group_name_H-M    P1
_symmetry_Int_Tables_number       1
_space_group_crystal_system       triclinic
_cell_length_a                    15.869997
_cell_length_b                    10.773696
_cell_length_c                    9.644351
_cell_angle_alpha                 90.524384
_cell_angle_beta                  90.699002
_cell_angle_gamma                 92.931223
_cell_volume                      1646.6179742

loop_
_atom_site_label
_atom_site_type_symbol
_atom_type_description
_atom_site_fract_x
_atom_site_fract_y
_atom_site_fract_z
_atom_type_partial_charge
C1    C     C_R   0.496897 0.262695 0.499479 0.783414
C2    C     C_3   0.948076 0.394721 0.585512 -0.438491
C3    C     C_3   0.917235 0.503399 0.496820 0.326301
C4    C     C_3   0.956634 0.626226 0.560346 -0.373269
C5    C     C_3   0.054210 0.626828 0.556067 -0.380260
C6    C     C_1   0.824916 0.502623 0.500513 -0.105919
C7    C     C_1   0.175174 0.501259 0.496943 -0.107701
C8    C     C_1   0.250743 0.500453 0.497755 -0.190241
C9    C     C_R   0.362472 0.120453 0.642107 -0.186918
C10   C     C_R   0.300208 0.051460 0.712699 -0.146528
C11   C     C_R   0.300699 0.922427 0.713975 -0.139591
C12   C     C_R   0.340423 0.499646 0.499324 0.804618
C13   C     C_R   0.363509 0.861581 0.644799 -0.172820
C14   C     C_R   0.428229 0.929648 0.574462 0.099476
C15   C     C_R   0.427682 0.060910 0.573104 0.099253
C16   C     C_R   0.490828 0.128411 0.498465 -0.104151
C17   C     C_R   0.550314 0.067283 0.421670 -0.197923
C18   C     C_R   0.550858 0.939297 0.422951 -0.208311
C19   C     C_R   0.491889 0.870480 0.500962 -0.087407
C20   C     C_R   0.613744 0.663978 0.147060 -0.124791
C21   C     C_R   0.669404 0.743742 0.076699 -0.215502
C22   C     C_R   0.669184 0.743653 0.933745 -0.203116
C23   C     C_R   0.497586 0.736997 0.500445 0.761007
C24   C     C_R   0.613291 0.663800 0.860148 -0.117864
C25   C     C_R   0.555918 0.580128 0.927308 0.188368
C26   C     C_R   0.556139 0.579967 0.076560 0.172703
C27   C     C_R   0.444665 0.424989 0.069456 0.255225
C28   C     C_R   0.446412 0.424869 0.922172 -0.052731
C29   C     C_R   0.659576 0.500561 0.500651 0.809379
C30   C     C_3   0.045664 0.394471 0.585901 -0.393740
C31   C     C_3   0.047739 0.485751 0.346456 -0.371735
C32   C     C_3   0.949476 0.485405 0.345385 0.041393
C33   C     C_1   0.749307 0.501674 0.501762 -0.184087
C34   C     C_3   0.082981 0.502024 0.496388 0.300622
Cu1   Cu    Cu3+1 0.499990 0.499990 0.640660 0.925734
Cu2   Cu    Cu3+1 0.500010 0.500010 0.359340 0.931582
H1    H     H_    0.921203 0.304362 0.543571 0.158869
H2    H     H_    0.070069 0.404479 0.694348 0.169149
H3    H     H_    0.925736 0.403434 0.694000 0.176942
H4    H     H_    0.933977 0.708083 0.504382 0.162328
H5    H     H_    0.597951 0.119215 0.363204 0.151225
H6    H     H_    0.357685 0.220135 0.639987 0.135558
H7    H     H_    0.250690 0.098277 0.765005 0.126262
H8    H     H_    0.251538 0.869095 0.767248 0.129264
H9    H     H_    0.359549 0.761205 0.645091 0.153968
H10   H     H_    0.598783 0.893710 0.365054 0.135479
H11   H     H_    0.065600 0.303731 0.544980 0.162400
H12   H     H_    0.618338 0.673214 0.256536 0.188826
H13   H     H_    0.712726 0.806709 0.133875 0.141015
H14   H     H_    0.712371 0.806467 0.879143 0.143762
H15   H     H_    0.617464 0.672060 0.750839 0.193703
H16   H     H_    0.402557 0.364714 0.862592 0.140944
H17   H     H_    0.075503 0.561362 0.280597 0.174193
H18   H     H_    0.067803 0.396601 0.301406 0.136746
H19   H     H_    0.924699 0.392527 0.307060 0.143460
H20   H     H_    0.080613 0.642534 0.662620 0.160604
H21   H     H_    0.078565 0.705260 0.491028 0.162813
H22   H     H_    0.936408 0.635842 0.669892 0.159195
N1    N     N_R   0.500800 0.501210 0.147910 -0.197752
N2    N     N_R   0.500820 0.501290 0.852040 -0.217727
O1    O     O_R   0.499990 0.319640 0.618810 -0.574120
O2    O     O_R   0.500000 0.319660 0.381240 -0.579175
O3    O     O_R   0.379430 0.499990 0.618840 -0.587952
O4    O     O_R   0.379440 0.500020 0.381260 -0.569507
O5    O     O_R   0.500000 0.680340 0.618760 -0.601210
O6    O     O_R   0.500010 0.680360 0.381190 -0.588137
O7    O     O_R   0.620560 0.499980 0.618740 -0.586352
O8    O     O_R   0.620570 0.500010 0.381160 -0.591027
C35   C     C_3   0.375943 0.343203 0.133429 -0.786883
H23   H     H_    0.342313 0.282947 0.054266 0.172027
H24   H     H_    0.400804 0.278533 0.209421 0.255984
H25   H     H_    0.327090 0.400423 0.178488 0.237911
C36   C     C_3   0.917664 0.581165 0.241763 -0.907367
H26   H     H_    0.942648 0.676596 0.268326 0.239061
H27   H     H_    0.939009 0.558025 0.135768 0.231902
H28   H     H_    0.847665 0.579488 0.238964 0.247637

loop_
_geom_bond_atom_site_label_1
_geom_bond_atom_site_label_2
_ccdc_geom_bond_type
C11   C13   A    
C36   H26   S    
C5    H20   S    
Cu2   O4    S    
Cu1   Cu2   S    
C3    C6    S    
C1    O2    A    
C21   H13   S    
C7    C8    T    
C9    H6    S    
C23   O6    A    
C12   O4    A    
Cu2   O6    S    
Cu1   O5    S    
C15   C16   A    
C29   C33   S    
C30   H2    S    
C18   C19   A    
C35   H24   S    
C29   O7    A    
C2    H3    S    
C4    H4    S    
C16   C17   A    
C25   N2    A    
C9    C10   A    
C32   H19   S    
C27   C35   S    
C22   H14   S    
Cu2   N1    S    
C24   H15   S    
C13   C14   A    
C36   H27   S    
C3    C32   S    
Cu2   O2    S    
C18   H10   S    
C28   N2    A    
C30   C34   S    
C30   H11   S    
C24   C25   A    
C32   C36   S    
C12   O3    A    
C25   C26   A    
Cu1   N2    S    
C35   H25   S    
C19   C23   S    
C29   O8    A    
C31   C32   S    
Cu1   O7    S    
C8    C12   S    
C5    C34   S    
C17   C18   A    
C31   C34   S    
C11   H8    S    
Cu1   O1    S    
C1    C16   S    
C31   H17   S    
C20   H12   S    
C36   H28   S    
C22   C24   A    
C3    C4    S    
C26   N1    A    
C10   H7    S    
C14   C19   A    
C4    C5    S    
C1    O1    A    
Cu2   O8    S    
C6    C33   T    
C5    H21   S    
C2    C30   S    
C23   O5    A    
C2    C3    S    
C9    C15   A    
C27   N1    A    
C13   H9    S    
C28   H16   S    
C2    H1    S    
C20   C26   A    
C7    C34   S    
C31   H18   S    
C35   H23   S    
C17   H5    S    
C10   C11   A    
C20   C21   A    
C4    H22   S    
C27   C28   A    
C14   C15   A    
Cu1   O3    S    
C21   C22   A    
