data_mof_unit_27038.cif
_audit_creation_date              2012-12-11T16:08:28-0500
_audit_creation_method            fapswitch 2.2
_symmetry_space_group_name_H-M    P1
_symmetry_Int_Tables_number       1
_space_group_crystal_system       triclinic
_cell_length_a                    7.257515
_cell_length_b                    21.393377
_cell_length_c                    23.471976
_cell_angle_alpha                 90.002332
_cell_angle_beta                  90.121199
_cell_angle_gamma                 89.937436
_cell_volume                      3644.31331805

loop_
_atom_site_label
_atom_site_type_symbol
_atom_type_description
_atom_site_fract_x
_atom_site_fract_y
_atom_site_fract_z
_atom_type_partial_charge
O1    O     O_R   0.365470 0.806380 0.442440 -0.529880
O2    O     O_R   0.134530 0.193620 0.942440 -0.531107
O3    O     O_R   0.865470 0.693620 0.557560 -0.530887
O4    O     O_R   0.634530 0.306380 0.057560 -0.530003
O5    O     O_R   0.035730 0.813790 0.557160 -0.536098
O6    O     O_R   0.464270 0.186210 0.057160 -0.535508
O7    O     O_R   0.535730 0.686210 0.442840 -0.536211
O8    O     O_R   0.964270 0.313790 0.942840 -0.535710
C1    C     C_R   0.204291 0.828664 0.575797 0.713520
C2    C     C_R   0.296038 0.171352 0.075817 0.713858
C3    C     C_R   0.704151 0.671348 0.424190 0.708940
C4    C     C_R   0.795625 0.328640 0.924193 0.711450
O9    O     O_R   0.035760 0.813790 0.442850 -0.533104
O10   O     O_R   0.464240 0.186210 0.942850 -0.533457
O11   O     O_R   0.535760 0.686210 0.557150 -0.534040
O12   O     O_R   0.964240 0.313790 0.057150 -0.534423
O13   O     O_R   0.865450 0.693620 0.442430 -0.533107
O14   O     O_R   0.634550 0.306380 0.942430 -0.532766
O15   O     O_R   0.365450 0.806380 0.557570 -0.530504
O16   O     O_R   0.134550 0.193620 0.057570 -0.532090
C5    C     C_R   0.203966 0.828666 0.424212 0.710251
C6    C     C_R   0.295724 0.171348 0.924207 0.711056
C7    C     C_R   0.704376 0.671329 0.575769 0.711501
C8    C     C_R   0.795849 0.328674 0.075778 0.711503
O17   O     O_3   0.198970 0.710570 0.500000 -0.375739
O18   O     O_3   0.301030 0.289430 0.000000 -0.374947
O19   O     O_3   0.698970 0.789430 0.500000 -0.373089
O20   O     O_3   0.801030 0.210570 0.000000 -0.374845
V1    V     V_3+5 0.924120 0.757310 0.500000 1.447571
V2    V     V_3+5 0.575880 0.242690 0.000000 1.445331
V3    V     V_3+5 0.424120 0.742690 0.500000 1.447785
V4    V     V_3+5 0.075880 0.257310 0.000000 1.443585
C9    C     C_3   0.895391 0.556132 0.746222 -0.421897
C10   C     C_3   0.605068 0.443698 0.246055 -0.420858
C11   C     C_3   0.385078 0.940391 0.251300 -0.428839
C12   C     C_3   0.064657 0.032204 0.774089 -0.421491
C13   C     C_3   0.548557 0.539265 0.743595 0.395311
C14   C     C_3   0.951759 0.460892 0.243867 0.396465
C15   C     C_3   0.047248 0.962704 0.257091 0.373564
C16   C     C_3   0.376325 0.065273 0.737615 0.379050
C17   C     C_3   0.575045 0.493485 0.795784 -0.427356
C18   C     C_3   0.924916 0.506654 0.296023 -0.427055
C19   C     C_3   0.073709 0.008824 0.205197 -0.427026
C20   C     C_3   0.349257 0.016740 0.687538 -0.420828
H1    H     H_    0.915108 0.530634 0.836281 0.175625
H2    H     H_    0.585245 0.469160 0.336099 0.175421
H3    H     H_    0.407456 0.968211 0.161805 0.184216
H4    H     H_    0.970646 0.000549 0.690308 0.176221
H5    H     H_    0.877067 0.603169 0.765266 0.175281
H6    H     H_    0.623776 0.396673 0.265111 0.176478
H7    H     H_    0.349957 0.895240 0.230496 0.207488
H8    H     H_    0.007099 0.076834 0.757485 0.210286
H9    H     H_    0.571490 0.519420 0.836875 0.160877
H10   H     H_    0.928744 0.480727 0.337120 0.160585
H11   H     H_    0.065224 0.982931 0.164108 0.183673
H12   H     H_    0.272773 0.038584 0.651478 0.182066
H13   H     H_    0.458821 0.459688 0.798466 0.144062
H14   H     H_    0.040849 0.540566 0.298846 0.144150
H15   H     H_    0.960578 0.043970 0.203408 0.122290
H16   H     H_    0.484298 0.002243 0.669403 0.126427
C21   C     C_1   0.785949 0.374215 0.878431 -0.167171
C22   C     C_1   0.713391 0.625750 0.378433 -0.167906
C23   C     C_1   0.287572 0.125737 0.121563 -0.165017
C24   C     C_1   0.213950 0.874418 0.621414 -0.164310
C25   C     C_3   0.731372 0.539187 0.705848 0.147453
C26   C     C_3   0.768936 0.460794 0.205885 0.146824
C27   C     C_3   0.230701 0.960225 0.293622 0.191526
C28   C     C_3   0.269943 0.041088 0.792523 0.183734
C29   C     C_3   0.917384 0.506594 0.794240 -0.400926
C30   C     C_3   0.582699 0.493205 0.294061 -0.401366
C31   C     C_3   0.413387 0.991010 0.204390 -0.396745
C32   C     C_3   0.047661 0.981027 0.727319 -0.404817
C33   C     C_3   0.760298 0.457261 0.791616 0.078053
C34   C     C_3   0.739343 0.542698 0.291637 0.077746
C35   C     C_3   0.262626 0.042533 0.208235 0.088368
C36   C     C_3   0.240949 0.958174 0.707619 0.086195
C37   C     C_3   0.762632 0.422907 0.732504 0.173778
C38   C     C_3   0.736664 0.577045 0.232522 0.173812
C39   C     C_3   0.273493 0.076323 0.267455 0.162490
C40   C     C_3   0.349633 0.929563 0.759196 0.168865
C41   C     C_3   0.771893 0.471251 0.681460 0.461715
C42   C     C_3   0.727840 0.528695 0.181458 0.461460
C43   C     C_3   0.280965 0.027387 0.318043 0.456804
C44   C     C_3   0.346026 0.974918 0.812404 0.465215
C45   C     C_1   0.775651 0.411786 0.839670 -0.001223
C46   C     C_1   0.723689 0.588171 0.339682 -0.001285
C47   C     C_1   0.278160 0.088106 0.160284 0.000022
C48   C     C_1   0.224700 0.912236 0.659964 -0.000323
C49   C     C_1   0.721563 0.586681 0.659086 0.024437
C50   C     C_1   0.779074 0.413309 0.159118 0.024651
C51   C     C_1   0.219572 0.913032 0.340644 0.028863
C52   C     C_1   0.279042 0.087584 0.840139 0.025598
C53   C     C_1   0.713591 0.625196 0.621057 -0.164395
C54   C     C_1   0.787063 0.374805 0.121080 -0.164358
C55   C     C_1   0.212055 0.874691 0.378821 -0.168460
C56   C     C_1   0.286753 0.125559 0.878625 -0.170528
H17   H     H_    0.026054 0.560445 0.722044 0.197853
H18   H     H_    0.474421 0.439267 0.221714 0.197614
H19   H     H_    0.514057 0.930354 0.274587 0.164225
H20   H     H_    0.975912 0.020289 0.811052 0.177180
H21   H     H_    0.054513 0.483812 0.790756 0.161610
H22   H     H_    0.445369 0.515850 0.290424 0.162290
H23   H     H_    0.552657 0.011829 0.207968 0.133669
H24   H     H_    0.963950 0.941494 0.743638 0.147837
H25   H     H_    0.629372 0.397353 0.729435 0.123585
H26   H     H_    0.869684 0.602742 0.229625 0.124427
H27   H     H_    0.143595 0.103717 0.271509 0.126213
H28   H     H_    0.495210 0.924864 0.744831 0.117452
N1    N     N_3   0.386097 0.519480 0.710435 -0.690340
H29   H     H_    0.382560 0.541712 0.670798 0.261604
H30   H     H_    0.382219 0.471140 0.704489 0.236066
N2    N     N_3   0.114053 0.480821 0.210914 -0.690644
H31   H     H_    0.117723 0.458602 0.171276 0.261391
H32   H     H_    0.117598 0.529166 0.204988 0.236179
N3    N     N_3   0.892197 0.983313 0.292500 -0.650709
H33   H     H_    0.773611 0.975363 0.268944 0.203849
H34   H     H_    0.894137 0.031768 0.297663 0.238145
N4    N     N_3   0.574146 0.073959 0.750058 -0.664684
H35   H     H_    0.633818 0.101155 0.718000 0.228140
H36   H     H_    0.643775 0.031271 0.748239 0.234379
N5    N     N_3   0.509994 0.602969 0.764448 -0.634219
H37   H     H_    0.599087 0.615291 0.797580 0.216960
H38   H     H_    0.377695 0.603918 0.782113 0.251282
N6    N     N_3   0.990833 0.397225 0.264770 -0.637296
H39   H     H_    0.901860 0.384827 0.297792 0.216195
H40   H     H_    0.123152 0.396397 0.282598 0.250671
N7    N     N_3   0.005625 0.899744 0.234744 -0.665056
H41   H     H_    0.892495 0.902100 0.207091 0.228519
H42   H     H_    0.965693 0.870568 0.268270 0.246521
N8    N     N_3   0.298273 0.125914 0.719722 -0.663419
H43   H     H_    0.358598 0.139875 0.681323 0.231562
H44   H     H_    0.332906 0.160214 0.749631 0.246399
O21   O     O_3   0.945364 0.470020 0.653964 -0.624879
H45   H     H_    0.044964 0.467236 0.682636 0.306428
O22   O     O_3   0.554374 0.529758 0.153725 -0.624521
H46   H     H_    0.454727 0.532429 0.182261 0.306710
O23   O     O_3   0.456147 0.025800 0.344423 -0.621373
H47   H     H_    0.552367 0.026911 0.314902 0.302464
O24   O     O_3   0.235736 0.950763 0.856953 -0.626194
H48   H     H_    0.117864 0.935054 0.841305 0.296266
N9    N     N_3   0.634003 0.453741 0.638418 -0.699547
H49   H     H_    0.661472 0.408134 0.624707 0.264115
H50   H     H_    0.649038 0.482183 0.602493 0.248800
N10   N     N_3   0.865600 0.546346 0.138606 -0.698739
H51   H     H_    0.837714 0.591922 0.124855 0.265296
H52   H     H_    0.850863 0.517883 0.102662 0.248971
N11   N     N_3   0.148810 0.046506 0.362119 -0.664194
H53   H     H_    0.182485 0.091633 0.375812 0.258420
H54   H     H_    0.163595 0.017717 0.397849 0.256652
N12   N     N_3   0.534232 0.980754 0.835065 -0.684239
H55   H     H_    0.582796 0.936193 0.845776 0.252620
H56   H     H_    0.531507 0.006074 0.873166 0.256887
O25   O     O_3   0.899511 0.376245 0.728248 -0.627389
H57   H     H_    0.012570 0.390796 0.747834 0.291410
O26   O     O_3   0.599350 0.623560 0.228098 -0.627478
H58   H     H_    0.486425 0.608880 0.247529 0.291544
O27   O     O_3   0.416041 0.120964 0.271193 -0.626600
H59   H     H_    0.525847 0.105015 0.250856 0.290063
O28   O     O_3   0.294248 0.868340 0.773466 -0.624832
H60   H     H_    0.158582 0.865292 0.770038 0.296087

loop_
_geom_bond_atom_site_label_1
_geom_bond_atom_site_label_2
_ccdc_geom_bond_type
O17   V3    S    
C16   N4    S    
O1    C5    A    
O27   H59   S    
C19   H15   S    
O19   V1    S    
C1    C24   S    
O13   V1    S    
O3    C7    A    
N11   H53   S    
O1    V3    S    
C32   C36   S    
C3    C22   S    
O15   V3    S    
C18   H14   S    
C2    C23   S    
N2    H32   S    
C30   C34   S    
C9    C25   S    
O22   H46   S    
C26   C50   S    
C25   C49   S    
C22   C46   T    
O9    V1    S    
N11   H54   S    
H4    C32   S    
C14   C18   S    
N1    H30   S    
O4    C8    A    
C38   O26   S    
C9    H5    S    
N3    H33   S    
C52   C56   T    
O2    V4    S    
C42   O22   S    
C20   C36   S    
C38   C42   S    
N4    H35   S    
C31   H23   S    
C37   O25   S    
C25   C41   S    
C1    O15   A    
C14   C26   S    
C44   O24   S    
C2    O16   A    
O20   V2    S    
N3    H34   S    
C13   C25   S    
O2    C6    A    
C29   C33   S    
C30   H22   S    
O14   V2    S    
C37   C41   S    
C10   C30   S    
C13   N1    S    
C12   H8    S    
C40   C44   S    
O11   C7    A    
C41   N9    S    
C11   C31   S    
O12   C8    A    
C31   C35   S    
C49   C53   T    
C10   C26   S    
C15   C27   S    
O10   V2    S    
C11   H19   S    
N2    H31   S    
C50   C54   T    
O5    V1    S    
C19   C35   S    
C18   C34   S    
C10   H6    S    
H1    C29   S    
O8    V4    S    
C18   H10   S    
O7    V3    S    
N10   H52   S    
O18   V4    S    
C40   O28   S    
C15   C19   S    
C32   H24   S    
C17   C33   S    
O4    V2    S    
C36   C48   S    
C7    C53   S    
C34   C38   S    
C15   N7    S    
C28   C44   S    
N8    H44   S    
N7    H42   S    
O5    C1    A    
C8    C54   S    
C26   C42   S    
C20   H12   S    
O7    C3    A    
O28   H60   S    
C11   C27   S    
O8    C4    A    
H3    C31   S    
C27   C51   S    
C39   H27   S    
C12   H20   S    
C27   C43   S    
C34   C46   S    
O11   V3    S    
C17   H9    S    
N5    H37   S    
C21   C45   T    
C43   N11   S    
C42   N10   S    
O6    V2    S    
C29   H21   S    
C11   H7    S    
O21   H45   S    
C13   N5    S    
C14   N2    S    
N7    H41   S    
C43   O23   S    
N5    H38   S    
N6    H40   S    
O16   V4    S    
C19   H11   S    
C16   N8    S    
C3    O13   A    
C23   C47   T    
C6    C56   S    
C36   C40   S    
C10   H18   S    
N10   H51   S    
C39   O27   S    
O24   H48   S    
C12   C28   S    
C41   O21   S    
C9    C29   S    
O12   V4    S    
C5    C55   S    
O23   H47   S    
C40   H28   S    
C15   N3    S    
C38   H26   S    
O10   C6    A    
N9    H50   S    
N8    H43   S    
C17   H13   S    
C33   C45   S    
N9    H49   S    
O9    C5    A    
C39   C43   S    
C4    C21   S    
O3    V1    S    
C20   H16   S    
C37   H25   S    
C28   C52   S    
N12   H56   S    
C13   C17   S    
N4    H36   S    
H2    C30   S    
O6    C2    A    
C51   C55   T    
C16   C20   S    
C16   C28   S    
C4    O14   A    
O26   H58   S    
C33   C37   S    
N12   H55   S    
C9    H17   S    
O25   H57   S    
N1    H29   S    
C35   C39   S    
C24   C48   T    
C14   N6    S    
C35   C47   S    
C12   C32   S    
N6    H39   S    
C44   N12   S    
