data_mof_unit_54253.cif
_audit_creation_date              2012-12-10T20:49:10-0500
_audit_creation_method            fapswitch 2.2
_symmetry_space_group_name_H-M    P1
_symmetry_Int_Tables_number       1
_space_group_crystal_system       triclinic
_cell_length_a                    8.929339
_cell_length_b                    8.120632
_cell_length_c                    10.562417
_cell_angle_alpha                 89.216135
_cell_angle_beta                  90.049299
_cell_angle_gamma                 89.981609
_cell_volume                      765.828670238

loop_
_atom_site_label
_atom_site_type_symbol
_atom_type_description
_atom_site_fract_x
_atom_site_fract_y
_atom_site_fract_z
_atom_type_partial_charge
C1    C     C_R   0.218058 0.500014 0.500082 0.932061
C2    C     C_3   0.634570 0.467247 0.051943 -0.344645
C3    C     C_3   0.511556 0.495277 0.877048 -0.004782
C4    C     C_3   0.488445 0.504726 0.122951 -0.004786
C5    C     C_1   0.065213 0.500021 0.500025 -0.143357
C6    C     C_1   0.934787 0.499978 0.499975 -0.143351
C7    C     C_2   0.397263 0.820059 0.059809 0.379119
C8    C     C_2   0.602737 0.179947 0.940178 0.379163
C9    C     C_2   0.715598 0.737373 0.923778 0.421976
C10   C     C_2   0.284403 0.262630 0.076220 0.422003
C11   C     C_R   0.781942 0.499986 0.499917 0.932074
C12   C     C_R   0.490410 0.501444 0.257255 0.929071
C13   C     C_R   0.509591 0.498556 0.742745 0.929094
C14   C     C_3   0.454634 0.650345 0.033560 -0.001622
C15   C     C_3   0.545367 0.349658 0.966439 -0.001649
C16   C     C_3   0.599230 0.612920 0.961190 -0.053132
C17   C     C_3   0.400771 0.387083 0.038809 -0.053154
C18   C     C_3   0.365432 0.532755 0.948056 -0.344732
H1    H     H_    0.255318 0.558974 0.903029 0.158543
H2    H     H_    0.744683 0.441028 0.096970 0.158539
H3    H     H_    0.384299 0.907038 0.981801 0.051086
H4    H     H_    0.615583 0.092918 0.018163 0.051106
H5    H     H_    0.763907 0.815716 0.995393 0.062555
H6    H     H_    0.236091 0.184290 0.004604 0.062528
N1    N     N_1   0.500000 0.073640 0.500000 0.015036
N2    N     N_1   0.500000 0.926360 0.500000 0.015041
O1    O     O_R   0.285350 0.636850 0.500000 -0.614789
O2    O     O_2   0.637516 0.139234 0.833506 -0.526561
O3    O     O_2   0.757668 0.750458 0.814274 -0.529676
O4    O     O_2   0.242335 0.249542 0.185724 -0.529678
O5    O     O_R   0.714650 0.363150 0.500000 -0.614776
O6    O     O_R   0.714650 0.636850 0.500000 -0.601593
O7    O     O_R   0.285350 0.363150 0.500000 -0.601594
O8    O     O_R   0.499970 0.636850 0.313950 -0.596478
O9    O     O_R   0.500030 0.363150 0.686050 -0.596511
O10   O     O_R   0.500030 0.636850 0.686050 -0.602475
O11   O     O_R   0.499970 0.363150 0.313950 -0.602458
O12   O     O_2   0.362617 0.860830 0.166500 -0.526569
Zn1   Zn    Zn3+2 0.500000 0.682780 0.500000 1.069685
Zn2   Zn    Zn3+2 0.500000 0.317220 0.500000 1.069686

loop_
_geom_bond_atom_site_label_1
_geom_bond_atom_site_label_2
_ccdc_geom_bond_type
C8    H4    S    
C13   O9    A    
C4    C12   S    
C2    C16   S    
C10   O4    D    
C2    C4    S    
C3    C13   S    
C9    O3    D    
O9    Zn2   S    
C11   O5    A    
C2    C15   S    
C3    C18   S    
C1    C5    S    
C4    C17   S    
C7    O12   D    
C11   O6    A    
C17   C18   S    
O11   Zn2   S    
C7    C14   S    
N1    Zn2   S    
C4    C14   S    
C5    C6    T    
C8    O2    D    
C14   C16   S    
N2    Zn1   S    
O7    Zn2   S    
C10   C17   S    
C1    O7    A    
O8    Zn1   S    
C6    C11   S    
C3    C15   S    
O5    Zn2   S    
C13   O10   A    
C15   C17   S    
C18   H1    S    
O6    Zn1   S    
C12   O11   A    
C1    O1    A    
C2    H2    S    
C14   C18   S    
C9    H5    S    
C8    C15   S    
C10   H6    S    
N1    N2    T    
C7    H3    S    
C12   O8    A    
C9    C16   S    
O10   Zn1   S    
C3    C16   S    
O1    Zn1   S    
