data_mof_unit_68243.cif
_audit_creation_date              2012-12-10T17:40:59-0500
_audit_creation_method            fapswitch 2.2
_symmetry_space_group_name_H-M    P1
_symmetry_Int_Tables_number       1
_space_group_crystal_system       triclinic
_cell_length_a                    15.311177
_cell_length_b                    15.682565
_cell_length_c                    10.369787
_cell_angle_alpha                 92.42192
_cell_angle_beta                  95.832846
_cell_angle_gamma                 90.213432
_cell_volume                      2474.7931636

loop_
_atom_site_label
_atom_site_type_symbol
_atom_type_description
_atom_site_fract_x
_atom_site_fract_y
_atom_site_fract_z
_atom_type_partial_charge
C1    C     C_R   0.387823 0.873235 0.494161 0.981761
C2    C     C_R   0.386499 0.126284 0.498956 0.932024
C3    C     C_R   0.887823 0.373235 0.494161 0.981759
C4    C     C_R   0.886499 0.626284 0.498956 0.932024
C5    C     C_R   0.303613 0.256320 0.394711 0.367677
C6    C     C_R   0.281770 0.764944 0.369952 0.393897
C7    C     C_R   0.803613 0.756320 0.394711 0.367677
C8    C     C_R   0.781770 0.264944 0.369952 0.393896
C9    C     C_R   0.714531 0.777504 0.391417 0.260844
C10   C     C_R   0.697080 0.236197 0.391764 0.298567
C11   C     C_R   0.214530 0.277504 0.391417 0.260845
C12   C     C_R   0.197080 0.736197 0.391765 0.298567
C13   C     C_R   0.680039 0.804306 0.508518 -0.164446
C14   C     C_R   0.685058 0.194996 0.509634 -0.208281
C15   C     C_R   0.180039 0.304306 0.508518 -0.164447
C16   C     C_R   0.185058 0.694996 0.509634 -0.208281
C17   C     C_R   0.339482 0.013019 0.103916 0.343739
C18   C     C_R   0.839481 0.513019 0.103916 0.343741
C19   C     C_R   0.273374 0.060917 0.037440 0.326038
C20   C     C_R   0.773374 0.560918 0.037440 0.326038
C21   C     C_R   0.285303 0.083715 0.912574 -0.350957
C22   C     C_R   0.785304 0.583715 0.912574 -0.350958
C23   C     C_R   0.340588 0.032259 0.846040 0.401846
C24   C     C_R   0.840588 0.532260 0.846040 0.401847
C25   C     C_R   0.422143 0.010755 0.917096 -0.045035
C26   C     C_R   0.922143 0.510755 0.917096 -0.045035
C27   C     C_R   0.422948 0.011312 0.058484 -0.058753
C28   C     C_R   0.922948 0.511312 0.058484 -0.058753
C29   C     C_R   0.573523 0.990958 0.084098 0.361257
C30   C     C_R   0.073523 0.490958 0.084098 0.361257
C31   C     C_R   0.617770 0.123520 0.504860 0.947189
C32   C     C_R   0.615712 0.876066 0.502246 0.932388
C33   C     C_R   0.117770 0.623520 0.504860 0.947190
C34   C     C_R   0.115712 0.376066 0.502246 0.932388
C35   C     C_R   0.574690 0.991005 0.943877 0.432771
C36   C     C_R   0.074690 0.491005 0.943878 0.432771
C37   C     C_R   0.374886 0.253978 0.725352 0.193323
C38   C     C_R   0.413360 0.689337 0.626016 0.277123
C39   C     C_R   0.874886 0.753978 0.725352 0.193322
C40   C     C_R   0.913359 0.189337 0.626017 0.277125
C41   C     C_R   0.348650 0.264488 0.848749 0.294722
C42   C     C_R   0.407516 0.635171 0.728753 0.317451
C43   C     C_R   0.848650 0.764489 0.848749 0.294721
C44   C     C_R   0.907515 0.135173 0.728755 0.317447
C45   C     C_R   0.759639 0.771611 0.861301 -0.228838
C46   C     C_R   0.833771 0.140568 0.794878 -0.295824
C47   C     C_R   0.259639 0.271610 0.861301 -0.228839
C48   C     C_R   0.333771 0.640566 0.794876 -0.295826
C49   C     C_R   0.698496 0.784368 0.754830 0.336541
C50   C     C_R   0.756013 0.173700 0.734132 0.466064
C51   C     C_R   0.198496 0.284368 0.754830 0.336540
C52   C     C_R   0.256014 0.673699 0.734131 0.466064
C53   C     C_R   0.727017 0.778801 0.627722 -0.053240
C54   C     C_R   0.756576 0.202221 0.609181 -0.098629
C55   C     C_R   0.227016 0.278800 0.627722 -0.053240
C56   C     C_R   0.256577 0.702221 0.609181 -0.098628
C57   C     C_R   0.311487 0.243070 0.619790 -0.086207
C58   C     C_R   0.337799 0.734744 0.580337 -0.073418
C59   C     C_R   0.811487 0.743071 0.619790 -0.086206
C60   C     C_R   0.837799 0.234744 0.580337 -0.073418
C61   C     C_R   0.335003 0.209312 0.501687 -0.230099
C62   C     C_R   0.337065 0.790457 0.479948 -0.191698
C63   C     C_R   0.835003 0.709312 0.501687 -0.230099
C64   C     C_R   0.837065 0.290457 0.479947 -0.191698
H1    H     H_    0.229509 0.109917 0.856523 0.247918
H2    H     H_    0.729509 0.609918 0.856523 0.247918
H3    H     H_    0.737734 0.772294 0.955857 0.288021
H4    H     H_    0.838959 0.117462 0.890435 0.231665
H5    H     H_    0.237733 0.272293 0.955857 0.288021
H6    H     H_    0.338960 0.617459 0.890433 0.231664
N1    N     N_R   0.498810 0.000000 0.142780 -0.173971
N2    N     N_R   0.998810 0.500000 0.142780 -0.173970
N3    N     N_R   0.498740 1.000000 0.857170 -0.186145
N4    N     N_R   0.998740 0.500000 0.857170 -0.186145
O1    O     O_R   0.408390 0.908380 0.614690 -0.533526
O2    O     O_R   0.408390 0.091620 0.614690 -0.629570
O3    O     O_R   0.908390 0.408380 0.614690 -0.533526
O4    O     O_R   0.908390 0.591620 0.614690 -0.629570
O5    O     O_R   0.408370 0.908380 0.385360 -0.539063
O6    O     O_R   0.408370 0.091620 0.385360 -0.619266
O7    O     O_R   0.908370 0.408380 0.385360 -0.539062
O8    O     O_R   0.908370 0.591620 0.385360 -0.619266
O9    O     O_R   0.591620 0.091610 0.614640 -0.554169
O10   O     O_R   0.591620 0.908390 0.614640 -0.563660
O11   O     O_R   0.091620 0.591610 0.614640 -0.554169
O12   O     O_R   0.091620 0.408390 0.614640 -0.563660
O13   O     O_R   0.591610 0.091610 0.385310 -0.593869
O14   O     O_R   0.591610 0.908390 0.385310 -0.547715
O15   O     O_R   0.091610 0.591610 0.385310 -0.593868
O16   O     O_R   0.091610 0.408390 0.385310 -0.547715
Zn1   Zn    Zn3+2 0.500010 0.000000 0.653130 1.097664
Zn2   Zn    Zn3+2 0.000010 0.500000 0.653130 1.097664
Zn3   Zn    Zn3+2 0.499980 0.000000 0.346870 1.121593
Zn4   Zn    Zn3+2 0.999980 0.500000 0.346870 1.121593
S1    S     S_3+6 0.362743 0.353102 0.377907 0.166813
O17   O     O_2   0.325275 0.424014 0.457148 -0.290279
O18   O     O_2   0.458056 0.345918 0.424650 -0.149075
O19   O     O_3   0.352668 0.380599 0.222593 -0.388801
H7    H     H_    0.387817 0.433718 0.221962 0.429962
S2    S     S_3+6 0.335577 0.696042 0.263557 0.148757
O20   O     O_2   0.431350 0.717919 0.272521 -0.185826
O21   O     O_2   0.326984 0.605653 0.302772 -0.228598
O22   O     O_3   0.293992 0.703844 0.109061 -0.399606
H8    H     H_    0.345346 0.710516 0.059621 0.396288
S3    S     S_3+6 0.862744 0.853102 0.377907 0.166813
O23   O     O_2   0.825275 0.924014 0.457149 -0.290278
O24   O     O_2   0.958057 0.845918 0.424650 -0.149076
O25   O     O_3   0.852669 0.880600 0.222594 -0.388801
H9    H     H_    0.887818 0.933719 0.221963 0.429963
S4    S     S_3+6 0.835578 0.196042 0.263557 0.148757
O26   O     O_2   0.931350 0.217919 0.272521 -0.185827
O27   O     O_2   0.826985 0.105653 0.302773 -0.228596
O28   O     O_3   0.793992 0.203843 0.109061 -0.399607
H10   H     H_    0.845346 0.210521 0.059621 0.396288
S5    S     S_3+6 0.272088 0.953048 0.758581 0.104483
O29   O     O_2   0.258687 0.972858 0.617407 -0.295746
O30   O     O_2   0.311628 0.866682 0.779499 -0.258440
O31   O     O_3   0.171632 0.950577 0.809791 -0.416612
H11   H     H_    0.138153 0.908685 0.749892 0.438578
S6    S     S_3+6 0.772088 0.453049 0.758581 0.104483
O32   O     O_2   0.758687 0.472859 0.617407 -0.295745
O33   O     O_2   0.811628 0.366683 0.779499 -0.258442
O34   O     O_3   0.671633 0.450577 0.809791 -0.416612
H12   H     H_    0.638153 0.408685 0.749892 0.438578
S7    S     S_3+6 0.682603 0.996908 0.899537 0.074801
O35   O     O_2   0.718487 0.074980 0.972783 -0.238305
O36   O     O_2   0.735362 0.925428 0.956277 -0.283433
O37   O     O_3   0.699725 0.001447 0.743599 -0.540214
H13   H     H_    0.756830 0.973211 0.735539 0.381806
S8    S     S_3+6 0.182603 0.496908 0.899537 0.074800
O38   O     O_2   0.218488 0.574979 0.972784 -0.238308
O39   O     O_2   0.235361 0.425427 0.956277 -0.283435
O40   O     O_3   0.199725 0.501447 0.743599 -0.540214
H14   H     H_    0.256829 0.473210 0.735539 0.381806
Br1   Br    Br    0.490916 0.283975 0.691913 -0.299328
Br2   Br    Br    0.512843 0.681463 0.530316 -0.308933
Br3   Br    Br    0.990917 0.783974 0.691913 -0.299331
Br4   Br    Br    0.012843 0.181461 0.530316 -0.308932
S9    S     S_3+6 0.423873 0.258939 0.987788 0.121778
O41   O     O_2   0.466774 0.344578 0.018710 -0.105754
O42   O     O_2   0.375839 0.233349 0.099091 -0.268958
O43   O     O_3   0.501593 0.186313 0.965702 -0.510148
H15   H     H_    0.488303 0.162429 0.876420 0.343885
S10   S     S_3+6 0.484965 0.555731 0.768198 0.137186
O44   O     O_2   0.486302 0.494087 0.653577 -0.148396
O45   O     O_2   0.573802 0.596179 0.796580 -0.229900
O46   O     O_3   0.459354 0.502254 0.896529 -0.449880
H16   H     H_    0.465223 0.544577 0.970553 0.390133
S11   S     S_3+6 0.923873 0.758939 0.987788 0.121778
O47   O     O_2   0.966775 0.844579 0.018709 -0.105750
O48   O     O_2   0.875840 0.733350 0.099091 -0.268958
O49   O     O_3   0.001593 0.686313 0.965702 -0.510149
H17   H     H_    0.988303 0.662429 0.876420 0.343885
S12   S     S_3+6 0.984965 0.055733 0.768202 0.137188
O50   O     O_2   0.986298 0.994084 0.653585 -0.148400
O51   O     O_2   0.073803 0.096179 0.796577 -0.229898
O52   O     O_3   0.959355 0.002259 0.896539 -0.449875
H18   H     H_    0.965224 0.044586 0.970559 0.390131
Br5   Br    Br    0.580420 0.791436 0.803194 -0.369028
Br6   Br    Br    0.671632 0.220666 0.836782 -0.205171
Br7   Br    Br    0.080420 0.291436 0.803193 -0.369030
Br8   Br    Br    0.171633 0.720666 0.836783 -0.205168
S13   S     S_3+6 0.646970 0.739598 0.254156 0.124368
O53   O     O_2   0.576677 0.799681 0.204573 -0.170376
O54   O     O_2   0.704879 0.722191 0.149132 -0.288460
O55   O     O_3   0.599953 0.648319 0.291654 -0.410265
H19   H     H_    0.646961 0.617312 0.342820 0.367701
S14   S     S_3+6 0.609688 0.259047 0.272323 0.167746
O56   O     O_2   0.599078 0.354048 0.268774 -0.166804
O57   O     O_2   0.632678 0.226272 0.142570 -0.170372
O58   O     O_3   0.512434 0.217149 0.297821 -0.473788
H20   H     H_    0.500256 0.171936 0.228822 0.406032
S15   S     S_3+6 0.146970 0.239598 0.254156 0.124367
O59   O     O_2   0.076677 0.299681 0.204572 -0.170377
O60   O     O_2   0.204878 0.222191 0.149132 -0.288460
O61   O     O_3   0.099953 0.148319 0.291653 -0.410266
H21   H     H_    0.146960 0.117312 0.342819 0.367702
S16   S     S_3+6 0.109688 0.759047 0.272324 0.167746
O62   O     O_2   0.099078 0.854048 0.268774 -0.166804
O63   O     O_2   0.132678 0.726272 0.142570 -0.170373
O64   O     O_3   0.012434 0.717150 0.297822 -0.473789
H22   H     H_    0.000255 0.671937 0.228822 0.406032
Br9   Br    Br    0.679589 0.985646 0.200076 -0.159961
Br10  Br    Br    0.179589 0.485646 0.200076 -0.159961
S17   S     S_3+6 0.303029 0.913650 0.143023 0.099591
O65   O     O_2   0.381146 0.856559 0.157116 -0.233518
O66   O     O_2   0.258667 0.924500 0.265181 -0.314243
O67   O     O_3   0.232068 0.870744 0.023911 -0.415667
H23   H     H_    0.174217 0.870171 0.058223 0.446032
S18   S     S_3+6 0.803029 0.413650 0.143024 0.099588
O68   O     O_2   0.881147 0.356559 0.157117 -0.233523
O69   O     O_2   0.758667 0.424500 0.265181 -0.314242
O70   O     O_3   0.732068 0.370744 0.023912 -0.415670
H24   H     H_    0.674217 0.370171 0.058223 0.446032
Br11  Br    Br    0.152446 0.049604 0.070506 -0.197746
Br12  Br    Br    0.652446 0.549604 0.070506 -0.197747

loop_
_geom_bond_atom_site_label_1
_geom_bond_atom_site_label_2
_ccdc_geom_bond_type
C58   C62   A    
C12   S16   S    
O58   H20   S    
C39   Br3   S    
O3    Zn2   S    
C19   Br11  S    
S18   O68   D    
O8    Zn4   S    
S1    O17   D    
O31   H11   S    
C13   C32   S    
O46   H16   S    
C14   C31   S    
C1    C62   S    
C34   O16   A    
S16   O62   D    
C53   C59   A    
S1    O19   S    
C2    O2    A    
O34   H12   S    
C54   C60   A    
S15   O59   D    
C46   H4    S    
S3    O24   D    
C4    C63   S    
O52   H18   S    
C40   C60   A    
S13   O54   D    
C25   N3    A    
C24   C26   A    
O5    Zn3   S    
C48   C52   A    
C33   O15   A    
S11   O48   D    
C6    C12   A    
S9    O43   S    
S16   O63   D    
S17   O66   D    
S5    O29   D    
C32   O14   A    
C31   O9    A    
O25   H9    S    
C18   C20   A    
C35   S7    S    
C34   O12   A    
N4    Zn2   S    
O15   Zn4   S    
C9    S13   S    
C9    C13   A    
S4    O26   D    
C22   H2    S    
C33   O11   A    
S18   O70   S    
C17   C19   A    
C38   C58   A    
C11   C15   A    
S1    O18   D    
S14   O58   S    
C47   H5    S    
S13   O53   D    
C17   S17   S    
S5    O30   D    
C40   Br4   S    
C3    O7    A    
S7    O37   S    
C37   Br1   S    
O61   H21   S    
O10   Zn1   S    
C38   Br2   S    
C35   N3    A    
C15   C34   S    
S12   O51   D    
C43   S11   S    
C2    C61   S    
O1    Zn1   S    
N2    Zn4   S    
S14   O57   D    
S7    O35   D    
C8    S4    S    
O37   H13   S    
C37   C41   A    
C28   N2    A    
S10   O46   S    
C26   C28   A    
C5    S1    S    
O11   Zn2   S    
C44   C46   A    
O16   Zn4   S    
C13   C53   A    
S15   O60   D    
C41   C47   A    
C32   O10   A    
S3    O25   S    
C11   S15   S    
C24   S6    S    
C5    C61   A    
C1    O1    A    
C12   C16   A    
S13   O55   S    
C31   O13   A    
N3    Zn1   S    
S12   O52   S    
S10   O45   D    
C10   C14   A    
S11   O49   S    
S17   O67   S    
C47   C51   A    
C50   Br6   S    
O64   H22   S    
S2    O22   S    
O67   H23   S    
C15   C55   A    
S8    O39   D    
C16   C56   A    
C4    O4    A    
C36   S8    S    
C16   C33   S    
C30   N2    A    
C45   C49   A    
S5    O31   S    
C39   C59   A    
S2    O21   D    
C17   C27   A    
C18   C28   A    
C42   C48   A    
C57   C61   A    
C43   C45   A    
S4    O28   S    
C7    C63   A    
S12   O50   D    
C36   N4    A    
C8    C64   A    
C10   S14   S    
S14   O56   D    
C14   C54   A    
C20   C22   A    
O70   H24   S    
C21   C23   A    
C42   S10   S    
O55   H19   S    
C1    O5    A    
C22   C24   A    
S8    O40   S    
C3    O3    A    
C27   N1    A    
S6    O32   D    
S6    O33   D    
O28   H10   S    
S15   O61   S    
C7    C9    A    
C46   C50   A    
O14   Zn3   S    
C18   S18   S    
S18   O69   D    
C29   Br9   S    
C21   H1    S    
C30   Br10  S    
C48   H6    S    
S10   O44   D    
C39   C43   A    
S9    O41   D    
S6    O34   S    
C5    C11   A    
C45   H3    S    
N1    Zn3   S    
C25   C27   A    
O9    Zn1   S    
S3    O23   D    
C29   C35   A    
C59   C63   A    
C30   C36   A    
C60   C64   A    
O4    Zn2   S    
C6    C62   A    
C55   C57   A    
S8    O38   D    
C44   S12   S    
C50   C54   A    
O12   Zn2   S    
S11   O47   D    
O7    Zn4   S    
S9    O42   D    
S17   O65   D    
O40   H14   S    
C49   C53   A    
O13   Zn3   S    
S2    O20   D    
C26   N4    A    
C56   C58   A    
C7    S3    S    
C51   Br7   S    
C51   C55   A    
C23   C25   A    
C3    C64   S    
S4    O27   D    
C41   S9    S    
S16   O64   S    
C2    O6    A    
O2    Zn1   S    
C23   S5    S    
C38   C42   A    
C40   C44   A    
C4    O8    A    
O49   H17   S    
C8    C10   A    
O19   H7    S    
C52   Br8   S    
O22   H8    S    
S7    O36   D    
O43   H15   S    
C49   Br5   S    
C29   N1    A    
O6    Zn3   S    
C20   Br12  S    
C37   C57   A    
C52   C56   A    
C6    S2    S    
C19   C21   A    
