data_mof_unit_23015.cif
_audit_creation_date              2012-12-11T14:19:15-0500
_audit_creation_method            fapswitch 2.2
_symmetry_space_group_name_H-M    P1
_symmetry_Int_Tables_number       1
_space_group_crystal_system       triclinic
_cell_length_a                    19.451332
_cell_length_b                    7.246273
_cell_length_c                    17.700383
_cell_angle_alpha                 89.999669
_cell_angle_beta                  107.561406
_cell_angle_gamma                 90.000304
_cell_volume                      2378.58772742

loop_
_atom_site_label
_atom_site_type_symbol
_atom_type_description
_atom_site_fract_x
_atom_site_fract_y
_atom_site_fract_z
_atom_type_partial_charge
O1    O     O_R   0.414820 0.494320 0.416790 -0.537366
O2    O     O_R   0.585180 0.994320 0.583210 -0.537366
O3    O     O_R   0.560270 0.819500 0.430140 -0.540482
O4    O     O_R   0.439730 0.319500 0.569860 -0.540481
C1    C     C_R   0.581181 0.655485 0.414751 0.714642
C2    C     C_R   0.418819 0.155483 0.585249 0.714642
O5    O     O_R   0.413840 0.823740 0.407440 -0.537084
O6    O     O_R   0.586160 0.323740 0.592560 -0.537084
O7    O     O_R   0.437710 0.998590 0.560350 -0.541025
O8    O     O_R   0.562290 0.498590 0.439650 -0.541025
C3    C     C_R   0.386338 0.655261 0.387224 0.684655
C4    C     C_R   0.613662 0.155261 0.612775 0.684655
O9    O     O_3   0.508000 0.662290 0.550200 -0.379239
O10   O     O_3   0.492000 0.162290 0.449800 -0.379239
V1    V     V_3+5 0.498520 0.935380 0.490690 1.436757
V2    V     V_3+5 0.501480 0.435380 0.509310 1.436756
C5    C     C_2   0.783725 0.266986 0.789808 -0.131689
C6    C     C_2   0.216277 0.766985 0.210190 -0.131680
C7    C     C_2   0.816474 0.111015 0.824116 -0.294337
C8    C     C_2   0.183526 0.611015 0.175883 -0.294358
H1    H     H_    0.808190 0.399719 0.810302 0.153127
H2    H     H_    0.191812 0.899719 0.189696 0.153133
H3    H     H_    0.789634 0.979122 0.808566 0.147666
H4    H     H_    0.210367 0.479122 0.191432 0.147680
C9    C     C_2   0.711343 0.269941 0.728744 -0.177146
C10   C     C_2   0.288658 0.769940 0.271254 -0.177145
C11   C     C_2   0.686343 0.141436 0.671435 -0.177407
C12   C     C_2   0.313657 0.641436 0.328564 -0.177408
H5    H     H_    0.677750 0.388876 0.730106 0.144051
H6    H     H_    0.322252 0.888875 0.269892 0.144054
C13   C     C_R   0.323110 0.295767 0.634890 -0.164621
C14   C     C_R   0.676889 0.795773 0.365107 -0.164624
C15   C     C_R   0.369755 0.147812 0.635071 -0.076840
C16   C     C_R   0.630244 0.647816 0.364928 -0.076834
C17   C     C_R   0.369275 0.993114 0.682798 -0.187770
C18   C     C_R   0.630724 0.493118 0.317203 -0.187773
C19   C     C_R   0.323199 0.985012 0.731064 -0.012231
C20   C     C_R   0.676798 0.485017 0.268935 -0.012250
C21   C     C_R   0.275931 0.134474 0.729495 0.049209
C22   C     C_R   0.724066 0.634479 0.270502 0.049200
C23   C     C_R   0.275937 0.289663 0.681059 0.128315
C24   C     C_R   0.724060 0.789669 0.318937 0.128313
C25   C     C_R   0.323030 0.831671 0.780644 -0.148235
C26   C     C_R   0.676965 0.331678 0.219355 -0.148244
C27   C     C_R   0.275231 0.826424 0.826823 0.348937
C28   C     C_R   0.724760 0.326431 0.173172 0.348914
C29   C     C_R   0.226832 0.973752 0.823450 -0.015766
C30   C     C_R   0.773163 0.473754 0.176547 -0.015779
C31   C     C_R   0.228260 0.129297 0.775979 -0.008645
C32   C     C_R   0.771736 0.629301 0.224017 -0.008625
C33   C     C_R   0.181433 0.279705 0.774365 0.142149
C34   C     C_R   0.818563 0.779708 0.225630 0.142164
C35   C     C_R   0.182133 0.432360 0.725957 -0.117718
C36   C     C_R   0.817864 0.932365 0.274036 -0.117728
C37   C     C_R   0.228766 0.437022 0.679544 -0.182151
C38   C     C_R   0.771231 0.937029 0.320449 -0.182146
C39   C     C_R   0.177148 0.968757 0.867106 -0.190790
C40   C     C_R   0.822850 0.468752 0.132895 -0.190816
C41   C     C_R   0.131323 0.119082 0.866828 -0.101218
C42   C     C_R   0.868675 0.619079 0.133171 -0.101197
C43   C     C_R   0.134326 0.274929 0.820779 -0.180845
C44   C     C_R   0.865671 0.774929 0.179217 -0.180871
H7    H     H_    0.322858 0.415256 0.597913 0.121293
H8    H     H_    0.677141 0.915263 0.402083 0.121292
H9    H     H_    0.405742 0.880287 0.682683 0.135429
H10   H     H_    0.594257 0.380290 0.317319 0.135425
H11   H     H_    0.174956 0.849045 0.902957 0.163600
H12   H     H_    0.825046 0.349034 0.097049 0.163563
H13   H     H_    0.098931 0.391109 0.819769 0.130129
H14   H     H_    0.901067 0.891110 0.180226 0.130124
H15   H     H_    0.146622 0.548656 0.724082 0.126768
H16   H     H_    0.853374 0.048662 0.275909 0.126764
H17   H     H_    0.228334 0.556944 0.642815 0.123149
H18   H     H_    0.771662 0.056953 0.357177 0.123148
O11   O     O_R   0.937810 0.773680 0.060480 -0.537340
O12   O     O_R   0.062190 0.273680 0.939520 -0.537338
O13   O     O_R   0.086190 0.439740 0.092580 -0.539216
O14   O     O_R   0.913810 0.939740 0.907420 -0.539222
C45   C     C_R   0.113242 0.607972 0.113216 0.732379
C46   C     C_R   0.886758 0.107972 0.886783 0.732402
O15   O     O_R   0.939760 0.444210 0.069890 -0.542931
O16   O     O_R   0.060240 0.944210 0.930110 -0.542937
O17   O     O_R   0.914790 0.269640 0.916760 -0.538094
O18   O     O_R   0.085210 0.769640 0.083240 -0.538092
C47   C     C_R   0.918983 0.612346 0.084725 0.698672
C48   C     C_R   0.081017 0.112347 0.915275 0.698688
O19   O     O_3   0.992050 0.601530 0.949880 -0.378934
O20   O     O_3   0.007950 0.101530 0.050120 -0.378930
V3    V     V_3+5 0.001480 0.328340 0.009300 1.413677
V4    V     V_3+5 0.998520 0.828340 0.990700 1.413658
C49   C     C_1   0.731684 0.991875 0.659777 0.326987
N1    N     N_1   0.767612 0.872428 0.650031 -0.368828
C50   C     C_1   0.268316 0.491874 0.340222 0.326989
N2    N     N_1   0.232388 0.372426 0.349967 -0.368827
C51   C     C_1   0.372081 0.678536 0.785785 0.340663
N3    N     N_1   0.411456 0.556432 0.790205 -0.365604
C52   C     C_1   0.627913 0.178543 0.214216 0.340739
N4    N     N_1   0.588538 0.056439 0.209796 -0.365597
O21   O     O_3   0.271768 0.669638 0.870287 -0.551820
C53   C     C_3   0.319242 0.690046 0.947787 0.096292
H19   H     H_    0.308021 0.819018 0.976320 0.108231
H20   H     H_    0.376274 0.691770 0.947107 0.131906
C54   C     C_3   0.309277 0.527161 0.997689 -0.691310
H21   H     H_    0.320788 0.396047 0.971277 0.228961
H22   H     H_    0.346661 0.540096 0.058808 0.176647
H23   H     H_    0.252949 0.523922 0.000374 0.212365
O22   O     O_3   0.728213 0.169649 0.129703 -0.551820
C55   C     C_3   0.680733 0.190085 0.052208 0.096336
H24   H     H_    0.692109 0.318792 0.023610 0.108271
H25   H     H_    0.623707 0.192384 0.052902 0.131756
C56   C     C_3   0.690475 0.026828 0.002380 -0.691199
H26   H     H_    0.678773 0.895988 0.028846 0.228930
H27   H     H_    0.653117 0.039849 0.941252 0.176616
H28   H     H_    0.746803 0.022939 0.999708 0.212450

loop_
_geom_bond_atom_site_label_1
_geom_bond_atom_site_label_2
_ccdc_geom_bond_type
O4    V2    S    
C50   N2    T    
C51   N3    T    
O1    C3    A    
O2    C4    A    
C2    O7    A    
C52   N4    T    
C29   C31   A    
O14   V4    S    
O5    C3    A    
O13   V3    S    
C17   C19   A    
C56   H26   S    
C45   O18   A    
O14   C46   A    
C39   C41   A    
C17   H9    S    
C40   C42   A    
C55   H24   S    
C44   H14   S    
C42   C44   A    
C27   C29   A    
C23   C37   A    
O11   V4    S    
C24   C38   A    
O11   C47   A    
C8    H4    S    
C34   C36   A    
C31   C33   A    
C6    C10   S    
C25   C51   S    
O22   C55   S    
C13   C15   A    
C11   C49   S    
C56   H28   S    
C16   C18   A    
O12   V3    S    
O15   V3    S    
C30   C32   A    
O6    V2    S    
C1    C16   S    
O18   V4    S    
C39   H11   S    
C46   O17   A    
C26   C28   A    
C28   C30   A    
C35   C37   A    
C9    H5    S    
O17   V3    S    
C36   C38   A    
C41   C43   A    
C38   H18   S    
C4    C11   S    
C13   H7    S    
C14   H8    S    
C21   C23   A    
C27   O21   S    
C49   N1    T    
C5    C7    D    
O16   C48   A    
C53   C54   S    
C5    H1    S    
C12   C50   S    
C33   C35   A    
C14   C16   A    
C19   C25   A    
C7    H3    S    
C20   C26   A    
C29   C39   A    
C26   C52   S    
C18   H10   S    
C32   C34   A    
O21   C53   S    
O6    C4    A    
C28   O22   S    
C53   H20   S    
O13   C45   A    
C56   H27   S    
O1    V2    S    
O2    V1    S    
C25   C27   A    
O4    C2    A    
C21   C31   A    
C10   H6    S    
C54   H22   S    
O19   V4    S    
C35   H15   S    
O12   C48   A    
O3    V1    S    
C40   H12   S    
C13   C23   A    
C8    C45   S    
C6    H2    S    
C22   C24   A    
O3    C1    A    
C42   C47   S    
C55   C56   S    
C30   C40   A    
C9    C11   D    
C10   C12   D    
O16   V4    S    
C2    C15   S    
C43   H13   S    
C18   C20   A    
O7    V1    S    
C41   C48   S    
C5    C9    S    
C1    O8    A    
C19   C21   A    
O8    V2    S    
C20   C22   A    
C33   C43   A    
C3    C12   S    
C22   C32   A    
O5    V1    S    
C53   H19   S    
C15   C17   A    
C55   H25   S    
C54   H23   S    
C6    C8    D    
C7    C46   S    
C37   H17   S    
C36   H16   S    
O20   V3    S    
O9    V2    S    
C54   H21   S    
C14   C24   A    
O10   V1    S    
C34   C44   A    
O15   C47   A    
