data_mof_unit_68538.cif
_audit_creation_date              2012-12-10T18:59:59-0500
_audit_creation_method            fapswitch 2.2
_symmetry_space_group_name_H-M    P1
_symmetry_Int_Tables_number       1
_space_group_crystal_system       triclinic
_cell_length_a                    10.797774
_cell_length_b                    10.617282
_cell_length_c                    10.033289
_cell_angle_alpha                 90.973044
_cell_angle_beta                  92.298119
_cell_angle_gamma                 91.634901
_cell_volume                      1148.66426958

loop_
_atom_site_label
_atom_site_type_symbol
_atom_type_description
_atom_site_fract_x
_atom_site_fract_y
_atom_site_fract_z
_atom_type_partial_charge
Br1   Br    Br    0.098206 0.693062 0.216643 -0.313507
Br2   Br    Br    0.901794 0.306938 0.783357 -0.313507
Br3   Br    Br    0.112871 0.158923 0.337682 -0.227137
Br4   Br    Br    0.887128 0.841077 0.662318 -0.227137
Br5   Br    Br    0.211559 0.104158 0.030494 -0.144915
Br6   Br    Br    0.788440 0.895842 0.969506 -0.144916
C1    C     C_R   0.495259 0.260767 0.498991 0.951042
C2    C     C_R   0.402111 0.058903 0.561017 0.424598
C3    C     C_R   0.505529 0.871979 0.502339 -0.213024
C4    C     C_R   0.494471 0.128021 0.497661 -0.213024
C5    C     C_R   0.466321 0.603103 0.073547 -0.140063
C6    C     C_R   0.533679 0.396897 0.926453 -0.140063
C7    C     C_R   0.466841 0.604103 0.932066 0.443093
C8    C     C_R   0.533159 0.395897 0.067933 0.443093
C9    C     C_R   0.260561 0.504789 0.497383 0.962600
C10   C     C_R   0.739439 0.495211 0.502617 0.962599
C11   C     C_R   0.165635 0.495707 0.041030 -0.328213
C12   C     C_R   0.504740 0.739233 0.501009 0.951042
C13   C     C_R   0.834365 0.504293 0.958970 -0.328213
C14   C     C_R   0.126023 0.520496 0.168352 0.253588
C15   C     C_R   0.873977 0.479504 0.831648 0.253588
C16   C     C_R   0.108635 0.420692 0.257209 -0.032331
C17   C     C_R   0.891365 0.579308 0.742791 -0.032331
C18   C     C_R   0.135171 0.296316 0.217614 0.205132
C19   C     C_R   0.864829 0.703684 0.782385 0.205132
C20   C     C_R   0.175788 0.272677 0.088367 0.244167
C21   C     C_R   0.824212 0.727322 0.911632 0.244167
C22   C     C_R   0.188985 0.373085 0.000465 0.314383
C23   C     C_R   0.872645 0.489302 0.507553 -0.196629
C24   C     C_R   0.811015 0.626915 0.999535 0.314383
C25   C     C_R   0.930173 0.432059 0.400276 0.415427
C26   C     C_R   0.069827 0.567941 0.599724 0.415427
C27   C     C_R   0.127355 0.510698 0.492446 -0.196629
C28   C     C_R   0.943215 0.551084 0.611635 -0.015362
C29   C     C_R   0.056785 0.448916 0.388364 -0.015362
C30   C     C_R   0.591775 0.069962 0.437063 -0.157905
C31   C     C_R   0.408225 0.930038 0.562937 -0.157905
C32   C     C_R   0.597889 0.941097 0.438983 0.424598
Cl1   Cl    Cl    0.232102 0.348776 0.837138 -0.442255
Cl2   Cl    Cl    0.767898 0.651224 0.162862 -0.442255
Cl3   Cl    Cl    0.423921 0.746410 0.861230 -0.465676
Cl4   Cl    Cl    0.576079 0.253590 0.138770 -0.465676
Cl5   Cl    Cl    0.846599 0.330141 0.284841 -0.503598
Cl6   Cl    Cl    0.153401 0.669858 0.715159 -0.503598
Cl7   Cl    Cl    0.724908 0.871994 0.366822 -0.382549
Cl8   Cl    Cl    0.275091 0.128006 0.633178 -0.382549
H1    H     H_    0.177983 0.572510 0.973145 0.262382
H2    H     H_    0.822017 0.427490 0.026855 0.262382
H3    H     H_    0.664115 0.125044 0.391204 0.249735
H4    H     H_    0.335885 0.874956 0.608796 0.249735
H5    H     H_    0.439129 0.686055 0.127870 0.223970
H6    H     H_    0.560871 0.313944 0.872130 0.223970
N1    N     N_R   0.499970 0.499970 0.857200 -0.142882
N2    N     N_R   0.500030 0.500030 0.142800 -0.142881
O1    O     O_R   0.499990 0.316750 0.614620 -0.589816
O2    O     O_R   0.500010 0.683250 0.385380 -0.589815
O3    O     O_R   0.499990 0.316780 0.385290 -0.569623
O4    O     O_R   0.500010 0.683220 0.614710 -0.569623
O5    O     O_R   0.316760 0.500000 0.614660 -0.509979
O6    O     O_R   0.683240 0.500000 0.385340 -0.509979
O7    O     O_R   0.316760 0.500020 0.385330 -0.650949
O8    O     O_R   0.683240 0.499980 0.614670 -0.650949
Zn1   Zn    Zn3+2 0.500000 0.499980 0.653120 1.076294
Zn2   Zn    Zn3+2 0.500000 0.500020 0.346880 1.076294

loop_
_geom_bond_atom_site_label_1
_geom_bond_atom_site_label_2
_ccdc_geom_bond_type
O7    Zn2   S    
C6    H6    S    
O2    Zn2   S    
C9    O5    A    
O8    Zn1   S    
C16   C29   S    
C1    O1    A    
C1    C4    S    
C5    C7    A    
C25   Cl5   S    
O5    Zn1   S    
Br6   C21   S    
C22   Cl1   S    
C12   O2    A    
C8    Cl4   S    
C17   C28   S    
C26   C27   A    
C11   C14   A    
Br2   C15   S    
C7    Cl3   S    
Br4   C19   S    
C26   Cl6   S    
C24   Cl2   S    
C23   C25   A    
O1    Zn1   S    
C21   C24   A    
C31   H4    S    
N1    Zn1   S    
Br3   C18   S    
C13   C24   A    
C5    N2    A    
C10   O8    A    
C16   C18   A    
C30   C32   A    
C3    C32   A    
C27   C29   A    
C18   C20   A    
O6    Zn2   S    
C9    C27   S    
C7    N1    A    
C15   C17   A    
C9    O7    A    
C25   C29   A    
C19   C21   A    
C2    C31   A    
Br5   C20   S    
C6    C8    A    
C11   H1    S    
C3    C12   S    
C17   C19   A    
C5    H5    S    
N2    Zn2   S    
O3    Zn2   S    
C2    C4    A    
C3    C31   A    
C10   O6    A    
O4    Zn1   S    
C13   H2    S    
C32   Cl7   S    
C4    C30   A    
C2    Cl8   S    
C8    N2    A    
C10   C23   S    
C11   C22   A    
C20   C22   A    
C23   C28   A    
C1    O3    A    
C30   H3    S    
C6    N1    A    
C14   C16   A    
C12   O4    A    
C13   C15   A    
Br1   C14   S    
C26   C28   A    
