data_mof_unit_65393.cif
_audit_creation_date              2012-12-10T18:12:04-0500
_audit_creation_method            fapswitch 2.2
_symmetry_space_group_name_H-M    P1
_symmetry_Int_Tables_number       1
_space_group_crystal_system       triclinic
_cell_length_a                    18.712617
_cell_length_b                    18.847459
_cell_length_c                    18.757951
_cell_angle_alpha                 109.807937
_cell_angle_beta                  109.362302
_cell_angle_gamma                 109.681342
_cell_volume                      5064.96071566

loop_
_atom_site_label
_atom_site_type_symbol
_atom_type_description
_atom_site_fract_x
_atom_site_fract_y
_atom_site_fract_z
_atom_type_partial_charge
C1    C     C_R   0.621836 0.620258 0.501579 0.949131
C2    C     C_R   0.185453 0.169621 0.217127 -0.470204
C3    C     C_R   0.174834 0.420298 0.178006 0.471328
C4    C     C_R   0.187499 0.501184 0.186330 -0.265089
C5    C     C_R   0.262963 0.580983 0.257156 -0.021403
C6    C     C_R   0.326877 0.579309 0.319832 0.439694
C7    C     C_R   0.313424 0.498708 0.312596 -0.282652
C8    C     C_R   0.237742 0.419031 0.242199 -0.024141
C9    C     C_R   0.322857 0.705079 0.231232 0.048527
C10   C     C_R   0.341986 0.789718 0.247034 0.059917
C11   C     C_R   0.318598 0.837496 0.301210 0.418705
C12   C     C_R   0.379086 0.498910 0.379591 0.928554
C13   C     C_R   0.269790 0.798280 0.333672 0.010821
C14   C     C_R   0.249656 0.713565 0.317750 0.410175
C15   C     C_R   0.277440 0.667320 0.267580 -0.035482
C16   C     C_R   0.761559 0.759597 0.584661 0.076653
C17   C     C_R   0.822864 0.827477 0.585166 0.151918
C18   C     C_R   0.813754 0.818537 0.504596 -0.181161
C19   C     C_R   0.743519 0.745826 0.424868 -0.290328
C20   C     C_R   0.681921 0.678463 0.423508 0.473028
C21   C     C_R   0.689877 0.686853 0.503474 -0.252403
C22   C     C_R   0.679637 0.505582 0.762180 0.503667
C23   C     C_R   0.381015 0.379990 0.501726 0.952899
C24   C     C_R   0.746369 0.509677 0.827945 0.066617
C25   C     C_R   0.813038 0.500070 0.814503 -0.203787
C26   C     C_R   0.815322 0.490062 0.737655 0.131116
C27   C     C_R   0.750520 0.489173 0.674290 -0.256191
C28   C     C_R   0.683907 0.497936 0.686750 -0.203850
C29   C     C_R   0.256521 0.331730 0.526926 0.423687
C30   C     C_R   0.186282 0.264049 0.516231 0.090540
C31   C     C_R   0.187476 0.186799 0.502642 -0.301521
C32   C     C_R   0.256478 0.175725 0.497430 0.401029
C33   C     C_R   0.317975 0.237279 0.491761 0.350431
C34   C     C_R   0.619413 0.499398 0.620389 0.934300
C35   C     C_R   0.317344 0.315164 0.506257 -0.352257
C36   C     C_R   0.997581 0.620351 0.117636 0.946048
C37   C     C_R   0.120548 0.500904 0.120633 0.961925
C38   C     C_R   0.999718 0.379626 0.879484 0.966530
C39   C     C_R   0.879644 0.500192 0.880200 0.920806
C40   C     C_R   0.000294 0.880449 0.379633 0.993730
C41   C     C_R   0.879751 0.882335 0.502218 0.958710
C42   C     C_R   0.000867 0.120547 0.620109 1.033202
C43   C     C_R   0.120341 0.119961 0.500338 1.030761
C44   C     C_R   0.010510 0.765795 0.181629 0.166906
C45   C     C_R   0.234998 0.204376 0.182885 0.472278
C46   C     C_R   0.016001 0.831790 0.249944 0.102617
C47   C     C_R   0.000344 0.815472 0.312665 -0.205272
C48   C     C_R   0.983540 0.736621 0.311153 0.498335
C49   C     C_R   0.980413 0.672255 0.244489 -0.241200
C50   C     C_R   0.995540 0.687179 0.181497 -0.178499
C51   C     C_R   0.079763 0.326185 0.817546 0.441153
C52   C     C_R   0.080181 0.264154 0.751869 0.051342
C53   C     C_R   0.001026 0.186428 0.686218 -0.334448
C54   C     C_R   0.920957 0.170853 0.682968 0.418208
C55   C     C_R   0.919379 0.235549 0.745277 0.402247
C56   C     C_R   0.251535 0.285815 0.190887 0.156932
C57   C     C_R   0.999275 0.313082 0.812697 -0.369551
C58   C     C_R   0.222094 0.334249 0.236525 -0.150767
C59   C     C_R   0.173190 0.299196 0.272096 0.355865
C60   C     C_R   0.154029 0.216074 0.260549 0.436735
H1    H     H_    0.168949 0.105151 0.207946 0.220561
H2    H     H_    0.737040 0.741111 0.363582 0.184885
H3    H     H_    0.752767 0.482791 0.615541 0.197796
H4    H     H_    0.966240 0.610486 0.241962 0.183874
O1    O     O_R   0.591640 0.539900 0.448310 -0.596359
O2    O     O_R   0.051750 0.643320 0.091550 -0.603317
O3    O     O_R   0.039910 0.448280 0.091610 -0.623746
O4    O     O_R   0.143370 0.551700 0.091590 -0.612757
O5    O     O_R   0.948300 0.356650 0.908390 -0.591896
O6    O     O_R   0.051750 0.460070 0.908380 -0.562549
O7    O     O_R   0.856690 0.448280 0.908350 -0.621439
O8    O     O_R   0.960140 0.551690 0.908340 -0.578248
O9    O     O_R   0.051710 0.908290 0.460000 -0.595587
O10   O     O_R   0.948270 0.908330 0.356580 -0.620792
O11   O     O_R   0.960090 0.908280 0.551610 -0.601792
O12   O     O_R   0.591610 0.643330 0.551710 -0.604684
O13   O     O_R   0.856650 0.908310 0.448190 -0.630652
O14   O     O_R   0.051730 0.091500 0.643240 -0.601579
O15   O     O_R   0.948290 0.091530 0.539820 -0.620971
O16   O     O_R   0.143350 0.091510 0.551630 -0.609234
O17   O     O_R   0.039910 0.091550 0.448210 -0.599927
O18   O     O_R   0.408400 0.448280 0.356670 -0.616036
O19   O     O_R   0.408370 0.551710 0.460080 -0.598115
O20   O     O_R   0.408390 0.356670 0.448290 -0.612328
O21   O     O_R   0.408360 0.460100 0.551690 -0.608394
O22   O     O_R   0.591630 0.448290 0.539920 -0.638151
O23   O     O_R   0.591600 0.551720 0.643330 -0.564866
O24   O     O_R   0.948300 0.539910 0.091570 -0.623654
Zn1   Zn    Zn3+2 0.500020 0.430940 0.430950 0.978769
Zn2   Zn    Zn3+2 0.499980 0.569060 0.569050 1.038186
Zn3   Zn    Zn3+2 0.930950 0.430940 0.999980 1.003250
Zn4   Zn    Zn3+2 0.069100 0.569040 0.999960 1.097957
Zn5   Zn    Zn3+2 0.069070 0.999890 0.568970 1.040798
Zn6   Zn    Zn3+2 0.930930 0.999930 0.430860 1.013141
O25   O     O_3   0.338172 0.920866 0.317427 -0.546988
C61   C     C_3   0.420531 0.981204 0.394809 -0.242275
H5    H     H_    0.473580 0.970536 0.388338 0.160178
H6    H     H_    0.418973 0.978463 0.452620 0.168909
H7    H     H_    0.437147 0.048098 0.407292 0.182987
I1    I     I_    0.227384 0.868516 0.407688 -0.352905
O26   O     O_3   0.195641 0.672915 0.344022 -0.611637
C62   C     C_3   0.246864 0.693604 0.430558 -0.229803
H8    H     H_    0.303454 0.761998 0.473643 0.175034
H9    H     H_    0.270515 0.646951 0.430033 0.190971
H10   H     H_    0.204470 0.686051 0.460247 0.169573
I2    I     I_    0.782043 0.763305 0.705872 -0.225773
I3    I     I_    0.923934 0.946435 0.706449 -0.192106
O27   O     O_3   0.609390 0.608034 0.344509 -0.615876
C63   C     C_3   0.636176 0.555563 0.299516 -0.190250
H11   H     H_    0.576667 0.494126 0.242188 0.203302
H12   H     H_    0.675105 0.537243 0.341428 0.157139
H13   H     H_    0.673954 0.588421 0.274215 0.160905
O28   O     O_3   0.612349 0.512616 0.773334 -0.563344
C64   C     C_3   0.541032 0.427580 0.733296 -0.264256
H14   H     H_    0.487685 0.432947 0.743754 0.190207
H15   H     H_    0.559772 0.390086 0.763095 0.168433
H16   H     H_    0.514240 0.391029 0.661307 0.148985
I4    I     I_    0.746809 0.536808 0.948419 -0.264459
I5    I     I_    0.912937 0.474888 0.710760 -0.342203
O29   O     O_3   0.260044 0.155824 0.133496 -0.551385
C65   C     C_3   0.319921 0.140863 0.186552 -0.225143
H17   H     H_    0.285405 0.089124 0.198353 0.165113
H18   H     H_    0.373298 0.201932 0.249722 0.132118
H19   H     H_    0.351470 0.116929 0.151113 0.206646
O30   O     O_3   0.262568 0.412482 0.552470 -0.608149
C66   C     C_3   0.305876 0.460784 0.644973 -0.188024
H20   H     H_    0.313971 0.526831 0.665551 0.188940
H21   H     H_    0.372499 0.469275 0.675538 0.159726
H22   H     H_    0.266980 0.429871 0.670572 0.190135
I6    I     I_    0.082242 0.283795 0.524316 -0.268759
O31   O     O_3   0.259314 0.101472 0.491287 -0.571599
C67   C     C_3   0.326495 0.124367 0.572152 -0.195985
H23   H     H_    0.319975 0.063541 0.571760 0.198527
H24   H     H_    0.321437 0.162257 0.628677 0.148753
H25   H     H_    0.392469 0.161521 0.581650 0.177202
O32   O     O_3   0.385184 0.227044 0.483197 -0.616238
C68   C     C_3   0.351119 0.162274 0.396410 -0.180765
H26   H     H_    0.406834 0.165154 0.386115 0.156552
H27   H     H_    0.310760 0.173753 0.347950 0.149928
H28   H     H_    0.312361 0.095761 0.384182 0.233450
I7    I     I_    0.015690 0.782702 0.075367 -0.191896
I8    I     I_    0.056198 0.958834 0.263842 -0.265808
O33   O     O_3   0.961898 0.720255 0.370016 -0.620424
C69   C     C_3   0.029097 0.715228 0.427000 -0.231526
H29   H     H_    0.014398 0.709378 0.478043 0.189978
H30   H     H_    0.094065 0.775469 0.461184 0.191289
H31   H     H_    0.032111 0.656486 0.391877 0.166229
O34   O     O_3   0.158468 0.400107 0.886381 -0.556536
C70   C     C_3   0.189273 0.383386 0.954990 -0.129683
H32   H     H_    0.256325 0.438552 0.006521 0.217906
H33   H     H_    0.193889 0.323117 0.932614 0.176799
H34   H     H_    0.147058 0.378635 0.985116 0.161942
I9    I     I_    0.320181 0.333408 0.131455 -0.275250
I10   I     I_    0.202053 0.291550 0.754657 -0.307030
O35   O     O_3   0.846919 0.088318 0.625171 -0.569199
C71   C     C_3   0.789226 0.088043 0.553706 -0.192387
H35   H     H_    0.755244 0.022743 0.494491 0.183556
H36   H     H_    0.822601 0.137336 0.538362 0.137200
H37   H     H_    0.738048 0.097509 0.565664 0.175621
O36   O     O_3   0.840708 0.218738 0.743699 -0.550420
C72   C     C_3   0.806176 0.262252 0.707484 -0.257644
H38   H     H_    0.838318 0.331946 0.757302 0.174166
H39   H     H_    0.735330 0.232154 0.686471 0.184166
H40   H     H_    0.811931 0.257045 0.648902 0.137879
O37   O     O_3   0.128770 0.335800 0.302537 -0.619817
C73   C     C_3   0.187224 0.415816 0.382310 -0.162055
H41   H     H_    0.194833 0.470871 0.370238 0.137030
H42   H     H_    0.252595 0.424006 0.418824 0.168793
H43   H     H_    0.157551 0.419372 0.424764 0.235292
O38   O     O_3   0.106142 0.180965 0.294402 -0.570330
C74   C     C_3   0.016686 0.129735 0.228975 -0.150733
H44   H     H_    0.004804 0.074381 0.170815 0.161615
H45   H     H_    0.992081 0.169878 0.208901 0.162227
H46   H     H_    0.978176 0.101560 0.256160 0.200489
O39   O     O_3   0.107706 0.342966 0.100716 -0.622019
C75   C     C_3   0.036191 0.302029 0.110967 -0.151506
H47   H     H_    0.974420 0.275489 0.050444 0.182390
H48   H     H_    0.034704 0.346437 0.167011 0.171367
H49   H     H_    0.035757 0.245550 0.117340 0.161536
O40   O     O_3   0.398297 0.657223 0.393278 -0.623502
C76   C     C_3   0.472037 0.679015 0.381895 -0.204445
H50   H     H_    0.474016 0.719799 0.350927 0.182840
H51   H     H_    0.474662 0.621196 0.343190 0.194411
H52   H     H_    0.532180 0.719135 0.447451 0.187853
I11   I     I_    0.361218 0.633166 0.151548 -0.283589
I12   I     I_    0.404878 0.848029 0.189299 -0.251567

loop_
_geom_bond_atom_site_label_1
_geom_bond_atom_site_label_2
_ccdc_geom_bond_type
C40   C47   S    
C33   C35   A    
C74   H44   S    
C38   O6    A    
C1    C21   S    
O37   C73   S    
C29   O30   S    
O10   Zn6   S    
O25   C61   S    
C71   H37   S    
O9    Zn5   S    
C64   H14   S    
C7    C8    A    
C46   I8    S    
C53   C54   A    
C40   O9    A    
O1    Zn1   S    
C68   H27   S    
C26   C27   A    
C16   C21   A    
O18   Zn1   S    
C31   C43   S    
C66   H20   S    
C71   H35   S    
C9    I11   S    
C63   H12   S    
C42   C53   S    
C41   O13   A    
C5    C6    A    
O8    Zn4   S    
C36   O2    A    
O38   C74   S    
C19   H2    S    
C52   I10   S    
O33   C69   S    
C61   H7    S    
O13   Zn6   S    
O27   C63   S    
C62   H10   S    
C18   C19   A    
C34   O22   A    
C65   H19   S    
C8    C58   S    
C54   C55   A    
C22   O28   S    
C19   C20   A    
C45   C56   A    
C56   C58   A    
C67   H23   S    
C61   H6    S    
C1    O1    A    
C39   O8    A    
C51   C57   A    
C9    C10   A    
C59   O37   S    
C2    H1    S    
C16   I2    S    
C17   I3    S    
C75   H48   S    
C38   O5    A    
C28   C34   S    
C42   O15   A    
C49   H4    S    
C22   C28   A    
C13   C14   A    
C73   H42   S    
C69   H31   S    
C72   H39   S    
C44   C46   A    
C72   H38   S    
C76   H51   S    
C2    C45   A    
C7    C12   S    
C74   H46   S    
C5    C15   S    
C23   O20   A    
C51   C52   A    
O26   C62   S    
C24   C25   A    
O15   Zn6   S    
C69   H30   S    
C3    C8    A    
C70   H34   S    
C54   O35   S    
C16   C17   A    
C14   O26   S    
O2    Zn4   S    
C66   H22   S    
C58   C59   A    
C76   H50   S    
C36   O24   A    
C18   C41   S    
C12   O19   A    
C37   O4    A    
C26   I5    S    
C29   C30   A    
C10   I12   S    
C41   O11   A    
C38   C57   S    
C74   H45   S    
C47   C48   A    
O24   Zn3   S    
C30   C31   A    
C61   H5    S    
C20   C21   A    
O3    Zn3   S    
C17   C18   A    
C12   O18   A    
C52   C53   A    
O34   C70   S    
C62   H9    S    
C65   H17   S    
C27   H3    S    
C56   I9    S    
C45   O29   S    
C3    O39   S    
C75   H47   S    
C42   O14   A    
O5    Zn3   S    
C23   C35   S    
C55   C57   A    
C73   H41   S    
C43   O17   A    
C22   C24   A    
C63   H13   S    
O20   Zn1   S    
C3    C4    A    
O35   C71   S    
C72   H40   S    
C36   C50   S    
O29   C65   S    
O11   Zn5   S    
C43   O16   A    
O28   C64   S    
C44   I7    S    
C76   H52   S    
C44   C50   A    
O19   Zn2   S    
C46   C47   A    
C55   O36   S    
C66   H21   S    
C6    O40   S    
C1    O12   A    
C31   C32   A    
O6    Zn4   S    
C4    C5    A    
O22   Zn1   S    
C64   H15   S    
O21   Zn2   S    
C6    C7    A    
C68   H26   S    
C29   C35   A    
C24   I4    S    
C69   H29   S    
C60   O38   S    
O36   C72   S    
C75   H49   S    
C13   I1    S    
C70   H33   S    
C25   C26   A    
O39   C75   S    
C30   I6    S    
C70   H32   S    
C32   C33   A    
O17   Zn6   S    
C11   C13   A    
C33   O32   S    
O30   C66   S    
C51   O34   S    
C67   H25   S    
C48   C49   A    
C68   H28   S    
C37   O3    A    
C71   H36   S    
O4    Zn4   S    
C40   O10   A    
C2    C60   A    
C34   O23   A    
C9    C15   A    
C62   H8    S    
C65   H18   S    
C64   H16   S    
C10   C11   A    
C59   C60   A    
O7    Zn3   S    
C4    C37   S    
C48   O33   S    
C73   H43   S    
C67   H24   S    
C49   C50   A    
C23   O21   A    
O23   Zn2   S    
C27   C28   A    
C39   O7    A    
C14   C15   A    
O32   C68   S    
C11   O25   S    
O14   Zn5   S    
O16   Zn5   S    
C63   H11   S    
C32   O31   S    
C25   C39   S    
O40   C76   S    
O31   C67   S    
O12   Zn2   S    
C20   O27   S    
