data_mof_unit_25747.cif
_audit_creation_date              2013-03-05T16:48:40-0500
_audit_creation_method            fapswitch 2.2
_symmetry_space_group_name_H-M    P1
_symmetry_Int_Tables_number       1
_space_group_crystal_system       triclinic
_cell_length_a                    11.002786
_cell_length_b                    10.912206
_cell_length_c                    10.439933
_cell_angle_alpha                 92.087471
_cell_angle_beta                  90.769517
_cell_angle_gamma                 89.175828
_cell_volume                      1252.40118883

loop_
_atom_site_label
_atom_site_type_symbol
_atom_site_description
_atom_site_fract_x
_atom_site_fract_y
_atom_site_fract_z
_atom_type_partial_charge
O1    O     O_R   0.499990 0.319650 0.605810 -0.587237
O2    O     O_R   0.500010 0.680350 0.394190 -0.594649
O3    O     O_R   0.499990 0.319640 0.394190 -0.570900
O4    O     O_R   0.500010 0.680360 0.605810 -0.581601
C1    C     C_R   0.499447 0.261468 0.497508 0.821532
C2    C     C_R   0.499361 0.738727 0.502844 0.782149
O5    O     O_R   0.319640 0.500010 0.605810 -0.586762
O6    O     O_R   0.680360 0.499990 0.394190 -0.584197
O7    O     O_R   0.319650 0.500010 0.394190 -0.572909
O8    O     O_R   0.680350 0.499990 0.605810 -0.569044
C3    C     C_R   0.261201 0.505120 0.499815 0.823258
C4    C     C_R   0.738406 0.506654 0.500803 0.840141
Cu1   Cu    Cu3+1 0.500000 0.500000 0.625300 0.980654
Cu2   Cu    Cu3+1 0.500000 0.500000 0.374700 0.978525
H1    H     H_    0.228881 0.366103 0.925017 0.138672
H2    H     H_    0.761855 0.371851 0.063220 0.167116
C5    C     C_R   0.209994 0.517422 0.061849 -0.134284
C6    C     C_R   0.841350 0.317849 0.882819 -0.114247
H3    H     H_    0.254408 0.582192 0.002836 0.140352
H4    H     H_    0.845371 0.221576 0.902803 0.147532
C7    C     C_R   0.168849 0.555240 0.182689 -0.142511
C8    C     C_R   0.883647 0.356854 0.766376 -0.189545
H5    H     H_    0.180189 0.649858 0.215212 0.143515
H6    H     H_    0.919999 0.289660 0.697583 0.174730
C9    C     C_R   0.111756 0.471899 0.260976 0.012871
C10   C     C_R   0.882327 0.481852 0.739591 0.008809
C11   C     C_R   0.094594 0.348996 0.215524 0.366118
C12   C     C_R   0.837407 0.569469 0.831726 0.392503
C13   C     C_R   0.136880 0.313009 0.093343 -0.207216
C14   C     C_R   0.793343 0.527663 0.947710 -0.235315
H7    H     H_    0.126138 0.219563 0.056916 0.165817
H8    H     H_    0.756938 0.592260 0.018544 0.152840
C15   C     C_R   0.194938 0.396329 0.017728 -0.206359
C16   C     C_R   0.795497 0.402817 0.973183 -0.169220
C17   C     C_R   0.934252 0.543068 0.387112 0.119803
C18   C     C_R   0.064633 0.536775 0.618949 0.119852
C19   C     C_R   0.871642 0.522013 0.502120 -0.079875
C20   C     C_R   0.127357 0.519734 0.500924 -0.113608
C21   C     C_R   0.938912 0.517197 0.618575 0.028932
C22   C     C_R   0.059347 0.517256 0.384487 -0.017567
H9    H     H_    0.590455 0.177282 0.897268 0.141446
H10   H     H_    0.423011 0.823298 0.109241 0.133580
C23   C     C_R   0.465222 0.183507 0.054173 -0.126814
C24   C     C_R   0.538610 0.810788 0.944421 -0.116535
H11   H     H_    0.392207 0.223232 0.998510 0.128252
H12   H     H_    0.610866 0.763042 0.994008 0.147751
C25   C     C_R   0.446634 0.154964 0.181950 -0.081172
C26   C     C_R   0.551647 0.839516 0.815849 -0.042582
H13   H     H_    0.358119 0.171453 0.223909 0.138828
H14   H     H_    0.635217 0.816370 0.767402 0.198420
C27   C     C_R   0.541376 0.102304 0.253958 0.097912
C28   C     C_R   0.457858 0.900387 0.750370 0.087351
C29   C     C_R   0.653412 0.076074 0.195368 -0.122211
C30   C     C_R   0.353332 0.938060 0.818406 -0.186869
H15   H     H_    0.726008 0.031319 0.247914 0.166975
H16   H     H_    0.281685 0.989659 0.771685 0.147288
C31   C     C_R   0.670604 0.102423 0.067179 -0.109339
C32   C     C_R   0.341204 0.910732 0.947446 -0.145955
H17   H     H_    0.755831 0.077825 0.022194 0.163161
H18   H     H_    0.260317 0.939682 0.998781 0.149967
C33   C     C_R   0.576989 0.157076 0.996750 -0.122426
C34   C     C_R   0.433078 0.845573 0.009871 -0.131757
C35   C     C_R   0.520722 0.928391 0.391315 -0.233166
C36   C     C_R   0.475961 0.072570 0.610335 -0.217469
H19   H     H_    0.539176 0.873094 0.305184 0.155543
H20   H     H_    0.459492 0.128523 0.696534 0.156741
C37   C     C_R   0.500159 0.872475 0.507486 -0.074366
C38   C     C_R   0.496704 0.128080 0.494096 -0.077397
C39   C     C_R   0.477734 0.946102 0.619924 0.012065
C40   C     C_R   0.518296 0.054769 0.382233 0.007136
N1    N     N_1   0.500010 0.499990 0.186410 -0.145219
N2    N     N_1   0.499990 0.500010 0.813590 -0.148957
C41   C     C_1   0.500302 0.499909 0.071995 0.063772
C42   C     C_1   0.499964 0.499827 0.927994 0.060685
N3    N     N_R   0.033708 0.260671 0.290367 0.101766
O9    O     O_R   0.044686 0.262911 0.414653 -0.400960
O10   O     O_R   0.976422 0.169968 0.233533 -0.395985
N4    N     N_R   0.843940 0.699550 0.813358 0.078448
O11   O     O_R   0.848138 0.743155 0.699171 -0.408244
O12   O     O_R   0.847142 0.775916 0.912041 -0.419835
C43   C     C_3   0.872422 0.594979 0.268273 -0.395504
C44   C     C_3   0.818084 0.722962 0.296158 -0.745767
H21   H     H_    0.750414 0.722848 0.373745 0.252664
H22   H     H_    0.891391 0.787631 0.325073 0.259979
H23   H     H_    0.772324 0.756667 0.208472 0.234023
H24   H     H_    0.936867 0.606259 0.189311 0.212863
H25   H     H_    0.804234 0.531346 0.226847 0.221976
C45   C     C_3   0.127734 0.575813 0.745127 -0.368226
C46   C     C_3   0.178797 0.704480 0.739496 -0.726691
H26   H     H_    0.241622 0.713719 0.658363 0.242579
H27   H     H_    0.103604 0.772818 0.730370 0.279585
H28   H     H_    0.229102 0.724407 0.830067 0.235694
H29   H     H_    0.067123 0.579336 0.828362 0.206679
H30   H     H_    0.197083 0.508280 0.774220 0.211646

loop_
_geom_bond_atom_site_label_1
_geom_bond_atom_site_label_2
_geom_bond_distance
_ccdc_geom_bond_type
C32   C34   1.395540 A    
C20   C22   1.418484 A    
C35   H19   1.084314 S    
C11   C13   1.404251 A    
C41   C42   1.503281 S    
C29   H15   1.083503 S    
H9    C33   1.082121 S    
O7    Cu2   1.997472 S    
C43   C44   1.530893 S    
C17   C43   1.529836 S    
C25   H13   1.083248 S    
C18   C45   1.530305 S    
O5    C3    1.274918 A    
O1    C1    1.276386 A    
C36   C38   1.398784 A    
C17   C19   1.419803 A    
C9    C22   1.485069 S    
N4    O12   1.301688 A    
C10   C21   1.481926 S    
C31   H17   1.080447 S    
C32   H18   1.082351 S    
C13   C15   1.393007 A    
O4    Cu1   1.985975 S    
Cu2   N1    1.965732 S    
C4    C19   1.477727 S    
C28   C39   1.487263 S    
H2    C16   1.082057 S    
C24   H12   1.080823 S    
C27   C40   1.480038 S    
C46   H27   1.111290 S    
C12   N4    1.442212 S    
H10   C34   1.081588 S    
C43   H24   1.105939 S    
C26   H14   1.077785 S    
Cu1   Cu2   2.616247 S    
O2    C2    1.280636 A    
C5    C15   1.394841 A    
C1    C38   1.455442 S    
C11   N3    1.440748 S    
C28   C30   1.408277 A    
C45   H30   1.100647 S    
C6    C16   1.392767 A    
C35   C37   1.399885 A    
C14   C16   1.397333 A    
N2    C42   1.194452 T    
N1    C41   1.194497 T    
C29   C31   1.394939 A    
N4    O11   1.301187 A    
C25   C27   1.405412 A    
C24   C34   1.396052 A    
C5    C7    1.392422 A    
C27   C29   1.404632 A    
C36   H20   1.084725 S    
C3    C20   1.479138 S    
N3    O9    1.300909 A    
N3    O10   1.301580 A    
C35   C40   1.385614 A    
O5    Cu1   1.992146 S    
O6    C4    1.276082 A    
C36   C39   1.387143 A    
C46   H28   1.105507 S    
C23   H11   1.080184 S    
C43   H25   1.102943 S    
O3    Cu2   1.985976 S    
O8    C4    1.281045 A    
O4    C2    1.269166 A    
C2    C37   1.458673 S    
C44   H22   1.110855 S    
O7    C3    1.283054 A    
C8    H6    1.083661 S    
O1    Cu1   1.971122 S    
C23   C33   1.397083 A    
C30   C32   1.398879 A    
C7    C9    1.405009 A    
C45   H29   1.101689 S    
O6    Cu2   1.992145 S    
C6    C8    1.390741 A    
C18   C21   1.402646 A    
O3    C1    1.271451 A    
O8    Cu1   1.997471 S    
C30   H16   1.083195 S    
C31   C33   1.396848 A    
Cu1   N2    1.965734 S    
C9    C11   1.420564 A    
C44   H23   1.110687 S    
C10   C12   1.419787 A    
C7    H5    1.083476 S    
C17   C22   1.401375 A    
C12   C14   1.404189 A    
C19   C21   1.417070 A    
C14   H8    1.079835 S    
C18   C20   1.425332 A    
C5    H3    1.080587 S    
C6    H4    1.078671 S    
O2    Cu2   1.971122 S    
C26   C28   1.402790 A    
C45   C46   1.523166 S    
C13   H7    1.082763 S    
C44   H21   1.107598 S    
C8    C10   1.402147 A    
C38   C40   1.412159 A    
C37   C39   1.420445 A    
C46   H26   1.108782 S    
C23   C25   1.399217 A    
H1    C15   1.080740 S    
C24   C26   1.399176 A    
