data_mof_unit_47538.cif
_audit_creation_date              2012-12-11T14:35:59-0500
_audit_creation_method            fapswitch 2.2
_symmetry_space_group_name_H-M    P1
_symmetry_Int_Tables_number       1
_space_group_crystal_system       triclinic
_cell_length_a                    13.516698
_cell_length_b                    13.503578
_cell_length_c                    27.507562
_cell_angle_alpha                 90.952021
_cell_angle_beta                  90.662189
_cell_angle_gamma                 60.022144
_cell_volume                      4348.46563719

loop_
_atom_site_label
_atom_site_type_symbol
_atom_type_description
_atom_site_fract_x
_atom_site_fract_y
_atom_site_fract_z
_atom_type_partial_charge
C1    C     C_R   0.620910 0.101556 0.570098 0.539977
C2    C     C_1   0.628035 0.738625 0.617411 0.010962
C3    C     C_3   0.707553 0.574246 0.768819 0.264138
C4    C     C_3   0.670012 0.668499 0.807683 0.044844
C5    C     C_3   0.596415 0.646192 0.741353 0.257736
C6    C     C_3   0.654127 0.698731 0.712426 0.022278
C7    C     C_3   0.556421 0.741891 0.780160 -0.114575
C8    C     C_3   0.615363 0.795887 0.750849 -0.116945
C9    C     C_1   0.681700 0.643152 0.859634 0.031388
C10   C     C_1   0.642945 0.716367 0.659944 -0.002964
C11   C     C_3   0.092645 0.163577 0.737442 0.263186
C12   C     C_R   0.599347 0.780506 0.568951 0.543704
C13   C     C_3   0.157953 0.066669 0.774103 0.224802
C14   C     C_1   0.100620 0.196885 0.903160 0.069411
C15   C     C_1   0.242693 0.132916 0.619517 0.023940
C16   C     C_3   0.096849 0.249640 0.773077 0.251591
C17   C     C_3   0.162253 0.153779 0.810053 0.024583
C18   C     C_3   0.209677 0.226937 0.751131 0.241670
C19   C     C_3   0.205231 0.141200 0.714885 -0.032141
C20   C     C_3   0.276317 0.130590 0.787852 0.205789
C21   C     C_3   0.273221 0.042381 0.751371 -0.162770
C22   C     C_1   0.132804 0.172396 0.861770 0.112788
C23   C     C_R   0.280397 0.120881 0.570243 0.543934
C24   C     C_1   0.223245 0.137696 0.662357 0.026447
C25   C     C_3   0.647225 0.272324 0.741220 -0.124267
C26   C     C_3   0.556700 0.270781 0.775461 -0.092242
C27   C     C_1   0.685792 0.206575 0.904112 0.047927
C28   C     C_1   0.639119 0.134537 0.617843 0.012253
C29   C     C_3   0.743222 0.187863 0.775591 0.247067
C30   C     C_3   0.653737 0.186457 0.809349 0.021246
C31   C     C_3   0.754498 0.083257 0.746577 -0.124596
C32   C     C_3   0.657100 0.167925 0.712785 -0.042928
C33   C     C_3   0.663887 0.084210 0.780393 0.242543
C34   C     C_R   0.623264 0.101831 0.432407 0.539991
C35   C     C_3   0.568622 0.166315 0.746577 0.327202
C36   C     C_1   0.665215 0.195900 0.862175 0.046660
C37   C     C_1   0.650159 0.153494 0.660007 -0.012842
C38   C     C_R   0.727581 0.720648 0.358229 -0.123851
C39   C     C_R   0.736659 0.709773 0.307719 -0.025410
C40   C     C_R   0.753364 0.688440 0.205731 0.014923
C41   C     C_R   0.831643 0.708228 0.233159 0.260257
C42   C     C_R   0.823954 0.716042 0.283777 -0.089032
C43   C     C_R   0.768780 0.656792 0.155801 0.246395
C44   C     C_R   0.682783 0.646261 0.130638 -0.000001
C45   C     C_R   0.601183 0.776863 0.430083 0.545181
C46   C     C_R   0.553692 0.709647 0.354741 -0.122938
C47   C     C_R   0.559440 0.702933 0.304405 -0.010312
C48   C     C_R   0.651507 0.702383 0.280610 0.038508
C49   C     C_R   0.470262 0.704377 0.277693 -0.111511
C50   C     C_R   0.471955 0.703817 0.226859 0.266960
C51   C     C_R   0.567700 0.695507 0.203079 0.040225
C52   C     C_R   0.657525 0.695674 0.229778 -0.057318
C53   C     C_R   0.578251 0.679716 0.153126 -0.135019
C54   C     C_R   0.633443 0.725574 0.381592 0.002229
C55   C     C_R   0.211944 0.057032 0.358419 -0.124164
C56   C     C_R   0.276693 0.121056 0.431405 0.547503
C57   C     C_R   0.185102 0.071581 0.308855 0.025357
C58   C     C_R   0.147363 0.097051 0.208132 0.019095
C59   C     C_R   0.166158 0.996708 0.230749 -0.122155
C60   C     C_R   0.186418 0.983405 0.280738 -0.128459
C61   C     C_R   0.123699 0.112261 0.158413 -0.126682
C62   C     C_R   0.101537 0.214428 0.136645 -0.005007
C63   C     C_R   0.177848 0.251404 0.364182 -0.130495
C64   C     C_R   0.156854 0.265007 0.314662 -0.042392
C65   C     C_R   0.162619 0.174291 0.286529 0.050136
C66   C     C_R   0.138416 0.365283 0.292676 -0.064669
C67   C     C_3   0.767472 0.625768 0.739920 -0.129125
C68   C     C_R   0.130386 0.375450 0.242430 0.242996
C69   C     C_R   0.132024 0.286310 0.213703 -0.005401
C70   C     C_R   0.147714 0.185748 0.236062 0.031305
C71   C     C_R   0.110823 0.298103 0.163885 -0.126554
C72   C     C_R   0.214344 0.145012 0.385406 0.002130
C73   C     C_R   0.555732 0.236042 0.363502 -0.165011
C74   C     C_R   0.566156 0.256027 0.314756 -0.044209
C75   C     C_R   0.582304 0.283211 0.214245 0.028237
C76   C     C_R   0.482235 0.359207 0.239907 0.238891
C77   C     C_R   0.474123 0.343949 0.289603 -0.087461
C78   C     C_3   0.728957 0.722257 0.779249 -0.105431
C79   C     C_R   0.594105 0.294863 0.164110 -0.104146
C80   C     C_R   0.694120 0.215912 0.139864 -0.018797
C81   C     C_R   0.755383 0.084306 0.365558 0.227371
C82   C     C_R   0.763338 0.096933 0.315662 0.064876
C83   C     C_R   0.668148 0.182655 0.290137 0.006199
C84   C     C_R   0.863990 0.023083 0.290497 -0.081737
C85   C     C_R   0.868792 0.030965 0.240493 -0.113035
C86   C     C_R   0.774790 0.115429 0.215172 0.014452
C87   C     C_R   0.674868 0.193973 0.239828 0.021962
C88   C     C_R   0.781451 0.124007 0.165555 -0.102006
C89   C     C_1   0.693521 0.612873 0.901246 0.037799
C90   C     C_R   0.647281 0.145514 0.388121 -0.009604
C91   C     C_R   0.049375 0.235728 0.950029 0.552380
C92   C     C_R   0.710946 0.563484 0.948434 0.553227
C93   C     C_R   0.721033 0.225105 0.951242 0.558584
C94   C     C_R   0.047400 0.245891 0.088754 0.541538
C95   C     C_R   0.707529 0.576726 0.085933 0.561679
C96   C     C_R   0.721271 0.235008 0.090545 0.545163
Cr1   Cr    Cr6+3 0.417550 0.169090 0.500530 1.040560
Cr2   Cr    Cr6+3 0.669180 0.913420 0.499920 1.045493
Cr3   Cr    Cr6+3 0.413260 0.917540 0.499520 1.039360
Cr4   Cr    Cr6+3 0.909170 0.177380 0.020380 1.066744
Cr5   Cr    Cr6+3 0.912710 0.429210 0.018220 1.098741
Cr6   Cr    Cr6+3 0.657170 0.432570 0.019030 1.065619
H1    H     H_    0.784086 0.753282 0.795565 0.160982
H2    H     H_    0.474639 0.345581 0.787163 0.154797
H3    H     H_    0.642599 0.348884 0.724672 0.172424
H4    H     H_    0.835980 0.007400 0.735079 0.163240
H5    H     H_    0.852760 0.578960 0.722626 0.123094
H6    H     H_    0.788940 0.733974 0.378826 0.140540
H7    H     H_    0.884890 0.729947 0.304407 0.155030
H8    H     H_    0.510234 0.677731 0.132690 0.210678
H9    H     H_    0.398391 0.707850 0.296393 0.099163
H10   H     H_    0.480518 0.713692 0.372520 0.132404
H11   H     H_    0.116690 0.047489 0.137302 0.134791
H12   H     H_    0.238554 0.975093 0.374951 0.127215
H13   H     H_    0.165579 0.928451 0.209722 0.141334
H14   H     H_    0.576969 0.887942 0.742524 0.178999
H15   H     H_    0.203063 0.904346 0.297385 0.109521
H16   H     H_    0.091054 0.377082 0.146613 0.151271
H17   H     H_    0.135842 0.434272 0.314425 0.143418
H18   H     H_    0.176917 0.320564 0.385200 0.131398
H19   H     H_    0.527914 0.365690 0.144037 0.192895
H20   H     H_    0.473727 0.286266 0.381199 0.138709
H21   H     H_    0.395491 0.400824 0.308567 0.145282
H22   H     H_    0.859794 0.062090 0.147664 0.157818
H23   H     H_    0.470262 0.788630 0.796796 0.156867
H24   H     H_    0.946617 0.971515 0.221635 0.150110
H25   H     H_    0.938166 0.956747 0.309030 0.178443
H26   H     H_    0.346271 0.957044 0.741832 0.151514
O1    O     O_R   0.301710 0.195650 0.554160 -0.493282
O2    O     O_R   0.658900 0.818120 0.449760 -0.496991
O3    O     O_R   0.503220 0.801620 0.445520 -0.520808
O4    O     O_R   0.319370 0.022040 0.450020 -0.500748
O5    O     O_3   0.499990 0.000010 0.499990 -0.255039
O6    O     O_R   0.818720 0.150820 0.967160 -0.484739
O7    O     O_R   0.006410 0.181720 0.970200 -0.485537
O8    O     O_R   0.027890 0.334070 0.964920 -0.494492
O9    O     O_R   0.809600 0.521790 0.967960 -0.487194
O10   O     O_R   0.635520 0.542770 0.964420 -0.500132
O11   O     O_R   0.665950 0.325030 0.970100 -0.491516
O12   O     O_R   0.522390 0.158990 0.550460 -0.487793
O13   O     O_R   0.816620 0.158530 0.074540 -0.517522
O14   O     O_R   0.004460 0.188870 0.069750 -0.507040
O15   O     O_R   0.025800 0.341780 0.072300 -0.503681
O16   O     O_R   0.807650 0.528950 0.067500 -0.441253
O17   O     O_R   0.633420 0.550490 0.071810 -0.527768
O18   O     O_R   0.664000 0.332180 0.069640 -0.494898
O19   O     O_3   0.826350 0.346390 0.019210 -0.270555
O20   O     O_R   0.694390 0.003530 0.554040 -0.509125
O21   O     O_R   0.657700 0.819660 0.549320 -0.498400
O22   O     O_R   0.501930 0.803280 0.552920 -0.495148
O23   O     O_R   0.318170 0.023580 0.549580 -0.498008
O24   O     O_R   0.303010 0.193990 0.446760 -0.520276
O25   O     O_R   0.523600 0.157450 0.450900 -0.508147
O26   O     O_R   0.695690 0.001860 0.446640 -0.486841
Cl1   Cl    Cl    0.395645 0.107284 0.824264 -0.530190
O27   O     O_3   0.234782 0.311919 0.738697 -0.622582
H27   H     H_    0.234969 0.349874 0.769822 0.353568
O28   O     O_3   0.005315 0.357605 0.784664 -0.619416
H28   H     H_    0.986388 0.400717 0.753975 0.338441
O29   O     O_3   0.476801 0.154577 0.730115 -0.594347
H29   H     H_    0.511109 0.080279 0.712455 0.319348
O30   O     O_3   0.668759 0.987924 0.800828 -0.662319
H30   H     H_    0.738135 0.953936 0.821584 0.327751
Cl2   Cl    Cl    0.858983 0.201355 0.799113 -0.465619
O31   O     O_3   0.870280 0.624221 0.132430 -0.619964
H31   H     H_    0.932619 0.573156 0.154672 0.359933
Cl3   Cl    Cl    0.931682 0.738600 0.206612 -0.545073
O32   O     O_3   0.382903 0.708191 0.199910 -0.672053
H32   H     H_    0.322360 0.715856 0.222269 0.354438
O33   O     O_3   0.119622 0.474143 0.223365 -0.632903
H33   H     H_    0.159825 0.455367 0.191850 0.365903
Cl4   Cl    Cl    0.364124 0.473424 0.211287 -0.591674
O34   O     O_3   0.852433 0.008345 0.390684 -0.705478
H34   H     H_    0.845803 0.037578 0.424484 0.337468
O35   O     O_3   0.529223 0.604434 0.720719 -0.677818
H35   H     H_    0.504538 0.575851 0.748358 0.335703
O36   O     O_3   0.753343 0.458467 0.778736 -0.613593
H36   H     H_    0.777619 0.418977 0.746749 0.364450
Cl5   Cl    Cl    0.125946 0.957964 0.789053 -0.528980
O37   O     O_3   0.996223 0.183525 0.710477 -0.634777
H37   H     H_    0.017893 0.110324 0.693388 0.342851

loop_
_geom_bond_atom_site_label_1
_geom_bond_atom_site_label_2
_ccdc_geom_bond_type
C53   H8    S    
C66   C68   A    
Cr2   O26   S    
C41   C42   A    
C40   C41   A    
O31   H31   S    
C20   Cl1   S    
C46   H10   S    
C11   C13   S    
C73   C74   A    
C95   O16   A    
C83   C87   A    
C95   O17   A    
Cr1   O5    S    
C74   C83   A    
C88   H22   S    
C92   O10   A    
C49   C50   A    
C81   C82   A    
C25   H3    S    
C7    C8    S    
C47   C49   A    
O34   H34   S    
C79   H19   S    
Cr2   O5    S    
C11   C19   S    
C20   C21   S    
Cr3   O4    S    
C93   O11   A    
C94   O15   A    
O27   H27   S    
C19   C21   S    
C42   H7    S    
C73   C90   A    
Cr4   O13   S    
Cr6   O17   S    
C5    C6    S    
Cr5   O16   S    
C86   C88   A    
C34   O25   A    
O33   H33   S    
Cr4   O19   S    
C65   C70   A    
C17   C20   S    
C23   O1    A    
C76   Cl4   S    
C18   C19   S    
Cr6   O10   S    
C69   C71   A    
C59   H13   S    
C35   O29   S    
C89   C92   S    
C26   H2    S    
C96   O13   A    
O32   H32   S    
C68   O33   S    
C44   C53   A    
C40   C43   A    
C91   O8    A    
O35   H35   S    
C16   C17   S    
C56   C72   S    
C74   C77   A    
C30   C36   S    
C1    C28   S    
C31   C33   S    
Cr1   O25   S    
C56   O24   A    
C58   C61   A    
Cr1   O12   S    
C55   C72   A    
C30   C33   S    
Cr4   O7    S    
C49   H9    S    
C25   C32   S    
C15   C23   S    
C2    C12   S    
C45   O2    A    
C8    C78   S    
C5    O35   S    
C29   Cl2   S    
C46   C54   A    
C85   H24   S    
C61   C62   A    
C67   C78   S    
C4    C7    S    
C92   O9    A    
C38   H6    S    
Cr4   O6    S    
C39   C42   A    
C43   O31   S    
C25   C29   S    
Cr3   O22   S    
C3    C67   S    
C16   O28   S    
C51   C52   A    
C94   O14   A    
C32   C35   S    
C12   O22   A    
C84   C85   A    
C93   O6    A    
C9    C89   T    
C5    C7    S    
Cr5   O9    S    
C86   C87   A    
C68   C69   A    
C57   C60   A    
C6    C8    S    
C25   C26   S    
C85   C86   A    
Cr3   O23   S    
C82   C83   A    
C7    H23   S    
C63   C64   A    
C51   C53   A    
C81   O34   S    
C75   C76   A    
C34   C90   S    
C4    C78   S    
C29   C30   S    
C77   H21   S    
Cr6   O19   S    
C11   C16   S    
C47   C48   A    
C38   C54   A    
C48   C52   A    
C29   C31   S    
Cr2   O2    S    
C50   C51   A    
C13   C21   S    
C60   H15   S    
C32   C37   S    
C76   C77   A    
C21   H26   S    
C56   O4    A    
C1    O12   A    
C81   C90   A    
C75   C87   A    
C15   C24   T    
C45   C54   S    
C45   O3    A    
C34   O26   A    
C82   C84   A    
C66   H17   S    
C62   C94   S    
C43   C44   A    
C50   O32   S    
O28   H28   S    
C31   H4    S    
C27   C93   S    
C80   C96   S    
C3    C4    S    
C2    C10   T    
C6    C67   S    
C18   O27   S    
O37   H37   S    
O30   H30   S    
Cr5   O8    S    
C23   O23   A    
C46   C47   A    
Cr5   O19   S    
C71   H16   S    
C78   H1    S    
C12   O21   A    
C73   H20   S    
C31   C32   S    
C58   C70   A    
C57   C65   A    
C3    C5    S    
C6    C10   S    
C26   C30   S    
C55   H12   S    
Cr3   O3    S    
C27   C36   T    
C96   O18   A    
C17   C22   S    
C13   C17   S    
O29   H29   S    
C14   C22   T    
C55   C57   A    
C19   C24   S    
C58   C59   A    
Cr1   O1    S    
C80   C88   A    
C44   C95   S    
C40   C52   A    
C64   C65   A    
C61   H11   S    
C63   H18   S    
Cr5   O15   S    
C67   H5    S    
C38   C39   A    
Cr2   O20   S    
C28   C37   T    
C84   H25   S    
C41   Cl3   S    
C13   Cl5   S    
C33   C35   S    
Cr1   O24   S    
C62   C71   A    
C33   O30   S    
C18   C20   S    
Cr6   O11   S    
C3    O36   S    
C69   C70   A    
C14   C91   S    
C8    H14   S    
C79   C80   A    
C26   C35   S    
C59   C60   A    
C91   O7    A    
C63   C72   A    
Cr3   O5    S    
C16   C18   S    
O36   H36   S    
C1    O20   A    
Cr4   O14   S    
C11   O37   S    
C4    C9    S    
C75   C79   A    
Cr6   O18   S    
C64   C66   A    
C39   C48   A    
Cr2   O21   S    
