data_mof_unit_64803.cif
_audit_creation_date              2012-12-10T16:58:14-0500
_audit_creation_method            fapswitch 2.2
_symmetry_space_group_name_H-M    P1
_symmetry_Int_Tables_number       1
_space_group_crystal_system       triclinic
_cell_length_a                    21.757045
_cell_length_b                    21.765802
_cell_length_c                    22.254105
_cell_angle_alpha                 60.489307
_cell_angle_beta                  119.817173
_cell_angle_gamma                 90.64292
_cell_volume                      7566.48269757

loop_
_atom_site_label
_atom_site_type_symbol
_atom_type_description
_atom_site_fract_x
_atom_site_fract_y
_atom_site_fract_z
_atom_type_partial_charge
C1    C     C_R   0.619620 0.499411 0.501918 0.857668
C2    C     C_3   0.292030 0.708633 0.082958 0.072800
C3    C     C_3   0.179875 0.781242 0.971927 -0.221766
C4    C     C_3   0.208376 0.792049 0.917064 0.116107
C5    C     C_3   0.251489 0.792767 0.028514 -0.165461
C6    C     C_3   0.279119 0.804393 0.972293 -0.199338
C7    C     C_1   0.337548 0.662547 0.174663 -0.028605
C8    C     C_1   0.162795 0.837585 0.825370 0.002447
C9    C     C_R   0.758246 0.380576 0.645935 -0.173800
C10   C     C_R   0.820695 0.316466 0.709925 0.308395
C11   C     C_R   0.874865 0.305502 0.697042 -0.272712
C12   C     C_R   0.419867 0.580036 0.339799 0.828322
C13   C     C_R   0.870272 0.358603 0.624485 0.247049
C14   C     C_R   0.813390 0.428319 0.565842 0.069833
C15   C     C_R   0.752905 0.435592 0.572534 -0.085280
C16   C     C_R   0.688368 0.497926 0.505684 -0.099964
C17   C     C_R   0.686926 0.556558 0.437894 0.405392
C18   C     C_R   0.750318 0.553088 0.436768 -0.313994
C19   C     C_R   0.813607 0.490472 0.500074 -0.137832
C20   C     C_3   0.707528 0.215268 0.029057 0.461641
C21   C     C_3   0.686694 0.300706 0.973580 -0.304146
C22   C     C_1   0.620833 0.375619 0.749711 -0.174956
C23   C     C_R   0.380395 0.500741 0.497940 0.788482
C24   C     C_1   0.874555 0.124823 0.250140 -0.145234
C25   C     C_3   0.722711 0.207655 0.972549 0.178936
C26   C     C_3   0.702367 0.292430 0.916714 0.042376
C27   C     C_3   0.805758 0.200097 0.026671 -0.343034
C28   C     C_3   0.789536 0.208659 0.083158 0.058699
C29   C     C_3   0.784348 0.285594 0.971295 0.436950
C30   C     C_3   0.770183 0.294257 0.028556 -0.238404
C31   C     C_1   0.656807 0.338265 0.825050 0.003252
C32   C     C_1   0.836255 0.162590 0.174773 0.030401
C33   C     C_R   0.242354 0.516717 0.358735 -0.315752
C34   C     C_R   0.578845 0.420028 0.660131 0.795900
C35   C     C_R   0.179778 0.514345 0.296530 0.278521
C36   C     C_R   0.123938 0.491904 0.309172 0.441030
C37   C     C_R   0.129633 0.475885 0.381342 0.353784
C38   C     C_R   0.187191 0.489825 0.437815 -0.164529
C39   C     C_R   0.247670 0.502523 0.430436 0.006253
C40   C     C_R   0.312219 0.501238 0.494832 -0.049663
C41   C     C_R   0.314750 0.493892 0.561722 -0.273733
C42   C     C_R   0.252956 0.489779 0.565538 0.250362
C43   C     C_R   0.187459 0.490325 0.501968 -0.130904
C44   C     C_R   0.998551 0.882536 0.497976 0.881407
C45   C     C_3   0.249128 0.708751 0.972214 0.408111
C46   C     C_R   0.080194 0.919832 0.660211 0.822486
C47   C     C_R   0.001251 0.117814 0.501604 0.848538
C48   C     C_R   0.919793 0.080016 0.339823 0.814245
C49   C     C_R   0.004252 0.619146 0.500323 0.886118
C50   C     C_R   0.880862 0.495586 0.499937 0.874849
C51   C     C_R   0.003778 0.381110 0.499883 0.835457
C52   C     C_R   0.119390 0.496765 0.500434 0.828700
C53   C     C_R   0.966407 0.889104 0.352763 -0.126520
C54   C     C_R   0.961728 0.891997 0.286854 -0.171602
C55   C     C_R   0.984186 0.826800 0.296148 -0.188465
C56   C     C_3   0.320522 0.719580 0.028109 -0.254291
C57   C     C_R   0.008594 0.757653 0.370328 0.297175
C58   C     C_R   0.002319 0.753504 0.433138 0.015807
C59   C     C_R   0.988391 0.820254 0.427141 -0.036923
C60   C     C_R   0.996541 0.817340 0.495347 -0.151344
C61   C     C_R   0.009093 0.751261 0.565276 0.342486
C62   C     C_R   0.014956 0.685204 0.568446 0.127794
C63   C     C_R   0.009777 0.686318 0.501503 -0.202374
C64   C     C_R   0.131708 0.119427 0.633215 -0.147460
C65   C     C_R   0.197205 0.122081 0.691169 -0.126970
C66   C     C_R   0.202395 0.188946 0.683524 -0.134200
C67   C     C_1   0.375065 0.624781 0.250062 -0.158938
C68   C     C_R   0.141252 0.252987 0.619669 -0.154456
C69   C     C_R   0.073072 0.251083 0.562131 0.092620
C70   C     C_R   0.069622 0.184196 0.566271 0.017325
C71   C     C_R   0.004110 0.183578 0.503922 -0.139559
C72   C     C_R   0.942420 0.247865 0.439258 0.398520
C73   C     C_R   0.945416 0.312759 0.437543 -0.281762
C74   C     C_R   0.008763 0.314290 0.499541 -0.141379
C75   C     C_1   0.125207 0.875104 0.749961 -0.147029
C76   C     C_3   0.221758 0.697594 0.026940 0.226313
Cu1   Cu    Cu3+1 0.500040 0.438210 0.499990 0.967613
Cu2   Cu    Cu3+1 0.499960 0.561790 0.500010 0.994295
Cu3   Cu    Cu3+1 0.061810 0.999860 0.500010 0.977574
Cu4   Cu    Cu3+1 0.938190 0.999990 0.499990 1.020716
Cu5   Cu    Cu3+1 0.958570 0.541460 0.417120 0.990213
Cu6   Cu    Cu3+1 0.041430 0.458560 0.582880 0.963911
H1    H     H_    0.377941 0.693743 0.051290 0.158602
H2    H     H_    0.919832 0.253478 0.742553 0.134613
H3    H     H_    0.750506 0.600126 0.386533 0.159721
H4    H     H_    0.637646 0.340901 0.951989 0.168226
H5    H     H_    0.791409 0.329756 0.052004 0.169436
H6    H     H_    0.854476 0.159852 0.047765 0.156248
H7    H     H_    0.365353 0.491682 0.611486 0.144377
H8    H     H_    0.286253 0.531172 0.349793 0.152572
H9    H     H_    0.951477 0.941293 0.344425 0.119728
H10   H     H_    0.944152 0.945110 0.229954 0.142180
H11   H     H_    0.986510 0.830003 0.247214 0.135441
H12   H     H_    0.302136 0.849462 0.948664 0.151954
H13   H     H_    0.130322 0.066128 0.641865 0.130806
H14   H     H_    0.244435 0.072204 0.741616 0.132708
H15   H     H_    0.253987 0.191210 0.727394 0.136208
H16   H     H_    0.148968 0.303847 0.615135 0.140305
H17   H     H_    0.896805 0.361684 0.389234 0.161952
H18   H     H_    0.253381 0.827199 0.052812 0.153075
H19   H     H_    0.122233 0.806498 0.948637 0.149140
H20   H     H_    0.714147 0.388239 0.653427 0.135378
O1    O     O_R   0.590210 0.447820 0.500000 -0.593333
O2    O     O_R   0.947780 0.909820 0.499990 -0.556979
O3    O     O_R   0.112650 0.939420 0.620930 -0.587938
O4    O     O_R   0.008260 0.939530 0.620910 -0.574543
O5    O     O_R   0.052220 0.090030 0.500010 -0.595345
O6    O     O_R   0.947830 0.090140 0.500000 -0.552579
O7    O     O_R   0.991740 0.060320 0.379090 -0.589351
O8    O     O_R   0.887350 0.060430 0.379070 -0.563242
O9    O     O_R   0.964960 0.625150 0.430050 -0.592275
O10   O     O_R   0.034940 0.555150 0.570020 -0.555108
O11   O     O_R   0.874830 0.535020 0.430000 -0.599055
O12   O     O_R   0.590150 0.552170 0.500020 -0.550047
O13   O     O_R   0.944810 0.465010 0.569970 -0.567848
O14   O     O_R   0.965060 0.444870 0.429980 -0.547109
O15   O     O_R   0.035040 0.374860 0.569950 -0.605449
O16   O     O_R   0.055190 0.535000 0.430030 -0.554776
O17   O     O_R   0.125170 0.465000 0.570000 -0.574941
O18   O     O_R   0.439580 0.508290 0.379070 -0.586216
O19   O     O_R   0.439510 0.612640 0.379090 -0.565893
O20   O     O_R   0.409850 0.447830 0.499980 -0.580057
O21   O     O_R   0.409790 0.552180 0.500000 -0.588781
O22   O     O_R   0.560490 0.387360 0.620910 -0.589992
O23   O     O_R   0.560420 0.491710 0.620930 -0.576180
O24   O     O_R   0.052170 0.909710 0.500000 -0.593272
N1    N     N_2   0.915128 0.335849 0.605221 -0.411956
H21   H     H_    0.967618 0.300284 0.657189 0.261076
C77   C     C_3   0.878156 0.306804 0.554824 -0.697403
H22   H     H_    0.919019 0.277905 0.554176 0.228141
H23   H     H_    0.833885 0.352768 0.489716 0.234241
H24   H     H_    0.853395 0.265370 0.581600 0.230330
O25   O     O_3   0.668012 0.176884 0.061153 -0.719784
H25   H     H_    0.617187 0.192431 0.011548 0.326070
O26   O     O_3   0.823681 0.324186 0.939055 -0.718206
H26   H     H_    0.874920 0.307657 0.988508 0.327074
N2    N     N_2   0.694852 0.162172 0.940853 -0.427643
H27   H     H_    0.696748 0.176251 0.890427 0.252338
C78   C     C_3   0.724490 0.083139 0.003725 -0.651353
H28   H     H_    0.695950 0.053650 0.974121 0.223985
H29   H     H_    0.714897 0.069637 0.052815 0.265459
H30   H     H_    0.785158 0.063317 0.032878 0.210009
O27   O     O_3   0.246430 0.665578 0.941321 -0.725774
H31   H     H_    0.278196 0.614685 0.991463 0.315536
O28   O     O_3   0.173651 0.530642 0.225021 -0.734379
H32   H     H_    0.217386 0.545198 0.226167 0.339485
O29   O     O_3   0.064106 0.481938 0.254110 -0.673026
H33   H     H_    0.066895 0.494296 0.206540 0.362617
O30   O     O_3   0.082209 0.439966 0.398283 -0.655116
H34   H     H_    0.110500 0.403510 0.459675 0.285821
N3    N     N_2   0.258545 0.482371 0.635554 -0.405107
H35   H     H_    0.310170 0.449493 0.690931 0.247242
C79   C     C_3   0.233791 0.551609 0.622927 -0.663990
H36   H     H_    0.266133 0.588918 0.606730 0.217138
H37   H     H_    0.242303 0.540404 0.681327 0.217574
H38   H     H_    0.173521 0.579305 0.572710 0.244169
O31   O     O_3   0.015789 0.754252 0.629056 -0.728246
H39   H     H_    0.022838 0.705311 0.674595 0.334143
N4    N     N_2   0.049093 0.695108 0.385580 -0.427682
H40   H     H_    0.020417 0.688091 0.337172 0.269574
C80   C     C_3   0.123665 0.695257 0.406689 -0.724754
H41   H     H_    0.153923 0.642814 0.423564 0.241703
H42   H     H_    0.154762 0.700499 0.460550 0.237752
H43   H     H_    0.121634 0.742044 0.352375 0.229187
N5    N     N_2   0.024042 0.617849 0.637501 -0.412347
H44   H     H_    0.986326 0.621127 0.651800 0.245942
C81   C     C_3   0.100295 0.577093 0.709721 -0.615909
H45   H     H_    0.122968 0.608392 0.738689 0.219307
H46   H     H_    0.136048 0.566543 0.691470 0.236530
H47   H     H_    0.102331 0.522786 0.756828 0.220855
O32   O     O_3   0.880028 0.245997 0.378104 -0.717448
H48   H     H_    0.841992 0.295660 0.337259 0.325339
N6    N     N_2   0.193103 0.637958 0.058950 -0.425331
H49   H     H_    0.232298 0.586306 0.099334 0.247883
C82   C     C_3   0.122076 0.641259 0.996705 -0.604027
H50   H     H_    0.103539 0.595317 0.028058 0.242074
H51   H     H_    0.126991 0.635407 0.952292 0.238235
H52   H     H_    0.079362 0.694597 0.961819 0.226493
O33   O     O_3   0.622937 0.616651 0.373607 -0.728196
H53   H     H_    0.631037 0.652611 0.330693 0.322935
N7    N     N_2   0.830192 0.260735 0.786679 -0.427072
H54   H     H_    0.859142 0.207101 0.814083 0.245716
C83   C     C_3   0.774347 0.268003 0.801918 -0.646521
H55   H     H_    0.793876 0.221691 0.866348 0.227610
H56   H     H_    0.721305 0.265997 0.756693 0.217097
H57   H     H_    0.765894 0.320738 0.797213 0.267741

loop_
_geom_bond_atom_site_label_1
_geom_bond_atom_site_label_2
_ccdc_geom_bond_type
C66   C68   A    
C21   C26   S    
N5    H44   S    
C49   C63   S    
C27   C29   S    
C11   C13   A    
C41   C42   A    
C41   H7    S    
C2    C7    S    
C51   C74   S    
C4    C8    S    
Cu1   O18   S    
N1    C77   S    
C80   H41   S    
C53   C59   A    
O26   H26   S    
C81   H46   S    
N6    H49   S    
N2    C78   S    
C44   O24   A    
C33   C39   A    
C27   H6    S    
Cu4   O2    S    
C45   C76   S    
C66   H15   S    
C36   C37   A    
C48   O8    A    
C37   C38   A    
Cu6   O13   S    
C18   C19   A    
C69   C70   A    
C83   H56   S    
C35   O28   S    
C5    C6    S    
C78   H30   S    
C43   C52   S    
C20   C25   S    
C23   C40   S    
C46   O3    A    
Cu4   O4    S    
Cu3   O3    S    
C50   O13   A    
C73   C74   A    
Cu2   O19   S    
Cu1   O20   S    
C51   O15   A    
C12   O18   A    
O31   H39   S    
C12   O19   A    
O29   H33   S    
C45   C56   S    
C16   C17   A    
C6    H12   S    
C53   H9    S    
N3    H35   S    
N4    C80   S    
C70   C71   A    
C64   C70   A    
C20   O25   S    
C81   H47   S    
C9    C10   A    
C1    O1    A    
C55   H11   S    
C49   O9    A    
C77   H24   S    
C3    H19   S    
N6    C82   S    
C48   O7    A    
C57   N4    S    
C59   C60   A    
N5    C81   S    
C13   C14   A    
Cu2   O12   S    
Cu6   O17   S    
C46   C75   S    
C80   H42   S    
O28   H32   S    
C23   O20   A    
C4    C45   S    
N7    C83   S    
C44   O2    A    
C22   C34   S    
C12   C67   S    
C18   H3    S    
C22   C31   T    
Cu3   O7    S    
C82   H50   S    
C24   C48   S    
C72   O32   S    
Cu5   O9    S    
C28   C32   S    
C4    C6    S    
C83   H57   S    
C6    C56   S    
C39   C40   A    
C82   H52   S    
C9    H20   S    
C23   O21   A    
C20   C28   S    
C25   C26   S    
Cu1   Cu2   S    
Cu5   O16   S    
C8    C75   T    
Cu5   Cu6   S    
C3    C4    S    
Cu3   Cu4   S    
C60   C61   A    
C35   C36   A    
Cu6   O10   S    
N7    H54   S    
C25   N2    S    
C83   H55   S    
C24   C32   T    
C54   H10   S    
C29   C30   S    
C42   N3    S    
C61   O31   S    
C36   O29   S    
N4    H40   S    
C5    H18   S    
C62   C63   A    
C17   C18   A    
Cu3   O5    S    
C69   C74   A    
C1    C16   S    
C79   H38   S    
Cu2   O21   S    
O32   H48   S    
C47   C71   S    
C49   O10   A    
C40   C41   A    
C29   O26   S    
Cu3   O24   S    
C65   C66   A    
C82   H51   S    
C47   O5    A    
C55   C57   A    
O25   H25   S    
Cu1   O1    S    
C2    C5    S    
C79   H37   S    
C42   C43   A    
Cu5   O11   S    
N1    H21   S    
C81   H45   S    
C80   H43   S    
C2    C76   S    
C65   H14   S    
C56   H1    S    
C77   H22   S    
C21   C30   S    
C58   C63   A    
C73   H17   S    
C54   C55   A    
C76   N6    S    
C34   O22   A    
C14   C19   A    
C68   C69   A    
C64   H13   S    
C37   O30   S    
C72   C73   A    
C3    C5    S    
C21   H4    S    
C78   H28   S    
C53   C54   A    
C11   H2    S    
C25   C27   S    
N2    H27   S    
Cu4   O6    S    
C51   O14   A    
C50   O11   A    
C64   C65   A    
C28   C30   S    
O27   H31   S    
C58   C59   A    
C38   C43   A    
Cu1   O22   S    
C2    C56   S    
C33   H8    S    
C78   H29   S    
C19   C50   S    
C17   O33   S    
C57   C58   A    
C38   C39   A    
C44   C60   S    
C34   O23   A    
C46   O4    A    
Cu5   O14   S    
C33   C35   A    
N3    C79   S    
C9    C15   A    
C61   C62   A    
C68   H16   S    
C10   C11   A    
C7    C67   T    
O33   H53   S    
C13   N1    S    
C52   O17   A    
C26   C31   S    
C62   N5    S    
C71   C72   A    
C20   C21   S    
C26   C29   S    
C47   O6    A    
C1    O12   A    
Cu4   O8    S    
C27   C28   S    
C45   O27   S    
C10   N7    S    
C3    C76   S    
C14   C15   A    
Cu6   O15   S    
C77   H23   S    
C30   H5    S    
O30   H34   S    
Cu2   O23   S    
C15   C16   A    
C79   H36   S    
C52   O16   A    
