data_mof_unit_9925.cif
_audit_creation_date              2012-12-11T14:21:12-0500
_audit_creation_method            fapswitch 2.2
_symmetry_space_group_name_H-M    P1
_symmetry_Int_Tables_number       1
_space_group_crystal_system       triclinic
_cell_length_a                    11.473416
_cell_length_b                    11.642172
_cell_length_c                    19.525084
_cell_angle_alpha                 90.737492
_cell_angle_beta                  89.928606
_cell_angle_gamma                 59.555138
_cell_volume                      2248.18659389

loop_
_atom_site_label
_atom_site_type_symbol
_atom_type_description
_atom_site_fract_x
_atom_site_fract_y
_atom_site_fract_z
_atom_type_partial_charge
C1    C     C_R   0.640891 0.117479 0.599147 0.558448
C2    C     C_1   0.653225 0.149974 0.668533 0.001768
C3    C     C_R   0.691864 0.583195 0.205270 0.002346
C4    C     C_R   0.614197 0.743523 0.597981 0.544053
C5    C     C_R   0.615254 0.550652 0.250883 0.004298
C6    C     C_R   0.621522 0.571717 0.321665 0.027656
C7    C     C_R   0.730599 0.698522 0.296032 -0.150427
C8    C     C_R   0.748137 0.657326 0.229115 -0.133487
C9    C     C_R   0.523034 0.510432 0.229583 -0.107592
C10   C     C_R   0.448045 0.485720 0.277469 -0.128064
C11   C     C_R   0.474821 0.483445 0.346749 -0.107662
C12   C     C_1   0.652226 0.684000 0.664111 -0.000251
C13   C     C_R   0.563463 0.523765 0.368980 -0.082891
C14   C     C_R   0.670597 0.654914 0.342815 0.005453
C15   C     C_R   0.143005 0.212315 0.194180 -0.012008
C16   C     C_R   0.240816 0.145626 0.598027 0.543952
C17   C     C_R   0.110583 0.319942 0.241193 0.027291
C18   C     C_R   0.108611 0.297337 0.311601 0.025359
C19   C     C_R   0.234082 0.058746 0.287419 -0.157820
C20   C     C_R   0.211808 0.082398 0.217688 -0.187955
C21   C     C_R   0.087795 0.446923 0.221868 -0.107731
C22   C     C_R   0.050869 0.548796 0.270007 -0.154885
C23   C     C_1   0.126840 0.198685 0.859304 0.003389
C24   C     C_R   0.027390 0.530691 0.337636 -0.114891
C25   C     C_R   0.050718 0.407105 0.357921 -0.074745
C26   C     C_R   0.180111 0.165281 0.334846 0.001919
C27   C     C_R   0.681588 0.178930 0.196706 0.030639
C28   C     C_R   0.618803 0.075291 0.394811 0.557947
C29   C     C_R   0.793087 0.092817 0.239044 -0.001729
C30   C     C_R   0.771940 0.028510 0.293326 0.029618
C31   C     C_R   0.529135 0.172747 0.280378 -0.149661
C32   C     C_R   0.551136 0.205798 0.214514 0.105288
C33   C     C_R   0.927541 0.061582 0.226416 -0.073843
C34   C     C_1   0.170671 0.171205 0.727580 -0.030590
C35   C     C_R   0.036874 0.944956 0.250984 -0.108507
C36   C     C_R   0.015711 0.868914 0.296887 -0.140287
C37   C     C_R   0.885393 0.909963 0.318463 -0.086808
C38   C     C_R   0.639421 0.089588 0.321680 -0.030180
C39   C     C_R   0.081773 0.231157 0.928686 0.536562
C40   C     C_R   0.621656 0.731821 0.405425 0.523099
C41   C     C_R   0.709606 0.546076 0.922348 0.560918
C42   C     C_R   0.707656 0.206709 0.930242 0.540706
C43   C     C_R   0.083787 0.238312 0.125397 0.517449
C44   C     C_R   0.709321 0.547996 0.132904 0.553778
C45   C     C_1   0.149918 0.182560 0.798844 -0.030612
C46   C     C_R   0.711582 0.213072 0.129125 0.539778
C47   C     C_R   0.241865 0.140949 0.402256 0.521570
C48   C     C_1   0.699244 0.581330 0.851565 0.000069
C49   C     C_1   0.673575 0.645507 0.722262 -0.029292
C50   C     C_1   0.689633 0.609350 0.791818 -0.030430
C51   C     C_3   0.443943 0.178074 0.114668 -0.277736
C52   C     C_1   0.194398 0.161996 0.667196 0.004664
C53   C     C_1   0.677908 0.191510 0.860857 0.000819
C54   C     C_1   0.658468 0.167650 0.728987 -0.031049
C55   C     C_1   0.665192 0.181292 0.800349 -0.030957
Cr1   Cr    Cr6+3 0.404720 0.198220 0.499960 1.014642
Cr2   Cr    Cr6+3 0.698290 0.897110 0.500380 1.008227
Cr3   Cr    Cr6+3 0.396970 0.904720 0.499610 1.023321
Cr4   Cr    Cr6+3 0.926180 0.151990 0.028120 1.015147
Cr5   Cr    Cr6+3 0.921330 0.451820 0.027470 1.015983
Cr6   Cr    Cr6+3 0.626260 0.446870 0.028710 1.017396
H1    H     H_    0.757400 0.771220 0.310128 0.119337
H2    H     H_    0.498687 0.506181 0.177033 0.181390
H3    H     H_    0.797592 0.692586 0.195085 0.146576
H4    H     H_    0.370070 0.466076 0.260891 0.122892
H5    H     H_    0.422157 0.456538 0.383398 0.133874
H6    H     H_    0.578746 0.526483 0.423568 0.126394
H7    H     H_    0.296273 0.956891 0.304107 0.148017
H8    H     H_    0.109111 0.468312 0.171436 0.151319
H9    H     H_    0.248288 0.999461 0.181716 0.124655
H10   H     H_    0.349378 0.319561 0.190737 0.242273
H11   H     H_    0.538952 0.133622 0.084083 0.165961
H12   H     H_    0.035702 0.643348 0.253580 0.113368
H13   H     H_    0.357966 0.234459 0.079479 0.155512
H14   H     H_    0.433609 0.097086 0.138043 0.143458
H15   H     H_    0.992898 0.611533 0.374647 0.107010
H16   H     H_    0.033026 0.395172 0.411172 0.125169
H17   H     H_    0.426942 0.208797 0.298607 0.132935
H18   H     H_    0.948271 0.124711 0.195862 0.161042
H19   H     H_    0.138357 0.909847 0.233514 0.117760
H20   H     H_    0.100649 0.778720 0.316510 0.110656
H21   H     H_    0.877718 0.844126 0.353806 0.135779
N1    N     N_2   0.442627 0.267230 0.167403 -0.520706
O1    O     O_R   0.267740 0.231960 0.575440 -0.507522
O2    O     O_R   0.596130 0.579390 0.952730 -0.492542
O3    O     O_R   0.639060 0.321160 0.958670 -0.508505
O4    O     O_R   0.527280 0.186640 0.570530 -0.488645
O5    O     O_R   0.821240 0.124200 0.104370 -0.528383
O6    O     O_R   0.036890 0.167040 0.097840 -0.513009
O7    O     O_R   0.056180 0.349610 0.102880 -0.539386
O8    O     O_R   0.797660 0.564870 0.097950 -0.492611
O9    O     O_R   0.595880 0.584250 0.104270 -0.525675
O10   O     O_R   0.638830 0.325670 0.099150 -0.507644
O11   O     O_3   0.824590 0.350230 0.028100 -0.295063
O12   O     O_R   0.685970 0.784660 0.430010 -0.535856
O13   O     O_R   0.728090 0.003450 0.576380 -0.498964
O14   O     O_R   0.682970 0.789190 0.570490 -0.494809
O15   O     O_R   0.499290 0.771880 0.575530 -0.505756
O16   O     O_R   0.285330 0.030870 0.569730 -0.488951
O17   O     O_R   0.270980 0.227080 0.423890 -0.533828
O18   O     O_R   0.530280 0.182120 0.430050 -0.494664
O19   O     O_R   0.731330 0.998570 0.424830 -0.523076
O20   O     O_R   0.502530 0.767000 0.423990 -0.518007
O21   O     O_R   0.288330 0.026350 0.429250 -0.497393
O22   O     O_3   0.499990 0.000020 0.499980 -0.268829
O23   O     O_R   0.821500 0.119340 0.952830 -0.496934
O24   O     O_R   0.037130 0.162530 0.957360 -0.489065
O25   O     O_R   0.056440 0.344740 0.951340 -0.512675
O26   O     O_R   0.797900 0.560360 0.957470 -0.478336

loop_
_geom_bond_atom_site_label_1
_geom_bond_atom_site_label_2
_ccdc_geom_bond_type
C1    O4    A    
Cr2   O22   S    
C23   C45   T    
C4    O15   A    
C27   C29   A    
C19   C20   A    
Cr3   O15   S    
C51   H13   S    
C12   C49   T    
C7    C8    A    
C39   O24   A    
Cr2   O19   S    
C43   O6    A    
C25   H16   S    
C36   C37   A    
C51   H14   S    
Cr1   O18   S    
C42   C53   S    
C5    C6    A    
Cr6   O10   S    
C10   H4    S    
C29   C33   A    
C35   H19   S    
C16   O1    A    
C30   C38   A    
C1    C2    S    
Cr4   O6    S    
C19   C26   A    
Cr4   O5    S    
Cr5   O26   S    
C28   O18   A    
C7    C14   A    
C35   C36   A    
Cr2   O13   S    
C18   C26   A    
C42   O3    A    
Cr4   O11   S    
C4    C12   S    
C9    C10   A    
C46   O5    A    
Cr5   O25   S    
C11   H5    S    
C48   C50   T    
C41   O26   A    
C21   C22   A    
C20   H9    S    
C15   C20   A    
C18   C25   A    
Cr1   O1    S    
H10   N1    S    
C53   C55   T    
C39   O25   A    
C3    C44   S    
C43   O7    A    
Cr6   O3    S    
Cr4   O23   S    
C24   C25   A    
C3    C8    A    
C2    C54   T    
Cr6   O11   S    
C24   H15   S    
Cr1   O4    S    
Cr4   O24   S    
C47   O17   A    
C30   C37   A    
C21   H8    S    
C7    H1    S    
C5    C9    A    
C29   C30   A    
C6    C14   A    
C31   C32   A    
C28   C38   S    
C36   H20   S    
Cr2   O14   S    
C17   C18   A    
C19   H7    S    
C34   C45   S    
C42   O23   A    
C44   O8    A    
Cr6   O2    S    
C26   C47   S    
C8    H3    S    
C27   C46   S    
C22   C24   A    
C37   H21   S    
Cr3   O21   S    
C51   H11   S    
Cr1   O17   S    
C40   O12   A    
C51   N1    S    
C31   H17   S    
C13   H6    S    
Cr5   O8    S    
C15   C17   A    
C32   N1    S    
C54   C55   S    
C47   O21   A    
C27   C32   A    
C9    H2    S    
C33   H18   S    
Cr3   O16   S    
C16   C52   S    
C3    C5    A    
C44   O9    A    
Cr6   O9    S    
C16   O16   A    
Cr5   O7    S    
C41   O2    A    
C34   C52   T    
C31   C38   A    
Cr3   O22   S    
C15   C43   S    
C6    C13   A    
C11   C13   A    
C46   O10   A    
C1    O13   A    
C23   C39   S    
C33   C35   A    
C41   C48   S    
C17   C21   A    
Cr1   O22   S    
C10   C11   A    
C14   C40   S    
C28   O19   A    
C49   C50   S    
Cr2   O12   S    
Cr3   O20   S    
C22   H12   S    
C4    O14   A    
C40   O20   A    
Cr5   O11   S    
