data_mof_unit_8561.cif
_audit_creation_date              2012-12-11T14:38:28-0500
_audit_creation_method            fapswitch 2.2
_symmetry_space_group_name_H-M    P1
_symmetry_Int_Tables_number       1
_space_group_crystal_system       triclinic
_cell_length_a                    19.540728
_cell_length_b                    11.210158
_cell_length_c                    19.593965
_cell_angle_alpha                 90.066995
_cell_angle_beta                  96.723375
_cell_angle_gamma                 90.319478
_cell_volume                      4262.55842884

loop_
_atom_site_label
_atom_site_type_symbol
_atom_type_description
_atom_site_fract_x
_atom_site_fract_y
_atom_site_fract_z
_atom_type_partial_charge
C1    C     C_R   0.723846 0.955403 0.360358 0.562698
C2    C     C_3   0.177555 0.444988 0.468981 -0.246658
C3    C     C_R   0.657191 0.086676 0.713647 -0.084429
C4    C     C_R   0.621837 0.119550 0.650639 -0.111814
C5    C     C_R   0.655824 0.178975 0.601293 -0.121674
C6    C     C_R   0.269158 0.216527 0.370149 -0.001698
C7    C     C_R   0.220439 0.167061 0.318581 -0.060317
C8    C     C_R   0.239910 0.129719 0.255790 -0.064320
C9    C     C_R   0.308425 0.138613 0.243475 -0.101064
C10   C     C_R   0.357399 0.184948 0.294106 -0.103750
C11   C     C_R   0.338231 0.222894 0.357295 -0.097426
C12   C     C_R   0.226917 0.702168 0.614051 0.001996
C13   C     C_3   0.313177 0.963532 0.529320 -0.243102
C14   C     C_R   0.262039 0.666715 0.677961 -0.076132
C15   C     C_R   0.227247 0.611061 0.727434 -0.074969
C16   C     C_R   0.157159 0.586645 0.713622 -0.084411
C17   C     C_R   0.121818 0.619501 0.650604 -0.111810
C18   C     C_R   0.155812 0.678948 0.601271 -0.121668
C19   C     C_R   0.769135 0.716525 0.370148 -0.001694
C20   C     C_R   0.720409 0.667080 0.318579 -0.060311
C21   C     C_R   0.739878 0.629706 0.255794 -0.064316
C22   C     C_R   0.808397 0.638538 0.243487 -0.101036
C23   C     C_R   0.857378 0.684855 0.294118 -0.103744
C24   C     C_3   0.677555 0.945004 0.468986 -0.246662
C25   C     C_R   0.838211 0.722844 0.357300 -0.097451
C26   C     C_3   0.767041 0.274017 0.565473 -0.108785
C27   C     C_3   0.242280 0.274170 0.432959 -0.112074
C28   C     C_3   0.267032 0.774015 0.565475 -0.108795
C29   C     C_3   0.742266 0.774176 0.432960 -0.112071
C30   C     C_3   0.757193 0.409298 0.571164 0.073562
C31   C     C_3   0.239998 0.411880 0.429532 0.076030
C32   C     C_3   0.257191 0.909297 0.571164 0.073556
C33   C     C_R   0.274156 0.951174 0.641225 0.546288
C34   C     C_3   0.739995 0.911887 0.429533 0.076029
C35   C     C_3   0.734400 0.352469 0.441428 0.034874
C36   C     C_3   0.265098 0.349639 0.557747 0.037251
C37   C     C_3   0.234397 0.852469 0.441428 0.034875
C38   C     C_3   0.765096 0.849643 0.557747 0.037253
C39   C     C_3   0.789656 0.452160 0.452829 -0.238202
C40   C     C_3   0.190627 0.399004 0.541528 -0.228212
C41   C     C_3   0.289652 0.952164 0.452829 -0.238203
C42   C     C_3   0.690628 0.899024 0.541533 -0.228204
C43   C     C_3   0.759477 0.244749 0.487516 -0.244317
C44   C     C_R   0.223848 0.455397 0.360356 0.562699
C45   C     C_3   0.273888 0.243135 0.507403 -0.270517
C46   C     C_3   0.259472 0.744749 0.487517 -0.244315
C47   C     C_3   0.773877 0.743137 0.507402 -0.270520
C48   C     C_3   0.555191 0.235314 0.952909 -0.250546
C49   C     C_3   0.571936 0.236649 0.031095 -0.216343
C50   C     C_3   0.928017 0.736248 0.969181 -0.217537
C51   C     C_3   0.944733 0.734460 0.047378 -0.250420
C52   C     C_3   0.428079 0.236620 0.969191 -0.217551
C53   C     C_3   0.508405 0.041333 0.039112 -0.235348
C54   C     C_3   0.990842 0.541530 0.960600 -0.235405
C55   C     C_R   0.774156 0.451173 0.641226 0.546298
C56   C     C_3   0.071899 0.736953 0.031086 -0.216391
C57   C     C_3   0.490543 0.041533 0.960651 -0.235307
C58   C     C_3   0.444768 0.234760 0.047390 -0.250412
C59   C     C_3   0.055135 0.735681 0.952902 -0.250493
C60   C     C_3   0.008665 0.541338 0.039065 -0.235271
C61   C     C_R   0.537560 0.180395 0.339305 0.514258
C62   C     C_R   0.436591 0.183540 0.652393 0.526067
C63   C     C_R   0.037559 0.680396 0.339305 0.514269
C64   C     C_R   0.936590 0.683541 0.652393 0.526082
C65   C     C_3   0.485390 0.172272 0.933877 0.052376
C66   C     C_3   0.666959 0.399524 0.465712 -0.244403
C67   C     C_3   0.514266 0.171902 0.066237 0.055775
C68   C     C_3   0.985447 0.672269 0.933856 0.052428
C69   C     C_3   0.014323 0.671905 0.066216 0.055735
C70   C     C_1   0.762066 0.427541 0.904337 -0.015141
C71   C     C_1   0.238069 0.426759 0.095859 -0.017212
C72   C     C_1   0.262067 0.927543 0.904338 -0.015169
C73   C     C_1   0.738069 0.926758 0.095859 -0.017182
C74   C     C_1   0.748121 0.406627 0.034633 -0.056513
C75   C     C_1   0.252301 0.406067 0.965643 -0.054666
C76   C     C_1   0.248123 0.906631 0.034634 -0.056527
C77   C     C_3   0.316979 0.447002 0.541648 -0.243913
C78   C     C_1   0.752302 0.906064 0.965644 -0.054657
C79   C     C_1   0.754010 0.416237 0.963921 -0.052667
C80   C     C_1   0.246271 0.415433 0.036323 -0.053784
C81   C     C_1   0.254012 0.916240 0.963922 -0.052688
C82   C     C_1   0.746272 0.915430 0.036324 -0.053764
C83   C     C_1   0.743552 0.392048 0.094742 -0.029398
C84   C     C_1   0.256858 0.391802 0.905505 -0.026921
C85   C     C_1   0.243553 0.892052 0.094743 -0.029408
C86   C     C_1   0.756859 0.891799 0.905506 -0.026912
C87   C     C_R   0.725487 0.315385 0.367947 0.555259
C88   C     C_3   0.166957 0.899527 0.465711 -0.244402
C89   C     C_R   0.274847 0.313247 0.631766 0.540339
C90   C     C_R   0.225487 0.815385 0.367947 0.555260
C91   C     C_R   0.774846 0.813249 0.631766 0.540335
C92   C     C_R   0.722358 0.953845 0.163543 0.548154
C93   C     C_R   0.277730 0.954302 0.836560 0.543716
C94   C     C_R   0.222358 0.453845 0.163543 0.548141
C95   C     C_R   0.777730 0.454301 0.836560 0.543735
C96   C     C_R   0.534198 0.178947 0.140281 0.537044
C97   C     C_R   0.465548 0.179284 0.859823 0.546642
C98   C     C_R   0.034233 0.678950 0.140265 0.537091
C99   C     C_3   0.816984 0.946993 0.541646 -0.243919
C100  C     C_R   0.965584 0.679281 0.859807 0.546613
C101  C     C_R   0.736023 0.357739 0.163688 0.540539
C102  C     C_R   0.264120 0.357796 0.836451 0.535204
C103  C     C_R   0.236023 0.857741 0.163688 0.540537
C104  C     C_R   0.764120 0.857795 0.836451 0.535207
C105  C     C_1   0.455245 0.176896 0.583983 -0.056149
C106  C     C_1   0.509809 0.172198 0.403527 -0.040374
C107  C     C_1   0.955240 0.676899 0.583981 -0.056141
C108  C     C_1   0.009806 0.672199 0.403526 -0.040390
C109  C     C_1   0.490999 0.169774 0.459821 -0.076241
C110  C     C_3   0.813177 0.463540 0.529321 -0.243105
C111  C     C_1   0.471157 0.172238 0.526549 -0.081871
C112  C     C_1   0.990994 0.669777 0.459819 -0.076251
C113  C     C_1   0.971150 0.672242 0.526547 -0.081879
C114  C     C_3   0.681866 0.442760 0.540639 -0.234034
C115  C     C_3   0.310362 0.463742 0.463878 -0.241585
C116  C     C_3   0.181864 0.942761 0.540639 -0.234034
C117  C     C_3   0.810365 0.963733 0.463876 -0.241589
C118  C     C_R   0.726934 0.202162 0.614053 0.001995
C119  C     C_R   0.762070 0.166685 0.677953 -0.076118
C120  C     C_R   0.727286 0.111047 0.727436 -0.074948
Cr1   Cr    Cr6+3 0.765780 0.160710 0.267420 1.014047
Cr2   Cr    Cr6+3 0.383970 0.323720 0.751490 0.998499
Cr3   Cr    Cr6+3 0.116030 0.823720 0.248510 0.990077
Cr4   Cr    Cr6+3 0.883970 0.823720 0.751490 0.998489
Cr5   Cr    Cr6+3 0.234220 0.160710 0.732580 1.008304
Cr6   Cr    Cr6+3 0.265780 0.660710 0.267420 1.014038
Cr7   Cr    Cr6+3 0.734220 0.660710 0.732580 1.008317
Cr8   Cr    Cr6+3 0.612200 0.009560 0.248850 1.000353
Cr9   Cr    Cr6+3 0.387800 0.009560 0.751150 0.992853
Cr10  Cr    Cr6+3 0.112200 0.509560 0.248850 1.000356
Cr11  Cr    Cr6+3 0.887800 0.509560 0.751150 0.992848
Cr12  Cr    Cr6+3 0.616030 0.323720 0.248510 0.990068
H1    H     H_    0.672408 0.539575 0.542737 0.119089
H2    H     H_    0.129503 0.400540 0.444790 0.133198
H3    H     H_    0.362782 0.914527 0.539703 0.130617
H4    H     H_    0.629500 0.900560 0.444796 0.133191
H5    H     H_    0.835321 0.436774 0.425057 0.156916
H6    H     H_    0.151946 0.327392 0.547542 0.137190
H7    H     H_    0.335314 0.936791 0.425052 0.156920
H8    H     H_    0.651943 0.827420 0.547550 0.137202
H9    H     H_    0.553585 0.328655 0.933441 0.141919
H10   H     H_    0.622464 0.192415 0.045559 0.120773
H11   H     H_    0.877321 0.691652 0.954512 0.120468
H12   H     H_    0.319898 0.555245 0.450129 0.126296
H13   H     H_    0.946660 0.827688 0.067210 0.141272
H14   H     H_    0.596438 0.187906 0.929198 0.114581
H15   H     H_    0.577720 0.331222 0.048349 0.149882
H16   H     H_    0.922637 0.830867 0.952261 0.149159
H17   H     H_    0.903285 0.686523 0.070886 0.110131
H18   H     H_    0.422903 0.331269 0.952282 0.149188
H19   H     H_    0.558052 0.993702 0.052247 0.149566
H20   H     H_    0.941029 0.493473 0.947282 0.150207
H21   H     H_    0.077566 0.831521 0.048373 0.149908
H22   H     H_    0.446817 0.327982 0.067233 0.141332
H23   H     H_    0.172407 0.039576 0.542739 0.119091
H24   H     H_    0.530721 0.992450 0.936267 0.125885
H25   H     H_    0.968262 0.491835 0.063263 0.125972
H26   H     H_    0.053348 0.829054 0.933482 0.142001
H27   H     H_    0.440630 0.993769 0.947364 0.150152
H28   H     H_    0.403244 0.187000 0.070876 0.110135
H29   H     H_    0.096467 0.688576 0.929156 0.114573
H30   H     H_    0.058379 0.493917 0.052218 0.149536
H31   H     H_    0.467946 0.992034 0.063341 0.125883
H32   H     H_    0.377295 0.192338 0.954502 0.120463
H33   H     H_    0.122486 0.692900 0.045521 0.120766
H34   H     H_    0.819908 0.055235 0.450128 0.126295
H35   H     H_    0.031134 0.492735 0.936223 0.125774
H36   H     H_    0.643608 0.404245 0.571993 0.133524
H37   H     H_    0.353735 0.417911 0.444142 0.117183
H38   H     H_    0.143607 0.904238 0.571992 0.133540
H39   H     H_    0.853731 0.917886 0.444137 0.117194
H40   H     H_    0.627031 0.328217 0.461193 0.120696
H41   H     H_    0.370721 0.420381 0.560322 0.133487
H42   H     H_    0.127027 0.828225 0.461190 0.120700
H43   H     H_    0.870724 0.920363 0.560319 0.133485
H44   H     H_    0.646080 0.475217 0.433096 0.132532
H45   H     H_    0.812186 0.227447 0.474664 0.117468
H46   H     H_    0.306566 0.531822 0.567188 0.142323
H47   H     H_    0.146081 0.975224 0.433097 0.132523
H48   H     H_    0.806577 0.031816 0.567187 0.142321
H49   H     H_    0.330328 0.052321 0.546376 0.099102
H50   H     H_    0.660140 0.037530 0.466831 0.099520
H51   H     H_    0.830320 0.552332 0.546376 0.099094
H52   H     H_    0.160142 0.537515 0.466827 0.099522
H53   H     H_    0.265705 0.034998 0.434449 0.147768
H54   H     H_    0.682354 0.969379 0.578137 0.167638
H55   H     H_    0.765712 0.534993 0.434442 0.147784
H56   H     H_    0.245857 0.167162 0.525301 0.109151
H57   H     H_    0.182346 0.469355 0.578131 0.167638
H58   H     H_    0.822107 0.253648 0.583315 0.111829
H59   H     H_    0.188487 0.239235 0.430780 0.110641
H60   H     H_    0.322097 0.753636 0.583322 0.111829
H61   H     H_    0.688472 0.739250 0.430785 0.110645
H62   H     H_    0.727155 0.168624 0.475295 0.108344
H63   H     H_    0.329395 0.224872 0.506860 0.117859
H64   H     H_    0.227152 0.668622 0.475294 0.108338
H65   H     H_    0.829384 0.724869 0.506853 0.117854
H66   H     H_    0.816634 0.184343 0.690433 0.119361
H67   H     H_    0.312183 0.727454 0.474669 0.117470
H68   H     H_    0.754861 0.087109 0.776522 0.116848
H69   H     H_    0.630387 0.041118 0.751430 0.121896
H70   H     H_    0.568769 0.094019 0.639421 0.144590
H71   H     H_    0.627274 0.200987 0.552527 0.113087
H72   H     H_    0.166389 0.161535 0.325716 0.102558
H73   H     H_    0.201393 0.096698 0.216092 0.126024
H74   H     H_    0.323479 0.110846 0.194464 0.101696
H75   H     H_    0.409951 0.193713 0.283280 0.128693
H76   H     H_    0.377119 0.258612 0.394962 0.112239
H77   H     H_    0.316597 0.684399 0.690457 0.119391
H78   H     H_    0.745846 0.667166 0.525300 0.109156
H79   H     H_    0.254811 0.587138 0.776527 0.116826
H80   H     H_    0.130352 0.541065 0.751394 0.121897
H81   H     H_    0.068759 0.593924 0.639366 0.144562
H82   H     H_    0.127272 0.700946 0.552496 0.113084
H83   H     H_    0.666357 0.661594 0.325711 0.102560
H84   H     H_    0.701357 0.596698 0.216095 0.126023
H85   H     H_    0.823451 0.610737 0.194482 0.101708
H86   H     H_    0.909935 0.693566 0.283300 0.128688
H87   H     H_    0.877101 0.758551 0.394968 0.112246
H88   H     H_    0.862786 0.414549 0.539708 0.130613
O1    O     O_R   0.783100 0.287550 0.345460 -0.525426
O2    O     O_R   0.454350 0.284910 0.836260 -0.519786
O3    O     O_R   0.045650 0.784910 0.163740 -0.525665
O4    O     O_R   0.954350 0.784910 0.836260 -0.519794
O5    O     O_R   0.677950 0.374280 0.185410 -0.507686
O6    O     O_R   0.322050 0.374280 0.814590 -0.502113
O7    O     O_R   0.177950 0.874280 0.185410 -0.507700
O8    O     O_R   0.822050 0.874280 0.814590 -0.502117
O9    O     O_3   0.664670 0.164660 0.254930 -0.272653
O10   O     O_3   0.335330 0.164660 0.745070 -0.287172
O11   O     O_3   0.164670 0.664660 0.254930 -0.272666
O12   O     O_R   0.216900 0.287550 0.654540 -0.524558
O13   O     O_3   0.835330 0.664660 0.745070 -0.287159
O14   O     O_R   0.760020 0.037400 0.337700 -0.527008
O15   O     O_R   0.239980 0.037400 0.662300 -0.525358
O16   O     O_R   0.260020 0.537400 0.337700 -0.527008
O17   O     O_R   0.739980 0.537400 0.662300 -0.525360
O18   O     O_R   0.666600 0.921990 0.332020 -0.532545
O19   O     O_R   0.333400 0.921990 0.667980 -0.541520
O20   O     O_R   0.166600 0.421990 0.332020 -0.532538
O21   O     O_R   0.833400 0.421990 0.667980 -0.541517
O22   O     O_R   0.557260 0.082670 0.312540 -0.498781
O23   O     O_R   0.283100 0.787550 0.345460 -0.525423
O24   O     O_R   0.442740 0.082670 0.687460 -0.499807
O25   O     O_R   0.057260 0.582670 0.312540 -0.498778
O26   O     O_R   0.942740 0.582670 0.687460 -0.499821
O27   O     O_R   0.548410 0.285740 0.316480 -0.523666
O28   O     O_R   0.451590 0.285740 0.683520 -0.508169
O29   O     O_R   0.048410 0.785740 0.316480 -0.523639
O30   O     O_R   0.951590 0.785740 0.683520 -0.508170
O31   O     O_R   0.680500 0.375040 0.327000 -0.504345
O32   O     O_R   0.319500 0.375040 0.673000 -0.510476
O33   O     O_R   0.180500 0.875040 0.327000 -0.504353
O34   O     O_R   0.716900 0.787550 0.654540 -0.524554
O35   O     O_R   0.819500 0.875040 0.673000 -0.510484
O36   O     O_R   0.780350 0.286720 0.192720 -0.500436
O37   O     O_R   0.219650 0.286720 0.807280 -0.504091
O38   O     O_R   0.280350 0.786720 0.192720 -0.500436
O39   O     O_R   0.719650 0.786720 0.807280 -0.504082
O40   O     O_R   0.757470 0.036630 0.196110 -0.492379
O41   O     O_R   0.242530 0.036630 0.803890 -0.490919
O42   O     O_R   0.257470 0.536630 0.196110 -0.492377
O43   O     O_R   0.742530 0.536630 0.803890 -0.490923
O44   O     O_R   0.663840 0.921160 0.179280 -0.516137
O45   O     O_R   0.554710 0.081900 0.170950 -0.508136
O46   O     O_R   0.336160 0.921160 0.820720 -0.517925
O47   O     O_R   0.163840 0.421160 0.179280 -0.516153
O48   O     O_R   0.836160 0.421160 0.820720 -0.517907
O49   O     O_R   0.445290 0.081900 0.829050 -0.504772
O50   O     O_R   0.054710 0.581900 0.170950 -0.508147
O51   O     O_R   0.945290 0.581900 0.829050 -0.504775
O52   O     O_R   0.545650 0.284910 0.163740 -0.525673

loop_
_geom_bond_atom_site_label_1
_geom_bond_atom_site_label_2
_ccdc_geom_bond_type
C36   C89   S    
C45   H63   S    
C114  H36   S    
C39   H5    S    
C98   O3    A    
Cr8   O9    S    
C89   O32   A    
Cr7   O34   S    
C84   C102  S    
C13   C32   S    
C19   C20   A    
C54   H35   S    
C115  H37   S    
Cr5   O12   S    
C86   C104  S    
Cr12  O9    S    
Cr10  O11   S    
C13   C41   S    
C26   H58   S    
C7    C8    A    
C71   C94   S    
C54   C60   S    
C24   C42   S    
Cr11  O13   S    
C87   O31   A    
C94   O47   A    
C28   C46   S    
C2    H2    S    
C37   C90   S    
C12   C28   S    
C43   H62   S    
C33   O19   A    
C87   O1    A    
C66   H40   S    
Cr11  O26   S    
C61   O22   A    
C38   C42   S    
C76   C81   S    
C36   C77   S    
C109  C111  S    
Cr8   O22   S    
Cr10  O50   S    
C59   H26   S    
C38   C99   S    
C75   C84   T    
Cr3   O7    S    
C51   H13   S    
C103  O7    A    
C15   C16   A    
Cr2   O6    S    
Cr5   O37   S    
C102  O6    A    
C88   H42   S    
C97   O2    A    
C49   H15   S    
Cr6   O42   S    
C101  O5    A    
C95   O48   A    
C117  H39   S    
C118  C119  A    
C107  C113  T    
C116  H23   S    
Cr4   O30   S    
C37   C88   S    
C92   O40   A    
C77   C115  S    
C35   C87   S    
C39   C110  S    
C40   H57   S    
Cr4   O4    S    
C41   H7    S    
C16   C17   A    
C48   H14   S    
C56   H33   S    
C26   C43   S    
C15   H79   S    
Cr8   O45   S    
C24   H50   S    
Cr1   O1    S    
C48   C65   S    
C110  H88   S    
C9    C10   A    
C1    O14   A    
C72   C81   T    
C85   C103  S    
C39   H55   S    
C69   C98   S    
C27   C45   S    
C34   C117  S    
C95   O43   A    
C55   O21   A    
C105  C111  T    
C23   H86   S    
C21   C22   A    
Cr9   O19   S    
C13   H3    S    
C91   O34   A    
C66   H44   S    
C18   H82   S    
C27   H59   S    
Cr4   O35   S    
C17   H81   S    
C44   O20   A    
C28   C32   S    
C31   C115  S    
C71   C80   T    
Cr4   O8    S    
Cr10  O25   S    
C1    C34   S    
C104  O8    A    
C93   O41   A    
C99   H43   S    
C63   O25   A    
C57   H24   S    
Cr7   O13   S    
Cr1   O9    S    
C31   C44   S    
Cr6   O38   S    
C27   C31   S    
C20   H83   S    
C36   C40   S    
C101  O36   A    
C60   H25   S    
C30   C110  S    
Cr5   O10   S    
Cr11  O21   S    
C57   C65   S    
C6    C11   A    
C62   C105  S    
C53   C57   S    
C53   H31   S    
C54   H20   S    
Cr11  O48   S    
Cr1   O40   S    
C35   C66   S    
C50   C51   S    
Cr3   O3    S    
C38   C91   S    
C24   C34   S    
C108  C112  T    
C40   H6    S    
C2    C31   S    
C104  O39   A    
C98   O50   A    
C88   C116  S    
C35   C39   S    
C10   H75   S    
C68   C100  S    
Cr12  O52   S    
C7    H72   S    
Cr5   O15   S    
Cr2   O10   S    
C59   C68   S    
C99   C117  S    
C78   C82   S    
C60   H30   S    
C6    C27   S    
Cr4   O13   S    
C49   C67   S    
C16   H80   S    
C117  H34   S    
C54   C68   S    
Cr10  O20   S    
C49   H10   S    
C74   C83   T    
C17   C18   A    
C8    C9    A    
C21   H84   S    
Cr3   O11   S    
C36   C45   S    
Cr12  O27   S    
Cr3   O29   S    
C2    H52   S    
C32   C116  S    
C46   H64   S    
C61   C106  S    
C38   C47   S    
C92   O44   A    
C52   C58   S    
C52   H32   S    
C64   O30   A    
C72   C93   S    
C56   H21   S    
C48   C49   S    
C94   O42   A    
C22   H85   S    
C29   C47   S    
C110  H51   S    
C26   C30   S    
C13   H49   S    
C74   C79   S    
Cr2   O2    S    
C67   C96   S    
C3    H69   S    
C103  O38   A    
Cr7   O39   S    
C83   C101  S    
C25   H87   S    
Cr7   O17   S    
C61   O27   A    
C11   H76   S    
Cr10  O47   S    
Cr1   O36   S    
Cr5   O41   S    
C3    C4    A    
C19   C29   S    
Cr11  O51   S    
C73   C82   T    
C41   H53   S    
Cr6   O16   S    
C50   H11   S    
C55   O17   A    
C64   C107  S    
Cr2   O28   S    
C23   C25   A    
C30   C114  S    
C50   H16   S    
C96   O45   A    
C115  H12   S    
C43   H45   S    
C77   H41   S    
C66   C114  S    
C14   H77   S    
C63   O29   A    
C70   C79   T    
C22   C23   A    
C90   O33   A    
C47   H65   S    
C26   C118  S    
C73   C92   S    
C12   C14   A    
C59   H29   S    
C29   C34   S    
C33   O15   A    
C24   H4    S    
C5    H71   S    
C119  C120  A    
C56   C59   S    
C45   H56   S    
C62   O24   A    
C6    C7    A    
C93   O46   A    
Cr9   O24   S    
C1    O18   A    
C96   O52   A    
C51   C69   S    
C30   C55   S    
C77   H46   S    
Cr1   O14   S    
C102  O37   A    
C5    C118  A    
C9    H74   S    
C10   C11   A    
C32   C33   S    
C42   H8    S    
C44   O16   A    
Cr6   O11   S    
C37   C46   S    
C35   C43   S    
C65   C97   S    
C99   H48   S    
C58   H28   S    
C4    H70   S    
C42   H54   S    
C78   C86   T    
C46   H67   S    
C91   O35   A    
C60   C69   S    
C29   H61   S    
Cr9   O10   S    
C120  H68   S    
C114  H1    S    
Cr7   O43   S    
C48   H9    S    
C70   C95   S    
C112  C113  S    
Cr8   O44   S    
C89   O12   A    
C37   C41   S    
C8    H73   S    
C53   C67   S    
Cr3   O33   S    
C119  H66   S    
Cr9   O49   S    
C3    C120  A    
Cr9   O46   S    
C19   C25   A    
Cr2   O32   S    
C2    C40   S    
C58   C67   S    
C4    C5    A    
C75   C80   S    
C64   O26   A    
C20   C21   A    
C51   H17   S    
Cr12  O5    S    
C52   H18   S    
C56   C69   S    
C62   O28   A    
C47   H78   S    
C12   C18   A    
Cr6   O23   S    
C97   O49   A    
C100  O4    A    
C14   C15   A    
C28   H60   S    
C88   H47   S    
C57   H27   S    
C58   H22   S    
C63   C108  S    
C90   O23   A    
C50   C68   S    
C76   C85   T    
C100  O51   A    
Cr8   O18   S    
C52   C65   S    
C116  H38   S    
Cr12  O31   S    
C53   H19   S    
C106  C109  T    
