data_mof_unit_65618.cif
_audit_creation_date              2012-12-10T18:15:24-0500
_audit_creation_method            fapswitch 2.2
_symmetry_space_group_name_H-M    P1
_symmetry_Int_Tables_number       1
_space_group_crystal_system       triclinic
_cell_length_a                    21.387777
_cell_length_b                    29.190895
_cell_length_c                    29.187787
_cell_angle_alpha                 90.00243
_cell_angle_beta                  89.990767
_cell_angle_gamma                 89.999911
_cell_volume                      18222.7627234

loop_
_atom_site_label
_atom_site_type_symbol
_atom_type_description
_atom_site_fract_x
_atom_site_fract_y
_atom_site_fract_z
_atom_type_partial_charge
C1    C     C_R   1.000000 0.999994 0.086739 0.898368
C2    C     C_1   0.999989 0.999970 0.770577 0.002581
C3    C     C_3   0.310523 0.499684 0.499988 -0.122638
C4    C     C_1   0.000004 0.999994 0.137405 -0.235465
C5    C     C_1   0.999996 0.999989 0.862595 -0.235238
C6    C     C_1   0.500009 0.499994 0.637405 -0.235299
C7    C     C_1   0.499991 0.499989 0.362595 -0.235402
C8    C     C_3   0.247015 0.941117 0.104870 0.108182
C9    C     C_3   0.275447 0.917956 0.146617 -0.799281
C10   C     C_3   0.752913 0.938228 0.896793 0.108446
C11   C     C_3   0.724442 0.913910 0.855722 -0.799497
C12   C     C_3   0.752929 0.940866 0.104715 0.108205
C13   C     C_1   0.500018 0.499975 0.729423 0.002546
C14   C     C_3   0.724475 0.917610 0.146408 -0.799294
C15   C     C_3   0.247143 0.937984 0.896955 0.108464
C16   C     C_3   0.275638 0.913570 0.855943 -0.799513
C17   C     C_3   0.747023 0.440760 0.604670 0.108210
C18   C     C_3   0.775459 0.417455 0.646335 -0.799325
C19   C     C_3   0.253007 0.442122 0.394571 0.108089
C20   C     C_3   0.224588 0.419370 0.352593 -0.799225
C21   C     C_3   0.252828 0.437005 0.602444 0.108551
C22   C     C_3   0.224318 0.412199 0.643212 -0.799574
C23   C     C_3   0.747133 0.438334 0.396745 0.108436
C24   C     C_1   0.499982 0.499969 0.270577 0.002499
C25   C     C_3   0.775623 0.414061 0.355648 -0.799472
C26   C     C_1   0.000013 0.999972 0.271621 0.002940
C27   C     C_1   0.999987 0.999969 0.728379 0.003012
C28   C     C_1   0.500019 0.499972 0.771621 0.002989
C29   C     C_1   0.499981 0.499968 0.228379 0.002963
C30   C     C_1   0.000014 0.999975 0.321444 0.001889
C31   C     C_1   0.999986 0.999973 0.678556 0.001925
C32   C     C_1   0.500017 0.499976 0.821444 0.001911
C33   C     C_R   1.000000 0.999992 0.913261 0.898561
C34   C     C_1   0.499982 0.499973 0.178556 0.001904
C35   C     C_1   0.000012 0.999981 0.363644 -0.202908
C36   C     C_1   0.999987 0.999980 0.636356 -0.202890
C37   C     C_1   0.500013 0.499981 0.863644 -0.202898
C38   C     C_1   0.499986 0.499980 0.136356 -0.202899
C39   C     C_R   0.500000 0.086703 0.000001 0.888566
C40   C     C_R   1.000000 0.586703 0.500001 0.888550
C41   C     C_R   0.377301 0.998415 0.000006 0.951583
C42   C     C_R   0.622698 0.998413 0.999999 0.951584
C43   C     C_R   0.877301 0.498413 0.500005 0.951583
C44   C     C_R   0.500002 0.499994 0.586739 0.898511
C45   C     C_R   0.122699 0.498426 0.499992 0.951579
C46   C     C_R   0.500000 0.913187 0.999999 0.917320
C47   C     C_R   0.000000 0.413187 0.499999 0.917350
C48   C     C_R   1.000000 0.085658 0.500000 0.878958
C49   C     C_R   0.500000 0.585658 1.000000 0.878957
C50   C     C_R   0.000004 0.999988 0.414318 0.878812
C51   C     C_R   0.999995 0.999988 0.585682 0.878813
C52   C     C_R   0.500005 0.499988 0.914318 0.878810
C53   C     C_R   0.499995 0.499988 0.085682 0.878815
C54   C     C_R   0.122735 0.999952 0.000000 0.936821
C55   C     C_R   0.499998 0.499992 0.413261 0.898421
C56   C     C_R   0.877265 0.999952 0.999996 0.936820
C57   C     C_R   0.622735 0.499952 0.500001 0.936820
C58   C     C_R   0.377265 0.499952 0.500001 0.936828
C59   C     C_R   1.000000 0.914310 0.500000 0.878662
C60   C     C_R   0.500000 0.414310 0.000000 0.878662
C61   C     C_1   0.500000 0.137377 0.000002 -0.217080
C62   C     C_1   1.000000 0.637377 0.500002 -0.217074
C63   C     C_1   0.500000 0.179577 0.000003 0.000048
C64   C     C_1   0.000000 0.679577 0.500003 0.000047
C65   C     C_1   0.500000 0.229403 0.000003 0.005305
C66   C     C_1   0.000007 0.999984 0.179602 -0.004526
C67   C     C_1   1.000000 0.729403 0.500002 0.005304
C68   C     C_1   0.000000 0.771603 0.500002 0.004807
C69   C     C_1   0.500000 0.271603 0.000002 0.004807
C70   C     C_1   0.000000 0.821430 0.500001 0.002516
C71   C     C_1   0.500000 0.321431 0.000001 0.002516
C72   C     C_1   0.000000 0.863632 0.500001 -0.202893
C73   C     C_1   0.500000 0.363632 0.000001 -0.202893
C74   C     C_1   0.500000 0.862529 0.999997 -0.196327
C75   C     C_1   0.000000 0.362529 0.499998 -0.196328
C76   C     C_1   0.500000 0.820338 0.999996 0.006132
C77   C     C_1   0.999993 0.999978 0.820398 -0.004350
C78   C     C_1   0.000000 0.320338 0.499998 0.006131
C79   C     C_1   0.500000 0.770525 0.999996 0.007292
C80   C     C_1   1.000000 0.270525 0.499998 0.007291
C81   C     C_3   0.229410 0.022183 0.037625 -0.224681
C82   C     C_3   0.770588 0.021133 0.961776 -0.224219
C83   C     C_3   0.770570 0.022093 0.037663 -0.224638
C84   C     C_3   0.229431 0.021043 0.961740 -0.224181
C85   C     C_3   0.729410 0.522054 0.537700 -0.224639
C86   C     C_3   0.270593 0.522542 0.462591 -0.224843
C87   C     C_3   0.270570 0.520681 0.538461 -0.224016
C88   C     C_1   0.500014 0.499984 0.679602 -0.004399
C89   C     C_3   0.729432 0.521172 0.461812 -0.224225
C90   C     C_1   1.000000 0.228333 0.499999 0.005967
C91   C     C_1   0.500000 0.728333 0.999996 0.005968
C92   C     C_1   1.000000 0.178518 0.499999 0.002936
C93   C     C_1   0.500000 0.678518 0.999997 0.002937
C94   C     C_1   1.000000 0.136324 0.500000 -0.202371
C95   C     C_1   0.500000 0.636324 0.999999 -0.202371
C96   C     C_3   0.270988 0.042988 0.999361 -0.251790
C97   C     C_3   0.729011 0.042989 0.999448 -0.251779
C98   C     C_3   0.770989 0.542989 0.499507 -0.251778
C99   C     C_1   0.499986 0.499978 0.320398 -0.004476
C100  C     C_3   0.229015 0.542984 0.501054 -0.251839
C101  C     C_3   0.310451 0.999074 0.000023 -0.112923
C102  C     C_3   0.689548 0.999073 0.000004 -0.112924
C103  C     C_3   0.810452 0.499073 0.500020 -0.112921
C104  C     C_3   0.189549 0.499080 0.499967 -0.112925
C105  C     C_3   0.269405 0.978421 0.037378 0.493308
C106  C     C_3   0.730588 0.977393 0.963236 0.493268
C107  C     C_3   0.730576 0.978332 0.037311 0.493302
C108  C     C_3   0.269431 0.977306 0.963305 0.493271
C109  C     C_3   0.769406 0.478294 0.537304 0.493306
C110  C     C_1   0.000011 0.999974 0.229423 0.002466
C111  C     C_3   0.230597 0.478783 0.462415 0.493346
C112  C     C_3   0.230565 0.476961 0.536473 0.493276
C113  C     C_3   0.769430 0.477430 0.463228 0.493262
C114  C     C_3   0.228777 0.955271 0.000676 -0.385615
C115  C     C_3   0.771224 0.955269 0.000557 -0.385619
C116  C     C_3   0.728776 0.455268 0.500525 -0.385613
C117  C     C_3   0.271221 0.455282 0.498894 -0.385620
C118  C     C_3   0.189477 0.999682 0.000009 -0.122639
C119  C     C_3   0.810523 0.999683 0.999997 -0.122638
C120  C     C_3   0.689477 0.499682 0.500009 -0.122639
H1    H     H_    0.290408 0.078253 0.998834 0.160665
H2    H     H_    0.289364 0.541011 0.432320 0.140571
H3    H     H_    0.289327 0.537632 0.569607 0.139737
H4    H     H_    0.710676 0.538528 0.430889 0.139957
H5    H     H_    0.210014 0.919815 0.001208 0.153598
H6    H     H_    0.789986 0.919812 0.001005 0.153598
H7    H     H_    0.710013 0.419811 0.500936 0.153600
H8    H     H_    0.289982 0.419832 0.498021 0.153588
H9    H     H_    0.217212 0.915590 0.086811 0.139632
H10   H     H_    0.217475 0.970102 0.116961 0.132787
H11   H     H_    0.304957 0.942706 0.165795 0.257770
H12   H     H_    0.709591 0.078254 0.999003 0.160664
H13   H     H_    0.237692 0.905398 0.169523 0.203589
H14   H     H_    0.304685 0.888432 0.135779 0.257850
H15   H     H_    0.782731 0.913214 0.915543 0.139779
H16   H     H_    0.782444 0.966864 0.883886 0.132930
H17   H     H_    0.694918 0.938115 0.835875 0.257868
H18   H     H_    0.762174 0.900712 0.833158 0.203522
H19   H     H_    0.695209 0.884703 0.867394 0.257879
H20   H     H_    0.782468 0.969821 0.116873 0.132791
H21   H     H_    0.782738 0.915379 0.086597 0.139647
H22   H     H_    0.695238 0.888114 0.135501 0.257853
H23   H     H_    0.790409 0.578255 0.499100 0.160664
H24   H     H_    0.762216 0.904997 0.169286 0.203582
H25   H     H_    0.694959 0.942318 0.165642 0.257776
H26   H     H_    0.217618 0.966588 0.883979 0.132937
H27   H     H_    0.217317 0.913013 0.915762 0.139793
H28   H     H_    0.304866 0.884392 0.867684 0.257883
H29   H     H_    0.237919 0.900319 0.833407 0.203517
H30   H     H_    0.305172 0.937730 0.836040 0.257875
H31   H     H_    0.717216 0.415297 0.586526 0.139645
H32   H     H_    0.717487 0.469705 0.616863 0.132794
H33   H     H_    0.804973 0.442137 0.665596 0.257778
H34   H     H_    0.209598 0.578242 0.501919 0.160671
H35   H     H_    0.737708 0.404819 0.669201 0.203575
H36   H     H_    0.804694 0.387968 0.635393 0.257858
H37   H     H_    0.282798 0.416418 0.412386 0.139577
H38   H     H_    0.282559 0.471219 0.382770 0.132726
H39   H     H_    0.195091 0.444307 0.333651 0.257733
H40   H     H_    0.262350 0.407030 0.329574 0.203607
H41   H     H_    0.195340 0.389746 0.363135 0.257844
H42   H     H_    0.282351 0.465483 0.615703 0.133000
H43   H     H_    0.282659 0.412216 0.583401 0.139851
H44   H     H_    0.195091 0.383137 0.631182 0.257891
H45   H     H_    0.210639 0.040361 0.068072 0.140406
H46   H     H_    0.262028 0.398728 0.665624 0.203502
H47   H     H_    0.194780 0.436167 0.663344 0.257913
H48   H     H_    0.717608 0.466984 0.383869 0.132931
H49   H     H_    0.717308 0.413301 0.415468 0.139780
H50   H     H_    0.804851 0.384842 0.367288 0.257874
H51   H     H_    0.737901 0.400888 0.333068 0.203533
H52   H     H_    0.805156 0.438288 0.335827 0.257868
H53   H     H_    0.789359 0.038457 0.930837 0.139935
H54   H     H_    0.789324 0.040199 0.068155 0.140363
H55   H     H_    0.210676 0.038293 0.930759 0.139893
H56   H     H_    0.710640 0.540129 0.568209 0.140341
O1    O     O_R   0.000000 0.964340 0.063140 -0.605453
O2    O     O_R   1.000000 0.035640 0.936880 -0.599938
O3    O     O_R   0.500000 0.535640 0.563120 -0.599990
O4    O     O_R   0.500000 0.535640 0.436880 -0.600078
O5    O     O_R   0.093030 0.964340 0.000000 -0.631669
O6    O     O_R   0.906970 0.964340 0.000000 -0.631669
O7    O     O_R   0.593030 0.464340 0.500000 -0.631669
O8    O     O_R   0.406970 0.464340 0.500000 -0.631669
O9    O     O_R   0.093040 0.035640 0.000000 -0.612373
O10   O     O_R   0.906960 0.035640 0.000000 -0.612373
O11   O     O_R   0.593040 0.535640 0.500000 -0.612372
O12   O     O_R   1.000000 0.964340 0.936860 -0.605593
O13   O     O_R   0.406960 0.535640 0.500000 -0.612379
O14   O     O_R   0.500000 0.063090 0.964350 -0.607296
O15   O     O_R   0.500000 0.063090 0.035650 -0.606957
O16   O     O_R   1.000000 0.563090 0.464350 -0.607048
O17   O     O_R   1.000000 0.563090 0.535650 -0.607213
O18   O     O_R   0.406990 0.999940 0.964350 -0.596542
O19   O     O_R   0.593010 0.999940 0.035650 -0.595696
O20   O     O_R   0.593010 0.999940 0.964350 -0.596496
O21   O     O_R   0.406990 0.999940 0.035650 -0.595649
O22   O     O_R   0.906990 0.499940 0.464350 -0.596437
O23   O     O_R   0.500000 0.464340 0.563140 -0.605555
O24   O     O_R   0.093010 0.499940 0.535650 -0.596831
O25   O     O_R   0.093010 0.499940 0.464350 -0.595358
O26   O     O_R   0.906990 0.499940 0.535650 -0.595757
O27   O     O_R   0.500000 0.936790 0.964340 -0.596189
O28   O     O_R   0.500000 0.936790 0.035660 -0.596747
O29   O     O_R   1.000000 0.436790 0.464340 -0.596598
O30   O     O_R   0.000000 0.436790 0.535660 -0.596332
O31   O     O_R   0.052540 0.063140 0.500000 -0.592414
O32   O     O_R   0.947460 0.063140 0.500000 -0.592414
O33   O     O_R   0.552540 0.563140 0.000000 -0.592414
O34   O     O_R   0.500000 0.464340 0.436860 -0.605490
O35   O     O_R   0.447460 0.563140 0.000000 -0.592414
O36   O     O_R   0.052540 0.999990 0.436840 -0.592501
O37   O     O_R   0.947460 0.999990 0.563160 -0.592496
O38   O     O_R   0.947460 0.999990 0.436840 -0.592497
O39   O     O_R   0.052540 0.999990 0.563160 -0.592492
O40   O     O_R   0.552540 0.499990 0.936840 -0.592511
O41   O     O_R   0.447460 0.499990 0.063160 -0.592510
O42   O     O_R   0.447460 0.499990 0.936840 -0.592483
O43   O     O_R   0.552540 0.499990 0.063160 -0.592481
O44   O     O_3   0.295499 0.956851 0.076162 -0.596409
O45   O     O_R   0.052520 0.936840 0.500000 -0.592466
O46   O     O_3   0.704457 0.954762 0.925073 -0.597065
O47   O     O_3   0.704461 0.956670 0.076042 -0.596457
O48   O     O_3   0.295584 0.954586 0.925198 -0.597112
O49   O     O_3   0.795504 0.456592 0.576013 -0.596485
O50   O     O_3   0.204515 0.457584 0.423421 -0.596176
O51   O     O_3   0.204398 0.453881 0.574356 -0.597341
O52   O     O_3   0.795578 0.454838 0.425043 -0.597038
O53   O     O_R   0.947480 0.936840 0.500000 -0.592466
O54   O     O_R   0.552520 0.436840 0.000000 -0.592466
O55   O     O_R   0.447480 0.436840 0.000000 -0.592466
O56   O     O_R   1.000000 0.035640 0.063120 -0.600128
Zn1   Zn    Zn3+2 0.000000 0.952380 0.000000 0.932570
Zn2   Zn    Zn3+2 0.929860 0.999990 0.500000 0.967628
Zn3   Zn    Zn3+2 0.570140 0.499990 0.000000 0.967628
Zn4   Zn    Zn3+2 0.429860 0.499990 0.000000 0.967628
Zn5   Zn    Zn3+2 0.500000 0.452380 0.500000 0.932571
Zn6   Zn    Zn3+2 1.000000 0.047600 0.000000 0.959786
Zn7   Zn    Zn3+2 0.500000 0.547600 0.500000 0.959783
Zn8   Zn    Zn3+2 0.500000 0.999950 0.952390 1.013398
Zn9   Zn    Zn3+2 0.500000 0.999950 0.047610 1.014310
Zn10  Zn    Zn3+2 0.000000 0.499950 0.452390 1.014070
Zn11  Zn    Zn3+2 1.000000 0.499950 0.547610 1.013635
Zn12  Zn    Zn3+2 0.070140 0.999990 0.500000 0.967627

loop_
_geom_bond_atom_site_label_1
_geom_bond_atom_site_label_2
_ccdc_geom_bond_type
C25   H50   S    
C53   O43   A    
C15   H27   S    
C63   C65   S    
O53   Zn2   S    
C21   H43   S    
C98   H23   S    
C24   C99   S    
O40   Zn3   S    
C55   O4    A    
O30   Zn11  S    
C1    O56   A    
C76   C79   S    
C7    C55   S    
C37   C52   S    
O29   Zn10  S    
C14   H22   S    
C23   O52   S    
C6    C88   T    
C50   O38   A    
O54   Zn3   S    
O22   Zn10  S    
C45   O24   A    
C14   H25   S    
O21   Zn9   S    
O39   Zn12  S    
C115  H6    S    
C48   C94   S    
C96   H1    S    
C60   O54   A    
C46   C74   S    
C103  C113  S    
C19   O50   S    
C10   H16   S    
C85   C109  S    
C112  C117  S    
C108  O48   S    
C78   C80   S    
O26   Zn11  S    
C108  C114  S    
C98   C103  S    
C60   O55   A    
C42   C102  S    
C60   C73   S    
C52   O40   A    
C85   H56   S    
C40   C62   S    
C12   H21   S    
C44   O3    A    
C58   O8    A    
C84   C96   S    
C83   C119  S    
C15   O48   S    
C69   C71   S    
C11   H19   S    
C24   C29   T    
C62   C64   T    
C85   C98   S    
C3    C117  S    
O6    Zn1   S    
C84   C108  S    
O10   Zn6   S    
C43   O26   A    
C1    O1    A    
C100  C104  S    
C19   C20   S    
C41   C101  S    
C8    C9    S    
C54   O9    A    
C5    C33   S    
C86   H2    S    
O3    Zn7   S    
C12   H20   S    
C13   C28   T    
C102  C106  S    
C2    C27   T    
C81   C96   S    
C84   H55   S    
C86   C100  S    
C26   C110  T    
C79   C91   T    
C97   C102  S    
C109  C116  S    
C59   C72   S    
C113  C116  S    
C9    H14   S    
C25   H51   S    
C15   H26   S    
C46   O28   A    
C33   O12   A    
O19   Zn9   S    
C50   O36   A    
C93   C95   T    
C112  O51   S    
C6    C44   S    
C21   C22   S    
C3    C86   S    
O56   Zn6   S    
O17   Zn11  S    
C49   O35   A    
C17   H31   S    
C17   O49   S    
C82   C119  S    
C35   C50   S    
C39   C61   S    
O23   Zn5   S    
O41   Zn4   S    
C92   C94   T    
C20   H39   S    
C48   O31   A    
O28   Zn9   S    
C107  O47   S    
C40   O17   A    
C9    H11   S    
C53   O41   A    
C21   O51   S    
C14   H24   S    
C101  C105  S    
O16   Zn10  S    
C18   H35   S    
C47   O29   A    
C27   C31   S    
C67   C68   T    
O15   Zn9   S    
C64   C67   S    
O43   Zn3   S    
C105  C114  S    
C28   C32   S    
O14   Zn8   S    
C10   H15   S    
C41   O21   A    
C71   C73   T    
C39   O14   A    
C109  O49   S    
C113  O52   S    
O1    Zn1   S    
C87   C112  S    
O4    Zn7   S    
C75   C78   T    
C3    C87   S    
C29   C34   S    
C116  H7    S    
C66   C110  S    
O25   Zn10  S    
C116  C120  S    
C82   H53   S    
C19   H37   S    
C85   C120  S    
O33   Zn3   S    
C12   O47   S    
C41   O18   A    
C8    O44   S    
C45   C104  S    
C91   C93   S    
C39   O15   A    
C90   C92   S    
O9    Zn6   S    
C40   O16   A    
C89   C120  S    
C105  O44   S    
C48   O32   A    
C58   O13   A    
C61   C63   T    
C17   C18   S    
C54   O5    A    
C102  C107  S    
C20   H40   S    
C114  C118  S    
C32   C37   T    
C49   C95   S    
C42   O20   A    
C36   C51   S    
O24   Zn11  S    
C107  C115  S    
O27   Zn8   S    
C16   H29   S    
C18   H33   S    
C7    C99   T    
C57   C120  S    
C22   H47   S    
C30   C35   T    
C25   H52   S    
C84   C118  S    
C46   O27   A    
C12   C14   S    
C26   C30   S    
C115  C119  S    
C54   C118  S    
C8    H10   S    
O34   Zn5   S    
C56   C119  S    
C19   H38   S    
C17   H32   S    
C51   O39   A    
C74   C76   T    
C5    C77   T    
O37   Zn2   S    
C59   O53   A    
O32   Zn2   S    
O8    Zn5   S    
O2    Zn6   S    
C18   H36   S    
C104  C112  S    
C87   C100  S    
O20   Zn8   S    
C100  H34   S    
C114  H5    S    
C81   C105  S    
C21   H42   S    
C47   O30   A    
C33   O2    A    
C34   C38   T    
C111  O50   S    
C59   O45   A    
C11   H18   S    
C97   H12   S    
C56   O10   A    
C104  C111  S    
O11   Zn7   S    
O12   Zn1   S    
C89   H4    S    
C89   C98   S    
C52   O42   A    
C103  C109  S    
C106  C115  S    
C111  C117  S    
O35   Zn4   S    
C1    C4    S    
C22   H44   S    
C11   H17   S    
O42   Zn4   S    
O36   Zn12  S    
C2    C77   S    
O31   Zn12  S    
O7    Zn5   S    
C55   O34   A    
C87   H3    S    
C57   O7    A    
C51   O37   A    
C16   H28   S    
C106  O46   S    
C38   C53   S    
C56   O6    A    
C101  C108  S    
C65   C69   T    
C20   H41   S    
C81   C118  S    
C13   C88   S    
C82   C97   S    
C83   C107  S    
C86   C111  S    
C43   O22   A    
C82   C106  S    
C80   C90   T    
C42   O19   A    
C23   H49   S    
C117  H8    S    
C43   C103  S    
C57   O11   A    
C10   C11   S    
C10   O46   S    
C47   C75   S    
C23   H48   S    
C22   H46   S    
C3    C58   S    
O5    Zn1   S    
C23   C25   S    
C70   C72   T    
C4    C66   T    
C44   O23   A    
C45   O25   A    
C83   C97   S    
C83   H54   S    
C49   O33   A    
C8    H9    S    
C68   C70   S    
C81   H45   S    
C31   C36   T    
O38   Zn2   S    
C16   H30   S    
O18   Zn8   S    
C96   C101  S    
C89   C113  S    
O55   Zn4   S    
C15   C16   S    
C9    H13   S    
O45   Zn12  S    
O13   Zn7   S    
