data_mof_unit_46822.cif
_audit_creation_date              2013-03-05T15:44:04-0500
_audit_creation_method            fapswitch 2.2
_symmetry_space_group_name_H-M    P1
_symmetry_Int_Tables_number       1
_space_group_crystal_system       triclinic
_cell_length_a                    6.944302
_cell_length_b                    18.310212
_cell_length_c                    18.682085
_cell_angle_alpha                 90.001552
_cell_angle_beta                  89.999086
_cell_angle_gamma                 90.594296
_cell_volume                      2375.32999585

loop_
_atom_site_label
_atom_site_type_symbol
_atom_site_description
_atom_site_fract_x
_atom_site_fract_y
_atom_site_fract_z
_atom_type_partial_charge
O1    O     O_R   0.377350 0.828520 0.186660 -0.535717
O2    O     O_R   0.622650 0.171480 0.813340 -0.535739
O3    O     O_R   0.122650 0.171480 0.686660 -0.535669
O4    O     O_R   0.877350 0.828520 0.313340 -0.535520
O5    O     O_R   0.877350 0.671480 0.313340 -0.539550
O6    O     O_R   0.122650 0.328520 0.686660 -0.539474
O7    O     O_R   0.622650 0.328520 0.813340 -0.539458
O8    O     O_R   0.377350 0.671480 0.186660 -0.539483
O9    O     O_R   0.707090 0.671930 0.178410 -0.528602
O10   O     O_R   0.292910 0.328070 0.821590 -0.528586
O11   O     O_R   0.792910 0.328070 0.678410 -0.528500
O12   O     O_R   0.207090 0.671930 0.321590 -0.528546
O13   O     O_R   0.207090 0.828070 0.321590 -0.519222
O14   O     O_R   0.792910 0.171930 0.678410 -0.519307
O15   O     O_R   0.292910 0.171930 0.821590 -0.519285
O16   O     O_R   0.707090 0.828070 0.178410 -0.519281
C1    C     C_R   0.538422 0.646330 0.161320 0.939566
C2    C     C_R   0.461577 0.353671 0.838679 0.939638
C3    C     C_R   0.961580 0.353666 0.661313 0.939539
C4    C     C_R   0.038420 0.646330 0.338682 0.939509
C5    C     C_R   0.039375 0.854268 0.338296 0.943346
C6    C     C_R   0.960630 0.145755 0.661670 0.943362
C7    C     C_R   0.460641 0.145771 0.838343 0.943358
C8    C     C_R   0.539361 0.854232 0.161661 0.943618
O17   O     O_3   0.543850 0.750000 0.294270 -0.245545
O18   O     O_3   0.456150 0.250000 0.705730 -0.245577
O19   O     O_3   0.956150 0.250000 0.794270 -0.245605
O20   O     O_3   0.043850 0.750000 0.205730 -0.245666
V1    V     V_3+5 0.818700 0.750000 0.241790 1.370683
V2    V     V_3+5 0.181300 0.250000 0.758210 1.370531
V3    V     V_3+5 0.681300 0.250000 0.741790 1.370536
V4    V     V_3+5 0.318700 0.750000 0.258210 1.370748
C9    C     C_R   0.965080 0.416184 0.609859 -0.189192
C10   C     C_R   0.034909 0.583804 0.390126 -0.189145
C11   C     C_R   0.534922 0.583811 0.109869 -0.189299
C12   C     C_R   0.465068 0.416187 0.890133 -0.189334
C13   C     C_R   0.462173 0.083304 0.890258 -0.199092
C14   C     C_R   0.537827 0.916703 0.109752 -0.199118
C15   C     C_R   0.037851 0.916770 0.390171 -0.198633
C16   C     C_R   0.962120 0.083298 0.609733 -0.199174
C17   C     C_R   0.184625 0.471410 0.431941 0.353477
C18   C     C_R   0.815300 0.528555 0.568018 0.353485
C19   C     C_R   0.315222 0.528540 0.931997 0.353429
C20   C     C_R   0.684724 0.471445 0.068018 0.353413
C21   C     C_R   0.695858 0.027467 0.064185 0.353260
C22   C     C_R   0.304114 0.972550 0.935837 0.353321
C23   C     C_R   0.803550 0.972742 0.563939 0.353191
C24   C     C_R   0.196097 0.027441 0.435835 0.353164
C25   C     C_R   0.164492 0.526600 0.379449 0.323324
C26   C     C_R   0.835429 0.473371 0.620515 0.323346
C27   C     C_R   0.335312 0.473345 0.879511 0.323337
C28   C     C_R   0.664644 0.526644 0.120501 0.323347
C29   C     C_R   0.678160 0.972041 0.116905 0.357927
C30   C     C_R   0.321814 0.027974 0.883114 0.357929
C31   C     C_R   0.821446 0.028066 0.616751 0.358352
C32   C     C_R   0.178226 0.972085 0.383048 0.358045
C33   C     C_R   0.922539 0.585769 0.452923 0.273362
C34   C     C_R   0.077489 0.414222 0.547070 0.273318
C35   C     C_R   0.577552 0.414241 0.952902 0.273186
C36   C     C_R   0.422436 0.585756 0.047101 0.273197
C37   C     C_R   0.399202 0.922093 0.054658 0.293611
C38   C     C_R   0.600801 0.077914 0.945353 0.293697
C39   C     C_R   0.100761 0.077921 0.554641 0.293641
C40   C     C_R   0.899224 0.922156 0.445247 0.293534
C41   C     C_R   0.933255 0.528884 0.505213 -0.134204
C42   C     C_R   0.066721 0.471090 0.494761 -0.134212
C43   C     C_R   0.566762 0.471108 0.005217 -0.134341
C44   C     C_R   0.433208 0.528884 0.994792 -0.134326
C45   C     C_R   0.424096 0.973649 0.997846 -0.143955
C46   C     C_R   0.575889 0.026365 0.002171 -0.143919
C47   C     C_R   0.075910 0.026389 0.497799 -0.143737
C48   C     C_R   0.923912 0.973745 0.502035 -0.144271
N1    N     N_R   0.182317 0.349272 0.532719 0.115897
O21   O     O_R   0.349671 0.339072 0.562189 -0.250269
O22   O     O_R   0.109251 0.300412 0.489775 -0.231848
N2    N     N_R   0.817894 0.650751 0.467321 0.115820
O23   O     O_R   0.891053 0.699528 0.510335 -0.231912
O24   O     O_R   0.650600 0.661053 0.437840 -0.250236
N3    N     N_R   0.317469 0.650685 0.032782 0.115934
O25   O     O_R   0.150209 0.660869 0.062332 -0.250511
O26   O     O_R   0.390416 0.699586 0.989857 -0.231742
N4    N     N_R   0.682537 0.349315 0.967214 0.115968
O27   O     O_R   0.609517 0.300378 0.010079 -0.231828
O28   O     O_R   0.849820 0.339149 0.937678 -0.250540
N5    N     N_R   0.776669 0.118796 0.938888 0.126684
O29   O     O_R   0.934808 0.085427 0.922644 -0.295619
O30   O     O_R   0.778168 0.189367 0.944625 -0.229437
N6    N     N_R   0.223360 0.881197 0.061116 0.126658
O31   O     O_R   0.221898 0.810629 0.055326 -0.229452
O32   O     O_R   0.065250 0.914539 0.077471 -0.295553
N7    N     N_R   0.723623 0.881142 0.438802 0.126542
O33   O     O_R   0.566243 0.914146 0.420780 -0.295333
O34   O     O_R   0.722349 0.810638 0.445310 -0.228986
N8    N     N_R   0.276465 0.118894 0.561086 0.126677
O35   O     O_R   0.277717 0.189449 0.555182 -0.229381
O36   O     O_R   0.434486 0.085677 0.577815 -0.296220
O37   O     O_3   0.726970 0.472278 0.682875 -0.684216
H1    H     H_    0.628947 0.510946 0.682526 0.366289
O38   O     O_3   0.272894 0.527686 0.317075 -0.684258
H2    H     H_    0.370781 0.488968 0.317382 0.366297
O39   O     O_3   0.773122 0.527729 0.182854 -0.684084
H3    H     H_    0.872073 0.489423 0.182242 0.366205
O40   O     O_3   0.226813 0.472256 0.817163 -0.684063
H4    H     H_    0.127722 0.510510 0.817813 0.366192
O41   O     O_3   0.211004 0.027952 0.821362 -0.669744
H5    H     H_    0.134598 0.982373 0.817258 0.365499
O42   O     O_3   0.788946 0.972066 0.178663 -0.669507
H6    H     H_    0.865153 0.017687 0.182813 0.365419
O43   O     O_3   0.288887 0.972164 0.321257 -0.669237
H7    H     H_    0.365385 0.017729 0.317203 0.365550
O44   O     O_3   0.710432 0.028049 0.678459 -0.669628
H8    H     H_    0.632025 0.982903 0.682059 0.365734
N9    N     N_R   0.333643 0.418715 0.422510 0.119585
O45   O     O_R   0.312629 0.367053 0.375214 -0.222365
O46   O     O_R   0.502937 0.431192 0.449998 -0.302192
N10   N     N_R   0.666203 0.581225 0.577418 0.119570
O47   O     O_R   0.497020 0.568756 0.549831 -0.302278
O48   O     O_R   0.687025 0.632867 0.624746 -0.222305
N11   N     N_R   0.166356 0.581291 0.922522 0.119585
O49   O     O_R   0.187372 0.632805 0.875077 -0.222073
O50   O     O_R   0.997091 0.568947 0.950090 -0.302578
N12   N     N_R   0.833548 0.418680 0.077505 0.119575
O51   O     O_R   0.002876 0.431032 0.049993 -0.302537
O52   O     O_R   0.812414 0.367142 0.124917 -0.222131
N13   N     N_R   0.827268 0.087082 0.076563 0.113781
O53   O     O_R   0.761579 0.150096 0.096727 -0.216758
O54   O     O_R   0.012272 0.076477 0.075273 -0.278358
N14   N     N_R   0.172695 0.912938 0.923462 0.113773
O55   O     O_R   0.987688 0.923531 0.924829 -0.278305
O56   O     O_R   0.238360 0.849941 0.903230 -0.216693
N15   N     N_R   0.671406 0.913327 0.576112 0.113436
O57   O     O_R   0.736000 0.850510 0.597382 -0.216983
O58   O     O_R   0.486519 0.924066 0.573727 -0.279575
N16   N     N_R   0.328036 0.086912 0.423589 0.113754
O59   O     O_R   0.512945 0.076099 0.425124 -0.278884
O60   O     O_R   0.263004 0.149930 0.403120 -0.216845

loop_
_geom_bond_atom_site_label_1
_geom_bond_atom_site_label_2
_geom_bond_distance
_ccdc_geom_bond_type
C36   N3    1.426284 S    
C9    C34   1.409676 A    
N1    O21   1.301201 A    
N6    O32   1.298253 A    
O13   V4    2.017178 S    
O44   H8    0.987396 S    
C35   N4    1.426279 S    
O14   V3    2.017179 S    
C12   C35   1.409657 A    
C19   C27   1.416046 A    
N14   O55   1.301541 A    
O37   H1    0.987272 S    
O5    C4    1.303071 A    
N5    O29   1.298183 A    
C15   C40   1.413175 A    
C39   N8    1.430765 S    
O11   C3    1.296997 A    
O39   H3    0.987036 S    
C16   C39   1.413451 A    
C33   N2    1.426205 S    
C24   N16   1.434190 S    
O20   V1    1.702459 S    
N2    O24   1.301202 A    
N7    O34   1.296603 A    
C27   O40   1.387276 S    
N10   O47   1.300953 A    
C38   C46   1.429754 A    
O10   V2    2.005766 S    
C22   C45   1.427002 A    
C35   C43   1.430577 A    
C34   C42   1.430552 A    
O38   H2    0.987266 S    
C21   N13   1.434247 S    
C19   C44   1.430915 A    
C26   O37   1.387296 S    
C18   C41   1.430928 A    
C8    C14   1.499764 S    
O42   H6    0.987255 S    
O4    V1    2.001861 S    
O9    V1    2.005768 S    
C14   C37   1.413457 A    
C4    C10   1.494813 S    
C16   C31   1.404906 A    
O17   V4    1.702479 S    
O15   C7    1.302176 A    
O11   V3    2.005797 S    
O18   V3    1.702479 S    
O16   C8    1.302171 A    
O12   V4    2.005799 S    
O19   V2    1.702459 S    
N1    O22   1.300783 A    
O12   C4    1.296999 A    
C45   C46   1.424162 A    
C17   C25   1.416133 A    
C13   C38   1.413485 A    
O5    V1    2.007973 S    
O2    C7    1.301736 A    
N11   O50   1.300940 A    
O17   V1    2.145717 S    
C38   N5    1.430904 S    
C28   O39   1.387276 S    
O7    V3    2.007911 S    
C20   C43   1.430917 A    
N5    O30   1.296536 A    
O19   V3    2.145745 S    
C43   C44   1.427446 A    
O8    V4    2.007913 S    
O20   V4    2.145745 S    
N2    O23   1.300803 A    
C3    C9    1.494824 S    
C17   N9    1.433033 S    
N7    O33   1.298727 A    
N3    O26   1.300779 A    
N16   O60   1.300940 A    
C9    C26   1.402217 A    
C7    C13   1.499776 S    
O1    V4    2.001905 S    
C23   N15   1.434102 S    
C11   C36   1.409656 A    
O3    V2    2.001863 S    
O6    C3    1.303077 A    
C37   N6    1.430880 S    
C25   O38   1.387298 S    
C29   O42   1.386753 S    
C15   C32   1.404756 A    
C5    C15   1.499738 S    
O7    C2    1.303063 A    
C6    C16   1.499868 S    
C22   C30   1.418653 A    
O13   C5    1.302123 A    
N8    O36   1.298315 A    
N16   O59   1.301587 A    
C12   C27   1.402210 A    
C18   C26   1.416108 A    
C13   C30   1.404899 A    
O9    C1    1.296984 A    
O6    V2    2.007972 S    
C39   C47   1.429803 A    
O18   V2    2.145717 S    
N4    O28   1.301185 A    
N13   O53   1.300832 A    
C24   C47   1.427120 A    
N12   O52   1.301463 A    
N15   O57   1.301072 A    
C32   O43   1.386752 S    
C11   C28   1.402207 A    
O15   V2    2.017239 S    
C23   C31   1.418585 A    
N9    O45   1.301492 A    
C22   N14   1.434240 S    
C24   C32   1.418664 A    
C10   C25   1.402206 A    
C30   O41   1.386761 S    
C31   O44   1.386821 S    
C21   C46   1.427018 A    
C33   C41   1.430517 A    
N15   O58   1.301666 A    
N14   O56   1.300849 A    
N11   O49   1.301471 A    
C17   C42   1.430953 A    
O41   H5    0.987279 S    
O8    C1    1.303054 A    
C37   C45   1.429740 A    
O14   C6    1.302143 A    
O16   V1    2.017238 S    
C47   C48   1.424226 A    
C41   C42   1.427347 A    
O43   H7    0.987330 S    
O4    C5    1.301772 A    
C20   C28   1.416052 A    
C14   C29   1.404884 A    
O10   C2    1.296978 A    
C10   C33   1.409645 A    
C18   N10   1.433049 S    
C20   N12   1.433054 S    
N10   O48   1.301501 A    
C40   C48   1.429626 A    
N8    O35   1.296524 A    
C23   C48   1.426917 A    
C21   C29   1.418662 A    
N3    O25   1.301185 A    
N6    O31   1.296552 A    
C36   C44   1.430576 A    
O1    C8    1.301734 A    
N4    O27   1.300738 A    
O40   H4    0.987057 S    
N13   O54   1.301524 A    
O2    V3    2.001906 S    
O3    C6    1.301817 A    
C1    C11   1.494755 S    
C40   N7    1.430548 S    
N12   O51   1.300936 A    
C2    C12   1.494760 S    
C34   N1    1.426205 S    
C19   N11   1.433061 S    
N9    O46   1.300949 A    
