data_mof_unit_25880.cif
_audit_creation_date              2012-12-10T18:42:34-0500
_audit_creation_method            fapswitch 2.2
_symmetry_space_group_name_H-M    P1
_symmetry_Int_Tables_number       1
_space_group_crystal_system       triclinic
_cell_length_a                    8.585762
_cell_length_b                    10.703148
_cell_length_c                    9.897377
_cell_angle_alpha                 89.520709
_cell_angle_beta                  98.250579
_cell_angle_gamma                 90.96661
_cell_volume                      899.958427353

loop_
_atom_site_label
_atom_site_type_symbol
_atom_type_description
_atom_site_fract_x
_atom_site_fract_y
_atom_site_fract_z
_atom_type_partial_charge
C1    C     C_R   0.499516 0.260064 0.500237 0.878152
C2    C     C_R   0.539640 0.063569 0.623554 -0.152151
C3    C     C_R   0.500899 0.872473 0.499606 -0.017837
C4    C     C_R   0.499101 0.127527 0.500394 -0.017837
C5    C     C_R   0.596197 0.580464 0.081110 0.220196
C6    C     C_R   0.403803 0.419536 0.918890 0.220196
C7    C     C_R   0.595519 0.579909 0.938063 -0.134296
C8    C     C_R   0.404480 0.420091 0.061937 -0.134296
C9    C     C_R   0.500484 0.739936 0.499763 0.878152
C10   C     C_R   0.201418 0.499559 0.464417 0.976217
C11   C     C_R   0.798582 0.500441 0.535583 0.976217
C12   C     C_2   0.036425 0.497597 0.445298 -0.350428
C13   C     C_2   0.963575 0.502403 0.554702 -0.350428
C14   C     C_R   0.459344 0.064414 0.376836 -0.175714
C15   C     C_R   0.540656 0.935585 0.623164 -0.175715
C16   C     C_R   0.460360 0.936431 0.376445 -0.152151
H1    H     H_    0.975334 0.491486 0.341349 0.199175
H2    H     H_    0.024666 0.508514 0.658651 0.199175
H3    H     H_    0.426568 0.113578 0.281069 0.164991
H4    H     H_    0.573432 0.886422 0.718930 0.164991
H5    H     H_    0.428166 0.887908 0.280587 0.176614
H6    H     H_    0.571834 0.112092 0.719413 0.176614
H7    H     H_    0.671724 0.643677 0.891667 0.161514
H8    H     H_    0.328276 0.356323 0.108332 0.161514
I1    I     I_    0.752499 0.711210 0.190442 -0.371335
I2    I     I_    0.247500 0.288790 0.809557 -0.371334
N1    N     N_R   0.499960 0.499970 0.857200 -0.110673
N2    N     N_R   0.500040 0.500030 0.142800 -0.110673
O1    O     O_R   0.499990 0.316750 0.614620 -0.600205
O2    O     O_R   0.500010 0.683250 0.385380 -0.600205
O3    O     O_R   0.499990 0.316780 0.385290 -0.633110
O4    O     O_R   0.500010 0.683220 0.614710 -0.633110
O5    O     O_R   0.271750 0.499990 0.587840 -0.592044
O6    O     O_R   0.728250 0.500010 0.412160 -0.592044
O7    O     O_R   0.271750 0.500010 0.358510 -0.622772
O8    O     O_R   0.728250 0.499990 0.641490 -0.622772
Zn1   Zn    Zn3+2 0.500000 0.499980 0.653120 0.983707
Zn2   Zn    Zn3+2 0.500000 0.500020 0.346880 0.983707

loop_
_geom_bond_atom_site_label_1
_geom_bond_atom_site_label_2
_ccdc_geom_bond_type
C12   H1    S    
C2    H6    S    
C2    C4    A    
C16   H5    S    
C3    C9    S    
C5    N2    A    
C6    N1    A    
O3    Zn2   S    
N2    Zn2   S    
C1    C4    S    
C1    O1    A    
C7    N1    A    
C6    I2    S    
O4    Zn1   S    
C2    C15   A    
C11   C13   S    
C10   O7    A    
C10   C12   S    
C13   H2    S    
N1    Zn1   S    
C7    H7    S    
C9    O2    A    
C11   O8    A    
C8    H8    S    
C10   O5    A    
C14   C16   A    
C4    C14   A    
C15   H4    S    
C8    N2    A    
C5    I1    S    
C1    O3    A    
O7    Zn2   S    
C3    C15   A    
C12   C13   D    
O2    Zn2   S    
O1    Zn1   S    
C5    C7    A    
O8    Zn1   S    
C6    C8    A    
C9    O4    A    
O6    Zn2   S    
C14   H3    S    
C11   O6    A    
O5    Zn1   S    
C3    C16   A    
