data_mof_unit_8709.cif
_audit_creation_date              2012-12-10T18:46:17-0500
_audit_creation_method            fapswitch 2.2
_symmetry_space_group_name_H-M    P1
_symmetry_Int_Tables_number       1
_space_group_crystal_system       triclinic
_cell_length_a                    9.851285
_cell_length_b                    10.680842
_cell_length_c                    13.136962
_cell_angle_alpha                 90.040725
_cell_angle_beta                  69.958851
_cell_angle_gamma                 89.807438
_cell_volume                      1298.56046748

loop_
_atom_site_label
_atom_site_type_symbol
_atom_type_description
_atom_site_fract_x
_atom_site_fract_y
_atom_site_fract_z
_atom_type_partial_charge
C1    C     C_R   0.499590 0.739833 0.500556 0.864889
C2    C     C_R   0.430345 0.521178 0.984799 0.088432
C3    C     C_R   0.457959 0.557970 0.876767 0.097043
C4    C     C_R   0.540378 0.539017 0.029753 0.082145
C5    C     C_R   0.664996 0.610372 0.973683 0.178538
C6    C     C_R   0.679396 0.661999 0.873244 -0.254359
C7    C     C_R   0.576802 0.636594 0.825447 -0.201122
C8    C     C_R   0.530677 0.486026 0.128576 -0.250654
C9    C     C_R   0.752092 0.586954 0.124190 -0.206277
C10   C     C_R   0.366894 0.513378 0.822242 -0.121723
C11   C     C_R   0.574595 0.933064 0.560309 -0.235418
C12   C     C_R   0.419750 0.505952 0.704221 0.857875
C13   C     C_R   0.574188 0.061811 0.563349 -0.000086
C14   C     C_R   0.497802 0.127253 0.506829 -0.064862
C15   C     C_R   0.419281 0.064758 0.451801 -0.205525
C16   C     C_R   0.418804 0.936535 0.450549 -0.188724
C17   C     C_R   0.497869 0.871865 0.503563 -0.023943
C18   C     C_R   0.955469 0.413781 0.440740 -0.069987
C19   C     C_R   0.099328 0.413899 0.440658 -0.065577
C20   C     C_R   0.044542 0.586210 0.559248 -0.077257
C21   C     C_R   0.900915 0.586402 0.558952 -0.047838
C22   C     C_R   0.499012 0.260027 0.502826 0.871321
C23   C     C_R   0.580142 0.500355 0.295706 0.869440
C24   C     C_R   0.771745 0.631245 0.020295 -0.198537
C25   C     C_R   0.628453 0.517634 0.179277 -0.061357
C26   C     C_R   0.233318 0.459553 0.880845 -0.190849
C27   C     C_R   0.195157 0.441437 0.991745 -0.147645
C28   C     C_R   0.293818 0.468413 0.043256 -0.193672
H1    H     H_    0.828698 0.612263 0.163284 0.159012
H2    H     H_    0.360623 0.115086 0.408223 0.150237
H3    H     H_    0.359604 0.887993 0.406571 0.154599
H4    H     H_    0.923008 0.344892 0.393270 0.125331
H5    H     H_    0.175726 0.345112 0.393050 0.119560
H6    H     H_    0.076995 0.655164 0.606675 0.125607
H7    H     H_    0.825175 0.656006 0.605629 0.115731
H8    H     H_    0.770992 0.720528 0.830861 0.140608
H9    H     H_    0.866746 0.686251 0.978487 0.141401
H10   H     H_    0.443538 0.423718 0.170686 0.141528
H11   H     H_    0.160575 0.427705 0.840415 0.163630
H12   H     H_    0.258964 0.450165 0.129126 0.129489
H13   H     H_    0.091343 0.401088 0.037136 0.147187
H14   H     H_    0.590282 0.680392 0.748418 0.150285
H15   H     H_    0.632468 0.880430 0.603294 0.137852
N1    N     N_R   0.142790 0.500030 0.500030 -0.076992
N2    N     N_R   0.857180 0.499940 0.500010 -0.075907
O1    O     O_R   0.385370 0.683250 0.500010 -0.622208
O2    O     O_R   0.614700 0.683220 0.500010 -0.630443
O3    O     O_R   0.328400 0.499990 0.653620 -0.613456
O4    O     O_R   0.557730 0.499960 0.653620 -0.601375
O5    O     O_R   0.385300 0.316780 0.499990 -0.621015
O6    O     O_R   0.614630 0.316750 0.499990 -0.610014
O7    O     O_R   0.442270 0.500040 0.346380 -0.614078
O8    O     O_R   0.671600 0.500010 0.346380 -0.616974
Zn1   Zn    Zn3+2 0.346870 0.500020 0.500000 0.944639
Zn2   Zn    Zn3+2 0.653130 0.499980 0.500000 0.953177
C29   C     C_1   0.648235 0.123287 0.627395 0.170229
N3    N     N_1   0.707420 0.172467 0.678643 -0.191911

loop_
_geom_bond_atom_site_label_1
_geom_bond_atom_site_label_2
_ccdc_geom_bond_type
C2    C4    A    
C9    C24   A    
C11   H15   S    
C6    C7    A    
C21   H7    S    
C2    C28   A    
C27   H13   S    
C1    C17   S    
C12   O3    A    
C9    H1    S    
C4    C8    A    
C13   C29   S    
C20   H6    S    
O1    Zn1   S    
C23   C25   S    
C24   H9    S    
C23   O7    A    
C9    C25   A    
C3    C10   A    
C13   C14   A    
C19   N1    A    
C16   H3    S    
O3    Zn1   S    
C8    C25   A    
C11   C13   A    
C14   C22   S    
C26   C27   A    
O5    Zn1   S    
C5    C24   A    
C10   C12   S    
C8    H10   S    
C1    O2    A    
C20   N1    A    
O7    Zn1   S    
C23   O8    A    
C3    C7    A    
C21   N2    A    
O8    Zn2   S    
C5    C6    A    
C26   H11   S    
C1    O1    A    
C22   O6    A    
C12   O4    A    
C18   H4    S    
C28   H12   S    
C15   C16   A    
C18   N2    A    
N1    Zn1   S    
C22   O5    A    
C29   N3    T    
N2    Zn2   S    
C15   H2    S    
O2    Zn2   S    
C18   C19   A    
C19   H5    S    
C7    H14   S    
C27   C28   A    
C14   C15   A    
C4    C5    A    
C2    C3    A    
O6    Zn2   S    
C20   C21   A    
O4    Zn2   S    
C10   C26   A    
C11   C17   A    
C6    H8    S    
C16   C17   A    
