data_mof_unit_50574.cif
_audit_creation_date              2012-10-26T21:14:27-0400
_audit_creation_method            fapswitch 2.2
_symmetry_space_group_name_H-M    P1
_symmetry_Int_Tables_number       1
_space_group_crystal_system       triclinic
_cell_length_a                    11.052532
_cell_length_b                    19.436568
_cell_length_c                    18.282181
_cell_angle_alpha                 91.362178
_cell_angle_beta                  103.955491
_cell_angle_gamma                 91.669857
_cell_volume                      3807.97404986

loop_
_atom_site_label
_atom_site_type_symbol
_atom_type_description
_atom_site_fract_x
_atom_site_fract_y
_atom_site_fract_z
_atom_type_partial_charge
C1    C     C_R   0.505693 0.367457 0.499953 0.580686
C2    C     C_R   0.490656 0.927591 0.499871 0.060044
C3    C     C_R   0.438555 0.446723 0.707110 0.006263
C4    C     C_R   0.607941 0.509920 0.293509 0.013448
C5    C     C_R   0.438111 0.440180 0.783146 0.187049
C6    C     C_R   0.608619 0.508085 0.216458 0.219968
C7    C     C_R   0.496743 0.492274 0.837414 0.005415
C8    C     C_R   0.495403 0.502602 0.160779 0.015929
C9    C     C_R   0.583638 0.537439 0.814708 0.207615
C10   C     C_R   0.383924 0.496503 0.184071 0.196485
C11   C     C_R   0.573615 0.546261 0.735661 0.411889
C12   C     C_R   0.498300 0.632321 0.500634 0.578694
C13   C     C_R   0.389295 0.487722 0.261923 0.410036
C14   C     C_R   0.537794 0.553836 0.967320 -0.126464
C15   C     C_R   0.416450 0.452225 0.028453 -0.135176
C16   C     C_R   0.262268 0.500316 0.469092 0.557886
C17   C     C_R   0.737774 0.500176 0.530967 0.523725
C18   C     C_R   0.545003 0.556004 0.045271 0.279251
C19   C     C_R   0.399728 0.454584 0.949653 0.262138
C20   C     C_R   0.490804 0.502102 0.077690 0.041633
C21   C     C_R   0.479617 0.498260 0.918793 -0.004870
C22   C     C_2   0.126341 0.501611 0.451724 -0.123270
C23   C     C_R   0.495551 0.708031 0.502006 -0.073034
C24   C     C_2   0.873835 0.500567 0.548750 -0.136764
C25   C     C_2   0.067919 0.500730 0.508067 -0.149099
C26   C     C_2   0.932649 0.501242 0.492617 -0.152280
C27   C     C_R   0.556866 0.745002 0.455099 0.205030
C28   C     C_R   0.519155 0.255870 0.566932 0.214808
C29   C     C_R   0.547439 0.816425 0.450909 0.252603
C30   C     C_R   0.504232 0.183884 0.565060 0.219207
C31   C     C_R   0.487188 0.852079 0.498739 -0.013490
C32   C     C_R   0.498884 0.146500 0.497985 0.005901
C33   C     C_R   0.426609 0.816206 0.546425 0.247689
C34   C     C_R   0.512903 0.291170 0.499306 -0.054656
C35   C     C_R   0.506697 0.180076 0.432121 0.267622
C36   C     C_R   0.432154 0.744081 0.548952 0.182160
C37   C     C_R   0.516446 0.252431 0.432883 0.167151
C38   C     C_3   0.476483 0.333026 0.827798 0.012521
C39   C     C_3   0.417255 0.268660 0.852166 -0.351644
C40   C     C_3   0.771131 0.448624 0.194035 -0.007471
C41   C     C_3   0.829332 0.443662 0.126999 -0.363677
C42   C     C_3   0.746203 0.617407 0.872252 -0.019525
C43   C     C_3   0.822755 0.635124 0.952177 -0.383078
C44   C     C_3   0.178184 0.462559 0.124322 0.004057
C45   C     C_R   0.381190 0.961848 0.469172 -0.133103
C46   C     C_3   0.094031 0.463758 0.045354 -0.402205
C47   C     C_3   0.717948 0.616926 0.694232 0.012911
C48   C     C_3   0.768664 0.691360 0.707164 -0.384156
C49   C     C_3   0.273437 0.395621 0.286500 -0.002954
C50   C     C_3   0.139445 0.370873 0.281423 -0.401708
C51   C     C_3   0.522080 0.662488 0.092800 -0.014408
C52   C     C_3   0.585058 0.717670 0.151107 -0.355786
C53   C     C_3   0.208613 0.467761 0.869442 0.021254
C54   C     C_3   0.086603 0.429772 0.831103 -0.364820
C55   C     C_3   0.750286 0.708670 0.455984 0.021059
C56   C     C_R   0.603949 0.037104 0.528499 -0.063757
C57   C     C_3   0.829932 0.675678 0.408609 -0.353753
C58   C     C_3   0.667984 0.281271 0.676466 0.011559
C59   C     C_3   0.733511 0.350491 0.703646 -0.375477
C60   C     C_3   0.523489 0.855312 0.332545 0.000635
C61   C     C_3   0.584806 0.897685 0.281668 -0.359955
C62   C     C_3   0.388635 0.152432 0.646903 0.004596
C63   C     C_3   0.385426 0.106485 0.712596 -0.373577
C64   C     C_3   0.242210 0.851567 0.569114 0.010233
C65   C     C_3   0.191612 0.915715 0.598811 -0.352146
C66   C     C_3   0.409334 0.140741 0.311961 0.035892
C67   C     C_R   0.381471 0.033438 0.470165 0.211705
C68   C     C_3   0.390887 0.070800 0.270823 -0.364313
C69   C     C_R   0.602677 0.965500 0.530140 0.281664
C70   C     C_R   0.494067 0.071195 0.498371 0.066644
Cl1   Cl    Cl    0.360211 0.700772 0.612251 -0.552108
Cl2   Cl    Cl    0.549059 0.291239 0.352770 -0.638159
Cl3   Cl    Cl    0.238777 0.073913 0.438115 -0.681978
Cl4   Cl    Cl    0.742195 0.924972 0.571345 -0.598384
Cu1   Cu    Cu3+1 0.499960 0.500000 0.573360 0.996793
Cu2   Cu    Cu3+1 0.500040 0.500000 0.426640 1.022017
H1    H     H_    0.880792 0.501674 0.434048 0.146820
H2    H     H_    0.695684 0.517312 0.334436 0.136172
H3    H     H_    0.549306 0.354412 0.876957 0.130747
H4    H     H_    0.520644 0.317747 0.781695 0.148017
H5    H     H_    0.344289 0.245990 0.804197 0.152970
H6    H     H_    0.489492 0.230088 0.871044 0.083712
H7    H     H_    0.374273 0.281658 0.899495 0.187061
H8    H     H_    0.701650 0.404606 0.188429 0.129175
H9    H     H_    0.844808 0.442706 0.246697 0.138393
H10   H     H_    0.897617 0.487214 0.129793 0.171341
H11   H     H_    0.877210 0.394209 0.127393 0.083014
H12   H     H_    0.120037 0.499152 0.566593 0.168867
H13   H     H_    0.755886 0.445998 0.073671 0.165858
H14   H     H_    0.672895 0.656087 0.855571 0.161128
H15   H     H_    0.815146 0.620168 0.837885 0.150602
H16   H     H_    0.891981 0.595012 0.971120 0.164155
H17   H     H_    0.873631 0.685361 0.952881 0.101509
H18   H     H_    0.763314 0.639443 0.992746 0.184236
H19   H     H_    0.120502 0.475325 0.164280 0.193216
H20   H     H_    0.213386 0.409593 0.131994 0.113616
H21   H     H_    0.144807 0.444310 0.004509 0.172128
H22   H     H_    0.010737 0.429239 0.040830 0.096613
H23   H     H_    0.571563 0.598619 0.944371 0.153477
H24   H     H_    0.063832 0.516845 0.031452 0.163712
H25   H     H_    0.707348 0.608199 0.633643 0.180783
H26   H     H_    0.787060 0.580263 0.724134 0.096237
H27   H     H_    0.769557 0.711685 0.764372 0.150955
H28   H     H_    0.865049 0.694638 0.699073 0.101467
H29   H     H_    0.709127 0.724828 0.665811 0.187440
H30   H     H_    0.328012 0.379923 0.341485 0.214735
H31   H     H_    0.308630 0.367645 0.242332 0.109922
H32   H     H_    0.079443 0.378434 0.224480 0.120172
H33   H     H_    0.137229 0.315032 0.292813 0.124423
H34   H     H_    0.363822 0.413695 0.050809 0.133069
H35   H     H_    0.101139 0.399016 0.323774 0.159631
H36   H     H_    0.438176 0.641765 0.109929 0.157060
H37   H     H_    0.492195 0.686682 0.037002 0.118645
H38   H     H_    0.668254 0.740459 0.135398 0.158312
H39   H     H_    0.518955 0.759023 0.154005 0.089895
H40   H     H_    0.614581 0.694844 0.207532 0.185290
H41   H     H_    0.243041 0.495061 0.825348 0.147805
H42   H     H_    0.189344 0.507184 0.910002 0.109626
H43   H     H_    0.048049 0.402029 0.873302 0.146017
H44   H     H_    0.017605 0.467059 0.802829 0.090766
H45   H     H_    0.925872 0.500130 0.607339 0.090564
H46   H     H_    0.102657 0.392019 0.788157 0.180539
H47   H     H_    0.754592 0.676962 0.506487 0.103830
H48   H     H_    0.790898 0.761221 0.474539 0.183883
H49   H     H_    0.828689 0.706574 0.358114 0.165754
H50   H     H_    0.927622 0.672989 0.442417 0.109001
H51   H     H_    0.793299 0.622771 0.390206 0.158515
H52   H     H_    0.726371 0.253704 0.643811 0.130796
H53   H     H_    0.665372 0.250213 0.726319 0.157831
H54   H     H_    0.828105 0.342286 0.739554 0.087292
H55   H     H_    0.742990 0.380801 0.654554 0.180582
H56   H     H_    0.073962 0.503575 0.393346 0.109641
H57   H     H_    0.680019 0.380007 0.737098 0.147872
H58   H     H_    0.435840 0.880526 0.336440 0.107939
H59   H     H_    0.500281 0.802795 0.306186 0.157313
H60   H     H_    0.671253 0.873109 0.275173 0.168302
H61   H     H_    0.519829 0.901001 0.225224 0.085395
H62   H     H_    0.608619 0.950536 0.306432 0.181402
H63   H     H_    0.312923 0.133795 0.597771 0.177882
H64   H     H_    0.370392 0.205994 0.663154 0.166439
H65   H     H_    0.459277 0.123870 0.762913 0.157310
H66   H     H_    0.293176 0.109015 0.726452 0.100866
H67   H     H_    0.295351 0.932946 0.444513 0.133859
H68   H     H_    0.400924 0.052324 0.697382 0.181279
H69   H     H_    0.200230 0.806051 0.590510 0.197210
H70   H     H_    0.210546 0.849819 0.506364 0.102693
H71   H     H_    0.231363 0.962717 0.578755 0.183414
H72   H     H_    0.088422 0.915095 0.578511 0.154124
H73   H     H_    0.216675 0.917252 0.661441 0.166692
H74   H     H_    0.418469 0.180320 0.270660 0.182057
H75   H     H_    0.323958 0.151092 0.332176 0.172911
H76   H     H_    0.382182 0.029558 0.310411 0.178021
H77   H     H_    0.304731 0.069960 0.224537 0.106501
H78   H     H_    0.690376 0.066390 0.551212 0.156646
H79   H     H_    0.471709 0.060607 0.246465 0.154737
H80   H     H_    0.389003 0.408138 0.666416 0.180738
N1    N     N_R   0.499990 0.500020 0.683620 -0.266454
N2    N     N_R   0.500010 0.499980 0.316380 -0.259037
O1    O     O_R   0.499950 0.400180 0.561970 -0.476338
O2    O     O_3   0.720363 0.514376 0.195864 -0.522861
O3    O     O_3   0.697008 0.549221 0.868132 -0.591073
O4    O     O_3   0.274849 0.513123 0.132064 -0.567751
O5    O     O_3   0.600702 0.611540 0.712627 -0.505259
O6    O     O_3   0.280498 0.468398 0.281708 -0.539421
O7    O     O_3   0.607638 0.610659 0.089560 -0.523872
O8    O     O_3   0.295377 0.419703 0.905980 -0.516719
O9    O     O_3   0.626289 0.711584 0.412382 -0.530923
O10   O     O_3   0.543604 0.291661 0.635663 -0.551138
O11   O     O_3   0.606718 0.852154 0.404192 -0.505288
O12   O     O_R   0.500050 0.599820 0.438030 -0.458985
O13   O     O_3   0.506930 0.149254 0.630676 -0.554054
O14   O     O_3   0.373644 0.852895 0.596020 -0.508031
O15   O     O_3   0.520082 0.141028 0.370242 -0.514468
O16   O     O_R   0.500010 0.400190 0.438070 -0.470426
O17   O     O_R   0.499990 0.599810 0.561930 -0.424777
O18   O     O_R   0.320670 0.500000 0.539180 -0.497828
O19   O     O_R   0.679330 0.500000 0.460820 -0.507028
O20   O     O_R   0.320730 0.500010 0.415280 -0.450136
O21   O     O_R   0.679270 0.499990 0.584720 -0.544993
O22   O     O_3   0.383189 0.380857 0.802189 -0.518379

loop_
_geom_bond_atom_site_label_1
_geom_bond_atom_site_label_2
_ccdc_geom_bond_type
C66   C68   S    
C59   H54   S    
C58   H52   S    
C51   H36   S    
C47   H25   S    
C54   H44   S    
C64   H69   S    
C27   C29   A    
C34   C37   A    
C40   H8    S    
C41   H13   S    
C55   O9    S    
C68   H79   S    
C61   H61   S    
C43   H18   S    
C42   O3    S    
C14   H23   S    
C49   H31   S    
C53   C54   S    
C15   C19   A    
C62   O13   S    
C12   C23   S    
Cu2   N2    S    
C51   H37   S    
C44   H20   S    
C60   O11   S    
C14   C21   A    
C35   C37   A    
C24   C26   D    
C66   H74   S    
Cu2   O20   S    
C57   H49   S    
C38   C39   S    
C53   H41   S    
C61   H62   S    
C38   H3    S    
C58   H53   S    
C17   O19   A    
C48   H28   S    
C33   C36   A    
C42   H15   S    
C49   C50   S    
C14   C18   A    
C50   H35   S    
C49   O6    S    
C4    N2    A    
C48   H29   S    
C44   C46   S    
C22   C25   D    
C45   C67   A    
C63   H68   S    
C31   C33   A    
C66   O15   S    
C67   Cl3   S    
C19   O8    S    
C23   C27   A    
C62   H63   S    
C65   H71   S    
C2    C69   A    
C58   O10   S    
C36   Cl1   S    
C47   O5    S    
C17   O21   A    
C46   H22   S    
C28   C34   A    
C10   O4    S    
C47   H26   S    
C54   H43   S    
C50   H32   S    
C15   H34   S    
C44   O4    S    
C18   O7    S    
C16   O20   A    
C1    C34   S    
C52   H40   S    
C2    C45   A    
C15   C20   A    
C41   H11   S    
C55   H47   S    
C1    O16   A    
C26   H1    S    
C38   O22   S    
Cu1   O17   S    
C51   C52   S    
C35   O15   S    
C32   C35   A    
C12   O12   A    
C1    O1    A    
C39   H5    S    
C4    C6    A    
C68   H77   S    
C57   H50   S    
C5    C7    A    
C53   H42   S    
C6    C8    A    
C25   C26   S    
C7    C21   S    
C48   H27   S    
C59   H57   S    
C50   H33   S    
C60   C61   S    
C42   H14   S    
C40   H9    S    
C64   O14   S    
Cu2   O12   S    
Cu1   Cu2   S    
C5    O22   S    
C4    H2    S    
C62   C63   S    
C68   H76   S    
C6    O2    S    
C47   C48   S    
C59   H55   S    
C11   O5    S    
C63   H65   S    
C69   Cl4   S    
C8    C20   S    
C65   H72   S    
C9    O3    S    
C9    C11   A    
C60   H59   S    
C12   O17   A    
C56   H78   S    
C40   C41   S    
C46   H21   S    
Cu2   O19   S    
C56   C70   A    
C55   C57   S    
C51   O7    S    
C42   C43   S    
C60   H58   S    
C13   N2    A    
Cu1   O21   S    
C11   N1    A    
C13   O6    S    
C45   H67   S    
C52   H39   S    
Cu1   O1    S    
C7    C9    A    
C46   H24   S    
C55   H48   S    
C64   H70   S    
C16   C22   S    
C22   H56   S    
Cu1   O18   S    
C40   O2    S    
C39   H6    S    
C3    C5    A    
C10   C13   A    
C57   H51   S    
C32   C70   S    
C49   H30   S    
C23   C36   A    
C52   H38   S    
C43   H16   S    
C67   C70   A    
C29   O11   S    
C64   C65   S    
C28   C30   A    
C17   C24   S    
C58   C59   S    
C39   H7    S    
C66   H75   S    
C29   C31   A    
C44   H19   S    
C30   C32   A    
Cu1   N1    S    
C38   H4    S    
Cu2   O16   S    
C24   H45   S    
C43   H17   S    
C63   H66   S    
C18   C20   A    
C25   H12   S    
C65   H73   S    
C30   O13   S    
C41   H10   S    
C16   O18   A    
C28   O10   S    
C53   O8    S    
C54   H46   S    
C3    H80   S    
C8    C10   A    
C56   C69   A    
C37   Cl2   S    
C3    N1    A    
C2    C31   S    
C62   H64   S    
C33   O14   S    
C61   H60   S    
C27   O9    S    
C19   C21   A    
