data_mof_unit_42265.cif
_audit_creation_date              2012-12-10T17:50:40-0500
_audit_creation_method            fapswitch 2.2
_symmetry_space_group_name_H-M    P1
_symmetry_Int_Tables_number       1
_space_group_crystal_system       triclinic
_cell_length_a                    14.698563
_cell_length_b                    14.736576
_cell_length_c                    15.871169
_cell_angle_alpha                 76.847694
_cell_angle_beta                  102.873285
_cell_angle_gamma                 114.879526
_cell_volume                      3005.36156222

loop_
_atom_site_label
_atom_site_type_symbol
_atom_type_description
_atom_site_fract_x
_atom_site_fract_y
_atom_site_fract_z
_atom_type_partial_charge
C1    C     C_R   0.880277 0.312352 0.513676 0.794787
C2    C     C_R   0.119733 0.687646 0.484684 0.796157
C3    C     C_R   0.783761 0.030302 0.518929 -0.199137
C4    C     C_R   0.215468 0.972467 0.436991 -0.198927
C5    C     C_R   0.850437 0.130258 0.523921 -0.195853
C6    C     C_R   0.149235 0.871275 0.448429 -0.196695
C7    C     C_R   0.707971 0.179070 0.502302 -0.248902
C8    C     C_R   0.291880 0.820971 0.482052 -0.253984
C9    C     C_R   0.639168 0.079878 0.492843 0.089114
C10   C     C_R   0.360060 0.922224 0.468057 0.088513
C11   C     C_R   0.678684 0.004577 0.503451 0.163089
C12   C     C_R   0.320366 0.998499 0.447599 0.165033
C13   C     C_R   0.532507 0.053389 0.474604 0.064613
C14   C     C_R   0.466518 0.949643 0.476650 0.064286
C15   C     C_R   0.509031 0.877087 0.485643 -0.219993
C16   C     C_R   0.489709 0.127240 0.452505 -0.220029
C17   C     C_R   0.613121 0.904496 0.498159 -0.226995
C18   C     C_R   0.385622 0.099970 0.438430 -0.228109
C19   C     C_R   0.710002 0.659157 0.347692 -0.309945
C20   C     C_R   0.290753 0.341751 0.652552 -0.307053
C21   C     C_R   0.795070 0.635348 0.375224 0.081861
C22   C     C_R   0.205221 0.364747 0.624774 0.081728
C23   C     C_R   0.999693 0.499984 0.659982 0.827936
C24   C     C_R   0.000308 0.500014 0.340022 0.827268
C25   C     C_R   0.715518 0.511313 0.489188 0.015171
C26   C     C_R   0.284651 0.489394 0.511069 0.015794
C27   C     C_R   0.630549 0.538825 0.469752 -0.019660
C28   C     C_R   0.370092 0.462643 0.530627 -0.019623
C29   C     C_R   0.626260 0.608566 0.393004 0.113923
C30   C     C_R   0.374622 0.392996 0.607428 0.115583
C31   C     C_R   0.547379 0.495164 0.519508 0.012566
C32   C     C_R   0.453441 0.506884 0.480990 0.011723
C33   C     C_R   0.447353 0.561758 0.394477 0.156046
C34   C     C_R   0.553722 0.440770 0.606149 0.158740
C35   C     C_R   0.535818 0.620409 0.357291 -0.205895
C36   C     C_R   0.465373 0.381920 0.643413 -0.200840
C37   C     C_3   0.933146 0.411552 0.032765 0.183111
C38   C     C_3   0.066932 0.588413 0.967289 0.183392
C39   C     C_3   0.907844 0.486523 0.956172 0.190826
C40   C     C_3   0.092235 0.513442 0.043883 0.190977
C41   C     C_1   0.999263 0.500050 0.749457 -0.180450
C42   C     C_1   0.000750 0.499941 0.250560 -0.179283
C43   C     C_3   0.025525 0.423945 0.992829 -0.247349
C44   C     C_3   0.974553 0.576019 0.007222 -0.246875
C45   C     C_3   0.999885 0.499894 0.916687 0.092249
C46   C     C_3   0.000191 0.500073 0.083361 0.092111
C47   C     C_1   0.999434 0.499982 0.824966 -0.028309
C48   C     C_1   0.000609 0.499998 0.175065 -0.028337
C49   C     C_R   0.812638 0.205209 0.515146 -0.052173
C50   C     C_R   0.187347 0.795061 0.471845 -0.051413
Cu1   Cu    Cu3+1 0.081740 0.475690 0.522610 0.936041
Cu2   Cu    Cu3+1 0.918260 0.524310 0.477390 0.936110
H1    H     H_    0.282245 0.552774 0.462541 0.146361
H2    H     H_    0.717697 0.448010 0.537952 0.146597
H3    H     H_    0.140621 0.325923 0.659739 0.124451
H4    H     H_    0.859614 0.673769 0.340164 0.123933
H5    H     H_    0.708496 0.714504 0.289816 0.136593
H6    H     H_    0.292502 0.286529 0.710476 0.136501
H7    H     H_    0.953720 0.638103 0.013580 0.150425
H8    H     H_    0.046358 0.361860 0.986473 0.150191
H9    H     H_    0.642469 0.846576 0.504496 0.148557
H10   H     H_    0.356072 0.158958 0.421545 0.146682
H11   H     H_    0.318661 0.760687 0.503482 0.152416
H12   H     H_    0.681958 0.237592 0.501126 0.148494
H13   H     H_    0.068539 0.852830 0.439883 0.153146
H14   H     H_    0.931253 0.148928 0.533835 0.154562
H15   H     H_    0.814347 0.973167 0.526315 0.134122
H16   H     H_    0.184720 0.030507 0.420358 0.133487
H17   H     H_    0.463874 0.798474 0.480530 0.144374
H18   H     H_    0.534459 0.207386 0.442841 0.146451
H19   H     H_    0.531291 0.667329 0.294219 0.149370
H20   H     H_    0.470137 0.335339 0.706635 0.148108
N1    N     N_R   0.795440 0.560790 0.443380 -0.180797
N2    N     N_R   0.204560 0.439210 0.556620 -0.181073
O1    O     O_R   0.977900 0.338120 0.529810 -0.589817
O2    O     O_R   0.022100 0.661880 0.470190 -0.589739
O3    O     O_R   0.839850 0.379180 0.491620 -0.590311
O4    O     O_R   0.160150 0.620820 0.508380 -0.591090
O5    O     O_R   0.069010 0.479460 0.640020 -0.577396
O6    O     O_R   0.930990 0.520540 0.359980 -0.577986
O7    O     O_R   0.930960 0.520530 0.601820 -0.577546
O8    O     O_R   0.069040 0.479470 0.398180 -0.578140
C51   C     C_3   0.802974 0.471109 0.905364 -0.875432
H21   H     H_    0.751260 0.463237 0.950357 0.236453
H22   H     H_    0.807703 0.537190 0.853649 0.236503
H23   H     H_    0.772845 0.401641 0.874623 0.238215
C52   C     C_3   0.197105 0.528870 0.094709 -0.875655
H24   H     H_    0.248819 0.536700 0.049731 0.236400
H25   H     H_    0.227236 0.598368 0.125407 0.238475
H26   H     H_    0.192383 0.462824 0.146463 0.236024
C53   C     C_3   0.349552 0.548657 0.332760 -0.900201
H27   H     H_    0.358788 0.544976 0.266143 0.238783
H28   H     H_    0.286999 0.476116 0.351868 0.241255
H29   H     H_    0.328839 0.614158 0.327816 0.228263
C54   C     C_3   0.651689 0.454688 0.667815 -0.899485
H30   H     H_    0.642613 0.459603 0.734107 0.238683
H31   H     H_    0.672401 0.388994 0.673724 0.228559
H32   H     H_    0.714222 0.526886 0.647959 0.241440
C55   C     C_3   0.856905 0.310982 0.070678 -0.862351
H33   H     H_    0.819292 0.261564 0.019308 0.234502
H34   H     H_    0.896456 0.273320 0.125605 0.233178
H35   H     H_    0.798937 0.324103 0.095000 0.238683
C56   C     C_3   0.143176 0.688991 0.929396 -0.862623
H36   H     H_    0.180776 0.738395 0.980777 0.234753
H37   H     H_    0.201152 0.675879 0.905078 0.238424
H38   H     H_    0.103630 0.726661 0.874472 0.233306

loop_
_geom_bond_atom_site_label_1
_geom_bond_atom_site_label_2
_ccdc_geom_bond_type
C52   H24   S    
C27   C29   A    
C1    O3    A    
C54   H30   S    
Cu1   N2    S    
C54   H32   S    
C20   C30   A    
C19   H5    S    
C40   C46   S    
C40   C52   S    
C19   C21   A    
Cu1   O1    S    
C33   C53   S    
C33   C35   A    
C44   H7    S    
C21   N1    A    
C24   C42   S    
C15   C17   A    
C9    C13   A    
C38   C45   S    
C24   O8    A    
C2    C50   S    
C17   H9    S    
C24   O6    A    
C6    H13   S    
C51   H21   S    
C4    C12   A    
C25   N1    A    
C39   C45   S    
C35   H19   S    
C13   C14   A    
C5    C49   A    
C44   C46   S    
C45   C47   S    
C15   H17   S    
C46   C48   S    
C27   C31   A    
Cu1   Cu2   S    
C1    O1    A    
C28   C32   A    
C16   H18   S    
C25   H2    S    
C7    C49   A    
C4    C6    A    
Cu2   N1    S    
C10   C14   A    
C53   H27   S    
C4    H16   S    
C18   H10   S    
C3    C5    A    
C6    C50   A    
C37   C43   S    
C38   C44   S    
C38   C56   S    
C2    O4    A    
C53   H28   S    
C9    C11   A    
C31   C32   A    
C40   C43   S    
C51   H23   S    
C41   C47   T    
C31   C34   A    
C56   H37   S    
C42   C48   T    
C34   C54   S    
C43   C45   S    
Cu1   O8    S    
C22   H3    S    
C10   C12   A    
C43   H8    S    
C16   C18   A    
C55   H34   S    
C20   C22   A    
C52   H25   S    
C52   H26   S    
C22   N2    A    
C20   H6    S    
Cu2   O3    S    
C19   C29   A    
C26   H1    S    
C8    C50   A    
C37   C55   S    
C2    O2    A    
C7    C9    A    
C11   C17   A    
C23   O7    A    
C51   H22   S    
C3    H15   S    
C5    H14   S    
Cu2   O2    S    
C21   H4    S    
C54   H31   S    
C39   C44   S    
C25   C27   A    
C29   C35   A    
C26   C28   A    
C23   C41   S    
C55   H33   S    
C30   C36   A    
C32   C33   A    
C28   C30   A    
Cu1   O4    S    
C39   C51   S    
C37   C39   S    
C53   H29   S    
C38   C40   S    
C26   N2    A    
C56   H38   S    
C34   C36   A    
Cu2   O7    S    
Cu1   O5    S    
C7    H12   S    
C3    C11   A    
C8    H11   S    
C55   H35   S    
C8    C10   A    
C13   C16   A    
C12   C18   A    
C56   H36   S    
C14   C15   A    
C23   O5    A    
C37   C46   S    
Cu2   O6    S    
C1    C49   S    
C36   H20   S    
