data_mof_unit_19007.cif
_audit_creation_date              2012-12-10T16:59:19-0500
_audit_creation_method            fapswitch 2.2
_symmetry_space_group_name_H-M    P1
_symmetry_Int_Tables_number       1
_space_group_crystal_system       triclinic
_cell_length_a                    7.720836
_cell_length_b                    8.613827
_cell_length_c                    27.538992
_cell_angle_alpha                 89.387558
_cell_angle_beta                  86.938388
_cell_angle_gamma                 92.494739
_cell_volume                      1827.00370749

loop_
_atom_site_label
_atom_site_type_symbol
_atom_type_description
_atom_site_fract_x
_atom_site_fract_y
_atom_site_fract_z
_atom_type_partial_charge
C1    C     C_R   0.543986 0.794312 0.497763 0.963332
C2    C     C_R   0.456441 0.205797 0.502973 0.958325
C3    C     C_R   0.386016 0.540098 0.898375 -0.149365
C4    C     C_R   0.350054 0.541200 0.102732 -0.176144
C5    C     C_R   0.525912 0.623798 0.873835 -0.170801
C6    C     C_R   0.266068 0.413461 0.128345 -0.119223
C7    C     C_R   0.606249 0.751359 0.896979 0.477293
C8    C     C_R   0.174094 0.298048 0.103139 0.447720
C9    C     C_R   0.275920 0.437595 0.872700 -0.020866
C10   C     C_R   0.442794 0.656916 0.128461 -0.010397
C11   C     C_R   0.509146 0.503254 0.647477 -0.130200
C12   C     C_R   0.476713 0.488605 0.352300 -0.166330
C13   C     C_R   0.447827 0.668968 0.025351 0.065518
C14   C     C_R   0.242412 0.452940 0.975037 0.052508
C15   C     C_R   0.250227 0.435892 0.026080 -0.054750
C16   C     C_R   0.453063 0.674058 0.973564 -0.071017
C17   C     C_R   0.345367 0.551086 0.051416 0.056878
C18   C     C_R   0.360331 0.556160 0.949153 0.046798
C19   C     C_R   0.561239 0.763935 0.051467 -0.291997
C20   C     C_R   0.114906 0.374345 0.949058 -0.247864
C21   C     C_R   0.551594 0.769209 0.102085 0.192995
C22   C     C_R   0.128771 0.364201 0.898352 0.174126
C23   C     C_R   0.504065 0.499987 0.594201 0.898916
C24   C     C_R   0.495411 0.498617 0.405546 0.898436
C25   C     C_R   0.547986 0.790182 0.944272 0.105006
C26   C     C_R   0.182028 0.299706 0.051907 0.008309
C27   C     C_2   0.558411 0.955457 0.488386 -0.085080
C28   C     C_2   0.445160 0.045248 0.514070 -0.096023
C29   C     C_R   0.571499 0.584214 0.825798 0.520313
C30   C     C_R   0.289769 0.397470 0.178481 0.568436
C31   C     C_R   0.315340 0.420137 0.822392 0.524575
C32   C     C_R   0.432654 0.647459 0.179606 0.510997
C33   C     C_R   0.608111 0.410363 0.724631 -0.125947
C34   C     C_R   0.577476 0.517201 0.267428 -0.100161
C35   C     C_R   0.624721 0.413320 0.673697 0.051634
C36   C     C_R   0.613798 0.527014 0.316585 0.062743
C37   C     C_R   0.386607 0.593865 0.673028 0.393960
C38   C     C_R   0.310797 0.438793 0.336576 0.407820
C39   C     C_R   0.373827 0.587513 0.723606 -0.244619
C40   C     C_R   0.276151 0.450376 0.287437 -0.221673
C41   C     C_R   0.481150 0.494444 0.749072 0.239999
C42   C     C_R   0.408218 0.492260 0.252998 0.207815
H1    H     H_    0.014980 0.382989 0.464227 0.225992
H2    H     H_    0.985007 0.617245 0.535691 0.195044
H3    H     H_    0.279503 0.655077 0.743657 0.150085
H4    H     H_    0.146201 0.425900 0.275877 0.159889
H5    H     H_    0.680034 0.537891 0.239498 0.151381
H6    H     H_    0.693002 0.341833 0.745502 0.156936
H7    H     H_    0.666225 0.830617 0.032733 0.152754
H8    H     H_    0.002764 0.320460 0.968454 0.181890
N1    N     N_R   0.461464 0.491501 0.800814 -0.334870
N2    N     N_R   0.372094 0.513605 0.202787 -0.347849
N3    N     N_2   0.950320 0.457960 0.486880 -0.175323
N4    N     N_2   0.049680 0.542040 0.513120 -0.172598
O1    O     O_R   0.389250 0.738570 0.503220 -0.637295
O2    O     O_R   0.610750 0.261430 0.496780 -0.642566
O3    O     O_R   0.678390 0.711630 0.494810 -0.623521
O4    O     O_R   0.321610 0.288370 0.505190 -0.621459
O5    O     O_R   0.355440 0.513440 0.575450 -0.577630
O6    O     O_R   0.644560 0.486560 0.424550 -0.647236
O7    O     O_R   0.644590 0.486500 0.567040 -0.635004
O8    O     O_R   0.355410 0.513500 0.432960 -0.551181
O9    O     O_2   0.722110 0.639220 0.803562 -0.549736
O10   O     O_2   0.237424 0.264922 0.202546 -0.488393
O11   O     O_2   0.482920 0.769277 0.206558 -0.556116
O12   O     O_2   0.211206 0.333415 0.794646 -0.578303
Zn1   Zn    Zn3+2 0.306940 0.517990 0.505620 0.972360
Zn2   Zn    Zn3+2 0.693060 0.482010 0.494380 0.924747
O13   O     O_3   0.281461 0.688904 0.647903 -0.782906
H9    H     H_    0.203383 0.743116 0.671233 0.332707
O14   O     O_3   0.184184 0.378127 0.369767 -0.771507
H10   H     H_    0.086384 0.331432 0.352228 0.322797
O15   O     O_3   0.728998 0.848972 0.872962 -0.761085
H11   H     H_    0.682637 0.877803 0.841381 0.350720
O16   O     O_3   0.089605 0.176380 0.128967 -0.713542
H12   H     H_    0.984461 0.144992 0.111985 0.341169
C43   C     C_3   0.799687 0.575544 0.327417 -0.400647
C44   C     C_3   0.868579 0.721722 0.299079 -0.820135
H13   H     H_    0.907235 0.693573 0.260898 0.254918
H14   H     H_    0.768855 0.810813 0.299247 0.283251
H15   H     H_    0.985921 0.771234 0.315959 0.258393
H16   H     H_    0.817841 0.600033 0.365824 0.251247
H17   H     H_    0.882900 0.478418 0.317309 0.201587
C45   C     C_3   0.764967 0.317955 0.649707 -0.428719
C46   C     C_3   0.936651 0.412757 0.643799 -0.699033
H18   H     H_    0.920953 0.520736 0.622434 0.262000
H19   H     H_    0.983479 0.444332 0.680005 0.264542
H20   H     H_    0.035704 0.343032 0.624499 0.240100
H21   H     H_    0.784815 0.213193 0.672355 0.204613
H22   H     H_    0.728066 0.272474 0.614106 0.220894
C47   C     C_3   0.674892 0.885961 0.125128 -0.349959
C48   C     C_3   0.832418 0.807585 0.144115 -0.796631
H23   H     H_    0.792699 0.714544 0.171036 0.258973
H24   H     H_    0.908667 0.755755 0.113508 0.241872
H25   H     H_    0.916940 0.894854 0.161940 0.286905
H26   H     H_    0.723178 0.976116 0.098059 0.166000
H27   H     H_    0.607820 0.954590 0.153576 0.267540
C49   C     C_3   0.984270 0.273852 0.874362 -0.367568
C50   C     C_3   0.033861 0.107501 0.863275 -0.707495
H28   H     H_    0.019171 0.035008 0.896906 0.249556
H29   H     H_    0.947596 0.058046 0.835910 0.276384
H30   H     H_    0.169947 0.102281 0.848531 0.265535
H31   H     H_    0.863784 0.267442 0.898478 0.185630
H32   H     H_    0.946287 0.335694 0.841297 0.254104
C51   C     C_3   0.565552 0.960974 0.958565 -0.385462
C52   C     C_3   0.485972 0.070653 0.922482 -0.873096
H33   H     H_    0.561124 0.078934 0.887143 0.279043
H34   H     H_    0.350238 0.031092 0.916429 0.259034
H35   H     H_    0.486671 0.189996 0.937349 0.241753
H36   H     H_    0.496141 0.981560 0.993916 0.197233
H37   H     H_    0.704435 0.995774 0.961175 0.224061
C53   C     C_3   0.177313 0.140847 0.027653 -0.348577
C54   C     C_3   0.995732 0.067034 0.021941 -0.950293
H38   H     H_    0.973600 0.965586 0.046963 0.267187
H39   H     H_    0.892115 0.150552 0.029234 0.249586
H40   H     H_    0.986725 0.022775 0.984481 0.257398
H41   H     H_    0.247597 0.147095 0.991807 0.220623
H42   H     H_    0.252775 0.059539 0.048997 0.222984
C55   C     C_3   0.674410 0.014958 0.443923 -0.395629
C56   C     C_3   0.723933 0.894355 0.406015 -0.845275
H43   H     H_    0.822079 0.817005 0.419701 0.279774
H44   H     H_    0.607196 0.825832 0.395360 0.255193
H45   H     H_    0.783929 0.955609 0.373236 0.250653
H46   H     H_    0.605222 0.103408 0.423593 0.220305
H47   H     H_    0.796381 0.069966 0.456717 0.236452
C57   C     C_3   0.326797 0.993236 0.558736 -0.388559
C58   C     C_3   0.351108 0.095101 0.603191 -0.875240
H48   H     H_    0.488862 0.098442 0.612704 0.248501
H49   H     H_    0.309141 0.214253 0.596585 0.262706
H50   H     H_    0.270451 0.045638 0.634706 0.267180
H51   H     H_    0.189166 0.994784 0.548898 0.222062
H52   H     H_    0.351264 0.875267 0.572089 0.274201

loop_
_geom_bond_atom_site_label_1
_geom_bond_atom_site_label_2
_ccdc_geom_bond_type
C31   O12   S    
C38   C40   A    
C51   H36   S    
C29   O9    S    
C57   C58   S    
C22   C49   S    
C30   O10   S    
C8    C26   A    
O15   H11   S    
C14   C18   A    
C34   C42   A    
O7    Zn2   S    
C25   C51   S    
C7    O15   S    
N3    N4    D    
C23   O5    A    
O8    Zn1   S    
C10   C32   A    
C57   H51   S    
C19   C21   A    
C29   N1    A    
C37   O13   S    
C36   C43   S    
C46   H18   S    
C53   H41   S    
C44   H14   S    
C9    C22   A    
C52   H33   S    
C43   H17   S    
C49   H31   S    
C3    C18   A    
C11   C37   A    
N3    Zn2   S    
C32   N2    A    
C20   H8    S    
O5    Zn1   S    
C47   H26   S    
H1    N3    S    
C56   H44   S    
C12   C36   A    
C56   H45   S    
C43   C44   S    
C39   H3    S    
C54   H40   S    
C40   C42   A    
C51   H37   S    
C45   H22   S    
C53   C54   S    
C28   C57   S    
C5    C29   A    
C46   H19   S    
C10   C21   A    
C13   C19   A    
C14   C20   A    
C45   C46   S    
C4    C6    A    
C47   C48   S    
C5    C7    A    
C44   H13   S    
C15   C26   A    
C6    C8    A    
N4    Zn1   S    
C55   H46   S    
C48   H25   S    
C40   H4    S    
O16   H12   S    
C58   H49   S    
C3    C9    A    
C1    O3    A    
C19   H7    S    
C50   H28   S    
C57   H52   S    
C24   O6    A    
C48   H24   S    
C47   H27   S    
C55   C56   S    
O6    Zn2   S    
C2    O2    A    
C4    C17   A    
C55   H47   S    
C6    C30   A    
C20   C22   A    
C45   H21   S    
O3    Zn2   S    
C4    C10   A    
C58   H48   S    
C26   C53   S    
C56   H43   S    
C54   H38   S    
C21   C47   S    
C46   H20   S    
C16   C25   A    
C15   C17   A    
C30   N2    A    
C38   O14   S    
C24   O8    A    
C50   H29   S    
C31   N1    A    
C3    C5    A    
O1    Zn1   S    
C35   C45   S    
C2    O4    A    
C27   C55   S    
C51   C52   S    
C12   C24   S    
C7    C25   A    
C13   C17   A    
C33   C41   A    
C11   C35   A    
C1    O1    A    
C58   H50   S    
O14   H10   S    
C37   C39   A    
O2    Zn2   S    
C53   H42   S    
C44   H15   S    
C52   H34   S    
C43   H16   S    
C49   H32   S    
C11   C23   S    
C48   H23   S    
C33   C35   A    
C34   C36   A    
C8    O16   S    
C12   C38   A    
O13   H9    S    
C9    C31   A    
H2    N4    S    
O4    Zn1   S    
C23   O7    A    
C50   H30   S    
C39   C41   A    
C16   C18   A    
C49   C50   S    
C13   C16   A    
C27   C28   D    
C1    C27   S    
C33   H6    S    
C14   C15   A    
C2    C28   S    
C34   H5    S    
C41   N1    S    
C42   N2    S    
C32   O11   S    
C54   H39   S    
C52   H35   S    
