data_mof_unit_8735.cif
_audit_creation_date              2012-12-11T17:04:54-0500
_audit_creation_method            fapswitch 2.2
_symmetry_space_group_name_H-M    P1
_symmetry_Int_Tables_number       1
_space_group_crystal_system       triclinic
_cell_length_a                    17.319294
_cell_length_b                    24.279013
_cell_length_c                    14.872798
_cell_angle_alpha                 90.172338
_cell_angle_beta                  125.451013
_cell_angle_gamma                 89.886976
_cell_volume                      5094.51165652

loop_
_atom_site_label
_atom_site_type_symbol
_atom_type_description
_atom_site_fract_x
_atom_site_fract_y
_atom_site_fract_z
_atom_type_partial_charge
C1    C     C_R   0.851264 0.652589 0.906207 -0.202625
C2    C     C_R   0.932533 0.499330 0.629467 -0.067486
C3    C     C_R   0.758982 0.046534 0.302613 -0.182272
C4    C     C_R   0.851740 0.348473 0.910464 -0.151712
C5    C     C_R   0.188040 0.374375 0.088945 -0.141170
C6    C     C_R   0.351815 0.848440 0.910521 -0.152024
C7    C     C_R   0.688138 0.874501 0.089042 -0.141289
C8    C     C_R   0.942652 0.653990 0.088472 -0.007174
C9    C     C_R   0.098946 0.626797 0.909774 -0.153154
C10   C     C_R   0.442622 0.153996 0.088421 -0.007116
C11   C     C_R   0.598837 0.126853 0.909690 -0.153206
C12   C     C_R   0.881278 0.685596 0.995947 0.063690
C13   C     C_R   0.448768 0.999312 0.274517 -0.078971
C14   C     C_R   0.189245 0.638783 0.002966 0.084372
C15   C     C_R   0.381180 0.185574 0.995855 0.063169
C16   C     C_R   0.689097 0.138903 0.002831 0.084791
C17   C     C_3   0.246942 0.597807 0.829732 -0.273291
C18   C     C_3   0.004135 0.775504 0.275845 -0.277109
C19   C     C_3   0.746632 0.097928 0.829413 -0.272688
C20   C     C_3   0.504096 0.275486 0.275696 -0.278410
C21   C     C_3   0.186794 0.771282 0.088980 -0.119388
C22   C     C_3   0.731462 0.765438 0.676804 -0.244686
C23   C     C_3   0.686824 0.271457 0.088890 -0.120642
C24   C     C_R   0.432527 0.999328 0.629465 -0.067839
C25   C     C_3   0.231556 0.265437 0.676751 -0.244618
C26   C     C_3   0.076538 0.614032 0.367615 -0.316481
C27   C     C_3   0.861716 0.622424 0.664089 -0.308223
C28   C     C_3   0.576354 0.114080 0.367546 -0.315175
C29   C     C_3   0.361476 0.122327 0.664060 -0.307540
C30   C     C_R   0.675006 0.500900 0.722895 0.036308
C31   C     C_R   0.308335 0.499759 0.361088 0.046373
C32   C     C_R   0.175011 0.999980 0.722725 0.034936
C33   C     C_R   0.808196 0.000719 0.361271 0.047937
C34   C     C_3   0.495827 0.466453 0.629395 -0.153376
C35   C     C_3   0.464293 0.448417 0.512875 -0.166757
C36   C     C_3   0.010696 0.948362 0.590865 -0.165889
C37   C     C_R   0.192210 0.623034 0.093897 -0.022534
C38   C     C_3   0.979440 0.966886 0.475313 -0.152480
C39   C     C_3   0.429446 0.517530 0.579512 -0.155482
C40   C     C_3   0.543685 0.482912 0.523960 -0.144208
C41   C     C_3   0.929677 0.982401 0.579438 -0.155741
C42   C     C_3   0.043400 0.017836 0.524073 -0.135279
C43   C     C_3   0.400454 0.499336 0.465199 0.184557
C44   C     C_3   0.574112 0.500988 0.639079 0.180927
C45   C     C_3   0.900375 0.000859 0.465324 0.179773
C46   C     C_3   0.074130 0.999476 0.638986 0.182953
C47   C     C_3   0.479297 0.533708 0.475867 -0.143323
C48   C     C_R   0.351132 0.152543 0.906134 -0.202350
C49   C     C_3   0.510217 0.551951 0.591589 -0.158143
C50   C     C_3   0.963808 0.051941 0.513682 -0.155149
C51   C     C_3   0.995621 0.033628 0.629958 -0.149257
C52   C     C_R   0.884437 0.239183 0.109059 0.081938
C53   C     C_R   0.226644 0.307648 0.888582 0.067061
C54   C     C_R   0.384464 0.739157 0.109163 0.082352
C55   C     C_R   0.726722 0.807668 0.888721 0.066732
C56   C     C_R   0.863691 0.259726 0.009713 0.012070
C57   C     C_R   0.253561 0.332846 0.987310 0.034711
C58   C     C_R   0.363711 0.759704 0.009813 0.012332
C59   C     C_R   0.692119 0.123160 0.093788 -0.022530
C60   C     C_R   0.753669 0.832901 0.987437 0.034660
C61   C     C_R   0.811801 0.226293 0.914951 -0.361333
C62   C     C_R   0.345882 0.323564 0.081470 -0.403048
C63   C     C_R   0.311876 0.726245 0.915079 -0.361345
C64   C     C_R   0.845978 0.823598 0.081604 -0.402750
C65   C     C_R   0.946471 0.348963 0.093543 -0.152831
C66   C     C_R   0.094679 0.376665 0.904467 -0.137596
C67   C     C_R   0.446451 0.848974 0.093581 -0.152333
C68   C     C_R   0.594754 0.876704 0.904529 -0.137637
C69   C     C_R   0.264957 0.679124 0.915235 0.623478
C70   C     C_R   0.883328 0.317213 0.003494 0.111481
C71   C     C_R   0.899298 0.778328 0.084138 0.650399
C72   C     C_R   0.764799 0.179210 0.915072 0.623284
C73   C     C_R   0.399221 0.278313 0.083996 0.650466
C74   C     C_R   0.265261 0.668618 0.009305 -0.144448
C75   C     C_R   0.856961 0.744043 0.989410 -0.147864
C76   C     C_R   0.765097 0.168727 0.009141 -0.144726
C77   C     C_R   0.356878 0.244023 0.989278 -0.147415
C78   C     C_R   0.333510 0.695508 0.108027 -0.115167
C79   C     C_R   0.778360 0.764369 0.889384 -0.087784
C80   C     C_R   0.833404 0.195578 0.107891 -0.112882
C81   C     C_R   0.183172 0.361374 0.994424 0.103017
C82   C     C_R   0.278293 0.264357 0.889244 -0.089636
C83   C     C_3   0.332685 0.720383 0.200773 0.568098
C84   C     C_3   0.689199 0.736078 0.795980 0.555297
C85   C     C_3   0.832625 0.220473 0.200658 0.567941
C86   C     C_3   0.189136 0.236087 0.795785 0.557515
C87   C     C_3   0.890909 0.267769 0.203002 -0.657861
C88   C     C_3   0.133496 0.283870 0.796228 -0.627993
C89   C     C_3   0.390883 0.767728 0.203081 -0.657855
C90   C     C_3   0.633564 0.783863 0.796426 -0.627332
C91   C     C_R   0.885258 0.547427 0.458829 0.236857
C92   C     C_R   0.383343 0.817200 0.003562 0.111478
C93   C     C_R   0.888672 0.547214 0.367601 0.226309
C94   C     C_R   0.385221 0.047421 0.458806 0.236704
C95   C     C_R   0.388630 0.047209 0.367571 0.226047
C96   C     C_R   0.895320 0.498045 0.512795 0.026085
C97   C     C_R   0.902090 0.497845 0.330288 0.031475
C98   C     C_R   0.395304 0.998040 0.512786 0.026449
C99   C     C_R   0.402066 0.997841 0.330269 0.031520
C100  C     C_R   0.891581 0.447938 0.462989 -0.202401
C101  C     C_R   0.894272 0.447839 0.371583 -0.201416
C102  C     C_R   0.391578 0.947933 0.462988 -0.201579
C103  C     C_R   0.683287 0.861463 0.994533 0.102949
C104  C     C_R   0.394263 0.947834 0.371577 -0.201817
C105  C     C_3   0.802790 0.582783 0.302137 -0.500490
C106  C     C_3   0.798508 0.582997 0.400178 -0.488736
C107  C     C_3   0.302727 0.082762 0.302104 -0.499942
C108  C     C_3   0.298455 0.082977 0.400152 -0.489181
C109  C     C_R   0.982374 0.545605 0.252361 0.597599
C110  C     C_R   0.949613 0.545308 0.693539 0.596512
C111  C     C_R   0.482347 0.045603 0.252335 0.597243
C112  C     C_R   0.449587 0.045307 0.693527 0.596270
C113  C     C_R   0.730908 0.454627 0.749997 -0.133401
C114  C     C_R   0.948782 0.499315 0.274528 -0.079178
C115  C     C_R   0.258999 0.454263 0.300532 -0.137264
C116  C     C_R   0.231284 0.954135 0.749448 -0.119999
C117  C     C_R   0.758924 0.954809 0.301677 -0.148770
C118  C     C_R   0.980345 0.453951 0.247835 -0.237022
C119  C     C_R   0.948256 0.454389 0.694314 -0.263423
C120  C     C_R   0.480352 0.953951 0.247844 -0.237520
C121  C     C_R   0.448271 0.954387 0.694321 -0.262622
C122  C     C_R   0.730511 0.546984 0.749241 -0.157452
C123  C     C_R   0.259101 0.545987 0.303523 -0.193022
C124  C     C_R   0.230128 0.046502 0.749606 -0.168650
H1    H     H_    0.815696 0.665877 0.822086 0.137133
H2    H     H_    0.530550 0.594331 0.625839 0.123365
H3    H     H_    0.610257 0.085151 0.438775 0.147839
H4    H     H_    0.575889 0.155399 0.399147 0.180596
H5    H     H_    0.392530 0.133345 0.750718 0.158981
H6    H     H_    0.298490 0.095116 0.629011 0.145851
H7    H     H_    0.336542 0.161214 0.616234 0.172050
H8    H     H_    0.943802 0.094485 0.480687 0.114996
H9    H     H_    0.005118 0.060683 0.695982 0.112883
H10   H     H_    0.800598 0.238816 0.838433 0.158075
H11   H     H_    0.372327 0.348483 0.154164 0.143999
H12   H     H_    0.300671 0.738762 0.838558 0.157941
H13   H     H_    0.872428 0.848519 0.154299 0.142579
H14   H     H_    0.374535 0.694897 0.276716 0.025474
H15   H     H_    0.673960 0.697135 0.822164 0.035201
H16   H     H_    0.874433 0.194977 0.276593 0.024563
H17   H     H_    0.252106 0.624774 0.178950 0.095885
H18   H     H_    0.173859 0.197140 0.821918 0.036225
H19   H     H_    0.964746 0.267834 0.278991 0.168974
H20   H     H_    0.087464 0.271531 0.822354 0.169403
H21   H     H_    0.464720 0.767835 0.279069 0.168897
H22   H     H_    0.587575 0.771531 0.822614 0.169527
H23   H     H_    0.856698 0.308874 0.181542 0.199137
H24   H     H_    0.097962 0.309457 0.720321 0.207291
H25   H     H_    0.356600 0.808813 0.181578 0.199160
H26   H     H_    0.597978 0.809428 0.720487 0.207160
H27   H     H_    0.896112 0.408715 0.499895 0.137194
H28   H     H_    0.315410 0.165761 0.821949 0.137277
H29   H     H_    0.900146 0.408542 0.341713 0.136370
H30   H     H_    0.396123 0.908710 0.499902 0.137258
H31   H     H_    0.400147 0.908537 0.341714 0.136419
H32   H     H_    0.741739 0.561372 0.228874 0.192152
H33   H     H_    0.811963 0.624458 0.438328 0.222825
H34   H     H_    0.241684 0.061340 0.228853 0.192050
H35   H     H_    0.311895 0.124440 0.438289 0.222745
H36   H     H_    0.996999 0.334714 0.177010 0.110887
H37   H     H_    0.067891 0.374615 0.818761 0.120497
H38   H     H_    0.496952 0.834740 0.177067 0.110717
H39   H     H_    0.752039 0.125033 0.178758 0.096521
H40   H     H_    0.567992 0.874646 0.818832 0.120360
H41   H     H_    0.819632 0.623817 0.284651 0.222099
H42   H     H_    0.734979 0.561710 0.384661 0.188015
H43   H     H_    0.319542 0.123799 0.284597 0.221881
H44   H     H_    0.234939 0.061681 0.384654 0.187401
H45   H     H_    0.708114 0.412139 0.733590 0.100914
H46   H     H_    0.272603 0.411939 0.328081 0.085277
H47   H     H_    0.209412 0.911511 0.733057 0.093917
H48   H     H_    0.773458 0.912624 0.330165 0.092157
H49   H     H_    0.969624 0.411087 0.256117 0.134296
H50   H     H_    0.505451 0.439219 0.695003 0.110455
H51   H     H_    0.927762 0.412336 0.666757 0.130704
H52   H     H_    0.469645 0.911087 0.256147 0.134301
H53   H     H_    0.427797 0.912331 0.666775 0.130921
H54   H     H_    0.707998 0.589512 0.732672 0.118562
H55   H     H_    0.273560 0.587880 0.334124 0.106892
H56   H     H_    0.206696 0.088891 0.732995 0.125936
H57   H     H_    0.772384 0.088571 0.332265 0.099139
H58   H     H_    0.812061 0.333894 0.826168 0.093614
H59   H     H_    0.247271 0.367791 0.173533 0.095886
H60   H     H_    0.312267 0.833801 0.826277 0.093225
H61   H     H_    0.444537 0.405930 0.479138 0.103974
H62   H     H_    0.747411 0.868107 0.173716 0.095840
H63   H     H_    0.989942 0.669084 0.171418 0.185085
H64   H     H_    0.071778 0.634442 0.825112 0.213444
H65   H     H_    0.489924 0.169111 0.171347 0.185017
H66   H     H_    0.571611 0.134485 0.825006 0.213386
H67   H     H_    0.379525 0.531576 0.598801 0.109562
H68   H     H_    0.592145 0.468813 0.502421 0.113987
H69   H     H_    0.879988 0.968023 0.598687 0.109245
H70   H     H_    0.091659 0.032322 0.502650 0.112053
H71   H     H_    0.202456 0.575559 0.749946 0.177310
H72   H     H_    0.031445 0.905973 0.624535 0.108143
H73   H     H_    0.247545 0.572928 0.892817 0.140136
H74   H     H_    0.319792 0.600859 0.850567 0.135045
H75   H     H_    0.943918 0.758818 0.275185 0.135397
H76   H     H_    0.016209 0.819778 0.299075 0.148694
H77   H     H_    0.068870 0.753131 0.340765 0.172917
H78   H     H_    0.701845 0.075630 0.749732 0.177479
H79   H     H_    0.747664 0.073093 0.892833 0.139797
H80   H     H_    0.819294 0.100985 0.849702 0.135089
H81   H     H_    0.443907 0.258766 0.275055 0.135311
H82   H     H_    0.516131 0.319758 0.298937 0.149623
H83   H     H_    0.971175 0.939727 0.410018 0.107939
H84   H     H_    0.568859 0.253128 0.340598 0.172894
H85   H     H_    0.195998 0.767684 0.021367 0.116843
H86   H     H_    0.202101 0.814023 0.121635 0.131450
H87   H     H_    0.110899 0.763230 0.052129 0.165565
H88   H     H_    0.807994 0.755052 0.733616 0.134098
H89   H     H_    0.718946 0.809281 0.686463 0.147292
H90   H     H_    0.710591 0.760082 0.591316 0.156872
H91   H     H_    0.696027 0.267838 0.021279 0.116952
H92   H     H_    0.702201 0.314194 0.121567 0.131365
H93   H     H_    0.610915 0.263451 0.052029 0.165713
H94   H     H_    0.470902 0.561083 0.411028 0.110905
H95   H     H_    0.308061 0.254991 0.733592 0.133969
H96   H     H_    0.219122 0.309287 0.686474 0.147579
H97   H     H_    0.210724 0.260105 0.591274 0.156873
H98   H     H_    0.119228 0.616860 0.333703 0.145116
H99   H     H_    0.110491 0.585070 0.438794 0.146990
H100  H     H_    0.076165 0.655338 0.399326 0.180877
H101  H     H_    0.892685 0.633344 0.750768 0.158651
H102  H     H_    0.798590 0.595310 0.628779 0.148451
H103  H     H_    0.837036 0.661373 0.616460 0.172172
H104  H     H_    0.619139 0.116894 0.333753 0.144919
N1    N     N_R   0.892620 0.603790 0.941770 -0.045829
N2    N     N_R   0.973690 0.529110 0.793240 -0.102562
N3    N     N_R   0.526310 0.029110 0.206760 -0.104259
N4    N     N_R   0.473690 0.029110 0.793240 -0.102512
N5    N     N_R   0.818570 0.472310 0.793020 -0.036973
N6    N     N_R   0.181430 0.472310 0.206980 -0.033508
N7    N     N_R   0.318570 0.972310 0.793020 -0.037201
N8    N     N_R   0.681430 0.972310 0.206980 -0.033233
N9    N     N_R   0.026930 0.472300 0.207330 -0.064833
N10   N     N_R   0.973070 0.472300 0.792670 -0.063143
N11   N     N_R   0.526930 0.972300 0.207330 -0.064741
N12   N     N_R   0.107380 0.603790 0.058230 -0.050659
N13   N     N_R   0.473070 0.972300 0.792670 -0.063300
N14   N     N_R   0.817960 0.529130 0.792460 -0.048756
N15   N     N_R   0.182040 0.529130 0.207540 -0.042459
N16   N     N_R   0.317960 0.029130 0.792460 -0.048778
N17   N     N_R   0.682040 0.029130 0.207540 -0.042586
N18   N     N_R   0.894850 0.397640 0.943830 -0.035593
N19   N     N_R   0.105150 0.397640 0.056170 -0.038753
N20   N     N_R   0.394850 0.897640 0.943830 -0.035889
N21   N     N_R   0.605150 0.897640 0.056170 -0.038534
N22   N     N_R   0.950040 0.603780 0.055950 -0.059305
N23   N     N_R   0.392620 0.103790 0.941770 -0.045568
N24   N     N_R   0.049960 0.603780 0.944050 -0.060176
N25   N     N_R   0.450040 0.103780 0.055950 -0.059295
N26   N     N_R   0.549960 0.103780 0.944050 -0.060145
N27   N     N_R   0.607380 0.103790 0.058230 -0.050973
N28   N     N_R   0.952270 0.397640 0.058010 -0.035556
N29   N     N_R   0.047730 0.397640 0.941990 -0.038060
N30   N     N_R   0.452270 0.897640 0.058010 -0.035505
N31   N     N_R   0.547730 0.897640 0.941990 -0.038104
N32   N     N_R   0.026310 0.529110 0.206760 -0.104205
Ni1   Ni    Ni4+2 0.934160 0.565860 0.869070 0.201093
Ni2   Ni    Ni4+2 0.065840 0.565860 0.130930 0.218144
Ni3   Ni    Ni4+2 0.434160 0.065860 0.869070 0.200906
Ni4   Ni    Ni4+2 0.565840 0.065860 0.130930 0.218166
Ni5   Ni    Ni4+2 0.067260 0.435560 0.132230 0.200913
Ni6   Ni    Ni4+2 0.932740 0.435560 0.867770 0.200759
Ni7   Ni    Ni4+2 0.567260 0.935560 0.132230 0.200653
Ni8   Ni    Ni4+2 0.432740 0.935560 0.867770 0.201438
O1    O     O_3   0.207358 0.650405 0.817521 -0.621074
O2    O     O_3   0.930869 0.598844 0.654572 -0.642277
O3    O     O_3   0.481981 0.098702 0.285161 -0.650455
O4    O     O_3   0.430651 0.098831 0.654484 -0.642253
O5    O     O_3   0.991594 0.767240 0.174137 -0.624941
O6    O     O_3   0.707107 0.150528 0.817331 -0.621026
O7    O     O_3   0.491538 0.267251 0.173972 -0.624839
O8    O     O_3   0.241859 0.733547 0.176453 -0.609506
O9    O     O_3   0.676211 0.729396 0.692512 -0.616971
O10   O     O_3   0.741823 0.233703 0.176345 -0.609805
O11   O     O_3   0.176186 0.229432 0.692334 -0.615489
O12   O     O_3   0.982118 0.598694 0.285314 -0.650109

loop_
_geom_bond_atom_site_label_1
_geom_bond_atom_site_label_2
_ccdc_geom_bond_type
C44   C49   S    
C40   C47   S    
N3    Ni4   S    
C23   H93   S    
C33   C117  A    
N4    Ni3   S    
C93   C97   A    
C10   N25   A    
C111  N3    A    
C32   C124  A    
C7    H62   S    
C24   C112  A    
C68   C103  A    
C20   H82   S    
C72   C76   A    
C66   N29   A    
C24   C121  A    
C28   H104  S    
C26   O12   S    
C37   H17   S    
C22   O9    S    
C57   C62   A    
C122  N14   A    
C108  H35   S    
C23   H91   S    
C113  N5    A    
C49   H2    S    
C94   C108  S    
C55   C79   A    
C80   C85   S    
C31   C43   S    
C7    N21   A    
C72   O6    S    
C14   C74   S    
C6    N20   A    
N27   Ni4   S    
C1    H1    S    
C38   C42   S    
C55   C90   S    
C10   C15   A    
C115  H46   S    
C18   H76   S    
C79   C84   S    
C117  H48   S    
C95   C99   A    
N23   N25   A    
C19   O6    S    
C32   C46   S    
C3    C33   A    
C65   C70   A    
C65   N28   A    
C18   H77   S    
N7    Ni8   S    
C11   N26   A    
C33   C45   S    
C21   H86   S    
C116  N7    A    
N9    Ni5   S    
C34   C35   S    
C42   C46   S    
C64   C71   A    
C31   C115  A    
C42   H70   S    
N22   Ni2   S    
C38   C45   S    
C41   H69   S    
N31   Ni8   S    
C110  N2    A    
C119  H51   S    
N5    Ni6   S    
C5    H59   S    
C78   C83   S    
C120  H52   S    
C29   H5    S    
C63   C69   A    
C118  H49   S    
C105  H41   S    
C94   C98   A    
C22   H88   S    
C26   H98   S    
N8    Ni7   S    
C107  C108  S    
C62   C73   A    
C36   C46   S    
N15   Ni2   S    
C111  O3    S    
C25   H97   S    
C124  N16   A    
C60   C103  S    
C35   C43   S    
C102  H30   S    
C74   C78   A    
N1    N22   A    
C28   H3    S    
C25   O11   S    
N6    N15   A    
C23   H92   S    
C18   O5    S    
C93   C105  S    
C112  O4    S    
C9    H64   S    
C89   H25   S    
C99   C104  A    
C108  H44   S    
N2    Ni1   S    
C28   H4    S    
C100  H27   S    
C28   O3    S    
C7    C103  A    
C55   C60   A    
C95   C107  S    
C91   C106  S    
C30   C44   S    
C36   C41   S    
C94   C95   A    
C1    C12   A    
C84   C90   S    
C20   H81   S    
N21   N31   A    
C65   H36   S    
N30   Ni7   S    
C4    C70   A    
C107  H34   S    
N19   N29   A    
C23   O10   S    
C61   H10   S    
C64   H13   S    
C68   H40   S    
C8    H63   S    
C69   C74   A    
C83   C89   S    
C47   H94   S    
C107  H43   S    
C25   H95   S    
C10   H65   S    
C38   H83   S    
C85   C87   S    
C59   N27   A    
C34   C39   S    
C86   H18   S    
C30   C122  A    
N10   Ni6   S    
C9    N24   A    
C34   C44   S    
C17   H73   S    
C84   H15   S    
C54   C89   S    
C123  H55   S    
C110  O2    S    
C53   C57   A    
C27   H101  S    
N6    Ni5   S    
C39   C43   S    
C117  N8    A    
C82   C86   S    
C46   C51   S    
C19   H78   S    
C71   O5    S    
N4    N13   A    
C66   H37   S    
C6    H60   S    
C53   C82   A    
C16   C59   A    
C62   H11   S    
C13   C99   S    
C89   H21   S    
C9    C14   A    
C36   H72   S    
N26   N27   A    
C34   H50   S    
C1    N1    A    
C91   C93   A    
C5    C81   A    
C11   C16   A    
C29   H6    S    
C40   H68   S    
C88   H20   S    
C101  H29   S    
C8    C12   A    
C8    N22   A    
C84   O9    S    
C27   O2    S    
N9    N32   A    
C19   H79   S    
C50   C51   S    
C88   H24   S    
N13   Ni8   S    
N11   Ni7   S    
C17   H74   S    
C27   H102  S    
N16   Ni3   S    
C86   O11   S    
C32   C116  A    
C102  C104  A    
C3    H57   S    
C85   H16   S    
C4    N18   A    
C54   C78   A    
C114  C118  A    
C50   H8    S    
N24   Ni1   S    
C42   C50   S    
C109  N32   A    
N20   N30   A    
C85   O10   S    
C109  C114  A    
N25   Ni4   S    
C61   C72   A    
C39   C49   S    
N26   Ni3   S    
N12   N24   A    
C43   C47   S    
C56   C70   S    
C22   H90   S    
C26   H100  S    
C24   C98   S    
N2    N10   A    
C75   C79   A    
C20   H84   S    
C83   O8    S    
C21   O8    S    
C106  H42   S    
C18   H75   S    
C109  O12   S    
C67   C92   A    
C118  N9    A    
C54   C58   A    
N18   Ni6   S    
C58   C63   A    
C122  H54   S    
C2    C110  A    
C73   C77   A    
C17   O1    S    
C16   C76   S    
C29   O4    S    
C15   C48   A    
N8    N17   A    
N32   Ni2   S    
C52   C87   S    
N29   Ni6   S    
C76   C80   A    
N12   Ni2   S    
N3    N11   A    
C37   N12   A    
C68   N31   A    
C113  H45   S    
C90   H26   S    
C119  N10   A    
N20   Ni8   S    
N1    Ni1   S    
C47   C49   S    
C106  H33   S    
C22   H89   S    
C105  C106  S    
C86   C88   S    
C112  N4    A    
C60   C64   A    
C11   H66   S    
C87   H19   S    
C63   H12   S    
N21   Ni7   S    
C48   N23   A    
C48   H28   S    
C35   C40   S    
C20   O7    S    
C31   C123  A    
C13   C111  A    
C98   C102  A    
C35   H61   S    
C66   C81   A    
C71   C75   A    
C51   H9    S    
C67   H38   S    
C27   H103  S    
C15   C77   S    
N18   N28   A    
C77   C82   A    
C73   O7    S    
C6    C92   A    
C123  N15   A    
C96   C100  A    
C2    C119  A    
C2    C96   S    
C19   H80   S    
C45   C50   S    
N14   Ni1   S    
C21   H85   S    
C53   C88   S    
C57   C81   S    
C29   H7    S    
C83   H14   S    
C104  H31   S    
C121  N13   A    
N7    N16   A    
C124  H56   S    
C67   N30   A    
C17   H71   S    
C36   C38   S    
C120  N11   A    
C69   O1    S    
N19   Ni5   S    
C21   H87   S    
N5    N14   A    
C40   C44   S    
C105  H32   S    
C121  H53   S    
C116  H47   S    
C91   C96   A    
C90   H22   S    
C87   H23   S    
C12   C75   S    
C26   H99   S    
C59   H39   S    
C41   C45   S    
C56   C61   A    
C39   H67   S    
C25   H96   S    
C100  C101  A    
C13   C120  A    
C3    N17   A    
C5    N19   A    
C4    H58   S    
C97   C114  S    
C52   C80   A    
N17   Ni4   S    
C58   C92   S    
C41   C51   S    
C115  N6    A    
C97   C101  A    
C52   C56   A    
N23   Ni3   S    
N28   Ni5   S    
C14   C37   A    
C30   C113  A    
