data_mof_unit_48645.cif
_audit_creation_date              2012-12-10T19:09:36-0500
_audit_creation_method            fapswitch 2.2
_symmetry_space_group_name_H-M    P1
_symmetry_Int_Tables_number       1
_space_group_crystal_system       triclinic
_cell_length_a                    9.54161
_cell_length_b                    10.853787
_cell_length_c                    17.135293
_cell_angle_alpha                 88.73086
_cell_angle_beta                  93.621096
_cell_angle_gamma                 90.528653
_cell_volume                      1770.54371999

loop_
_atom_site_label
_atom_site_type_symbol
_atom_type_description
_atom_site_fract_x
_atom_site_fract_y
_atom_site_fract_z
_atom_type_partial_charge
C1    C     C_R   0.499684 0.262491 0.502797 0.826406
C2    C     C_R   0.656206 0.492940 0.778955 -0.211998
C3    C     C_R   0.587125 0.466313 0.140297 -0.256073
C4    C     C_R   0.598268 0.469855 0.222163 0.365897
C5    C     C_R   0.455525 0.476822 0.098687 0.346978
C6    C     C_R   0.475637 0.486224 0.263063 -0.078937
C7    C     C_R   0.344370 0.489870 0.221129 -0.274586
C8    C     C_R   0.334748 0.485944 0.139858 -0.206283
C9    C     C_R   0.624904 0.065479 0.516925 0.062882
C10   C     C_R   0.499654 0.129910 0.513906 -0.143159
C11   C     C_R   0.375313 0.064537 0.526444 -0.319662
C12   C     C_R   0.517047 0.497932 0.650826 0.793840
C13   C     C_R   0.374417 0.934650 0.528054 0.406522
C14   C     C_R   0.500255 0.871115 0.514986 -0.212223
C15   C     C_R   0.625947 0.938836 0.517937 0.129373
C16   C     C_3   0.750646 0.937674 0.469324 0.191063
C17   C     C_3   0.747616 0.077701 0.467839 -0.482368
C18   C     C_R   0.066598 0.533637 0.434092 0.292695
C19   C     C_R   0.080942 0.455024 0.562394 -0.085136
C20   C     C_R   0.932223 0.455485 0.562530 -0.068553
C21   C     C_R   0.918894 0.530652 0.433490 0.258636
C22   C     C_3   0.905752 0.649572 0.389279 -0.541549
C23   C     C_R   0.500471 0.737933 0.503368 0.836321
C24   C     C_3   0.064899 0.656813 0.393409 0.130168
C25   C     C_R   0.483233 0.496780 0.349061 0.832163
C26   C     C_R   0.525452 0.494804 0.736584 -0.022305
C27   C     C_R   0.401798 0.492513 0.776835 -0.226375
C28   C     C_R   0.408561 0.488211 0.858082 -0.156358
C29   C     C_R   0.539957 0.486133 0.900643 0.382412
C30   C     C_R   0.662950 0.488702 0.860401 -0.192192
Cu1   Cu    Cu3+1 0.640670 0.499980 0.500000 0.982084
Cu2   Cu    Cu3+1 0.359330 0.500020 0.500000 0.984641
H1    H     H_    0.729594 0.895291 0.411175 0.088049
H2    H     H_    0.719193 0.117996 0.408780 0.173084
H3    H     H_    0.882452 0.420920 0.613635 0.139626
H4    H     H_    0.857217 0.638563 0.329210 0.247809
H5    H     H_    0.856273 0.719674 0.423321 0.211118
H6    H     H_    0.681616 0.455103 0.109442 0.149466
H7    H     H_    0.111414 0.731884 0.430167 0.173533
H8    H     H_    0.248491 0.495481 0.251006 0.238059
H9    H     H_    0.232573 0.491257 0.108660 0.156840
H10   H     H_    0.299462 0.493868 0.745657 0.158777
H11   H     H_    0.278032 0.113634 0.531413 0.164466
N1    N     N_2   0.553721 0.482677 0.983479 -0.259176
N2    N     N_2   0.440209 0.478507 0.015772 -0.251761
N3    N     N_R   0.147870 0.500930 0.499500 -0.213508
N4    N     N_R   0.851960 0.500890 0.499500 -0.185004
O1    O     O_R   0.618810 0.319640 0.500000 -0.578331
O2    O     O_R   0.381230 0.319680 0.499990 -0.593347
O3    O     O_R   0.631790 0.498830 0.613930 -0.593949
O4    O     O_R   0.394210 0.498870 0.613920 -0.591094
O5    O     O_R   0.618770 0.680320 0.500010 -0.574136
O6    O     O_R   0.381190 0.680360 0.500000 -0.518252
O7    O     O_R   0.605790 0.501130 0.386080 -0.529875
O8    O     O_R   0.368210 0.501170 0.386070 -0.570635
O9    O     O_3   0.727118 0.455117 0.262669 -0.733783
H12   H     H_    0.801041 0.444846 0.225221 0.319144
O10   O     O_3   0.251849 0.869931 0.539612 -0.719484
H13   H     H_    0.176916 0.928578 0.550606 0.324905
O11   O     O_3   0.868922 0.892299 0.512944 -0.700097
H14   H     H_    0.948952 0.906358 0.479506 0.315211
H15   H     H_    0.839402 0.121624 0.499786 0.217323
H16   H     H_    0.141604 0.419851 0.613322 0.141914
O12   O     O_3   0.118344 0.651368 0.319485 -0.730638
H17   H     H_    0.113265 0.736585 0.297390 0.329292
H18   H     H_    0.764503 0.487391 0.892447 0.140503
H19   H     H_    0.753177 0.494592 0.749318 0.157069
H20   H     H_    0.311042 0.486680 0.887147 0.152564

loop_
_geom_bond_atom_site_label_1
_geom_bond_atom_site_label_2
_ccdc_geom_bond_type
C14   C23   S    
C5    C8    A    
C12   O3    A    
C7    H8    S    
Cu2   O4    S    
C11   H11   S    
C29   C30   A    
C16   H1    S    
C18   C21   A    
C22   H4    S    
C9    C10   A    
Cu2   O8    S    
Cu1   Cu2   S    
Cu1   O5    S    
C2    C30   A    
C10   C11   A    
O12   H17   S    
C12   O4    A    
C19   C20   A    
C23   O5    A    
C19   N3    A    
C7    C8    A    
C24   O12   S    
Cu1   N4    S    
C21   C22   S    
C25   O7    A    
C11   C13   A    
C27   H10   S    
C26   C27   A    
C6    C7    A    
C5    N2    S    
C18   C24   S    
C18   N3    A    
C9    C17   S    
C28   C29   A    
C28   H20   S    
C23   O6    A    
Cu1   O1    S    
C29   N1    S    
C9    C15   A    
C17   H15   S    
C22   C24   S    
Cu2   O2    S    
C6    C25   S    
C17   H2    S    
C1    C10   S    
Cu1   O3    S    
C15   C16   S    
C20   N4    A    
C25   O8    A    
Cu2   O6    S    
Cu1   O7    S    
C24   H7    S    
C8    H9    S    
C3    H6    S    
C2    C26   A    
C4    C6    A    
C16   O11   S    
C19   H16   S    
C27   C28   A    
O9    H12   S    
C21   N4    A    
C14   C15   A    
C16   C17   S    
C1    O1    A    
C13   O10   S    
C3    C5    A    
O10   H13   S    
C13   C14   A    
C22   H5    S    
Cu2   N3    S    
C20   H3    S    
C4    O9    S    
N1    N2    D    
C3    C4    A    
C30   H18   S    
C12   C26   S    
O11   H14   S    
C2    H19   S    
C1    O2    A    
