data_mof_unit_42729.cif
_audit_creation_date              2012-12-10T20:24:40-0500
_audit_creation_method            fapswitch 2.2
_symmetry_space_group_name_H-M    P1
_symmetry_Int_Tables_number       1
_space_group_crystal_system       triclinic
_cell_length_a                    10.855696
_cell_length_b                    19.022102
_cell_length_c                    18.399983
_cell_angle_alpha                 89.629156
_cell_angle_beta                  91.549058
_cell_angle_gamma                 90.381993
_cell_volume                      3798.01434459

loop_
_atom_site_label
_atom_site_type_symbol
_atom_type_description
_atom_site_fract_x
_atom_site_fract_y
_atom_site_fract_z
_atom_type_partial_charge
C1    C     C_R   0.508510 0.365210 0.499928 0.971840
C2    C     C_R   0.499367 0.634885 0.499491 1.022825
C3    C     C_R   0.873080 0.500550 0.503729 -0.082889
C4    C     C_R   0.127336 0.502782 0.497295 -0.100917
C5    C     C_R   0.944524 0.495920 0.569321 0.085645
C6    C     C_R   0.056497 0.511296 0.432565 0.072579
C7    C     C_R   0.443096 0.756539 0.463243 0.419319
C8    C     C_R   0.505974 0.243104 0.551770 0.449137
C9    C     C_R   0.479424 0.826882 0.455379 -0.404967
C10   C     C_R   0.522925 0.171532 0.541224 -0.354210
C11   C     C_R   0.594247 0.850357 0.481903 -0.096841
C12   C     C_R   0.597310 0.147807 0.485691 -0.115980
C13   C     C_R   0.678090 0.802918 0.513626 0.506148
C14   C     C_R   0.650244 0.195975 0.437654 0.490929
C15   C     C_R   0.642119 0.732778 0.524045 0.319769
C16   C     C_R   0.614530 0.266656 0.439459 0.324085
C17   C     C_R   0.525939 0.709730 0.497685 -0.322356
C18   C     C_R   0.542095 0.290672 0.497406 -0.366682
C19   C     C_R   0.649470 0.962297 0.544708 0.567230
C20   C     C_R   0.593629 0.036091 0.415116 0.566416
C21   C     C_R   0.654744 0.035190 0.543305 -0.406387
C22   C     C_R   0.599118 0.963013 0.414907 -0.399205
C23   C     C_R   0.259620 0.501286 0.498850 0.885093
C24   C     C_R   0.740577 0.500014 0.501362 0.927924
C25   C     C_R   0.620242 0.072361 0.480183 0.011741
C26   C     C_R   0.620785 0.925832 0.479941 0.008700
C27   C     C_R   0.568659 0.546571 0.728809 -0.015501
C28   C     C_R   0.424603 0.456681 0.271273 -0.038938
C29   C     C_R   0.562335 0.547828 0.804553 -0.307799
C30   C     C_R   0.429510 0.455753 0.195413 -0.322957
C31   C     C_R   0.487077 0.499633 0.841205 0.166209
C32   C     C_R   0.512599 0.499761 0.159145 0.112449
C33   C     C_R   0.409018 0.454546 0.799765 0.464303
C34   C     C_R   0.597508 0.540458 0.200989 0.440318
C35   C     C_R   0.419095 0.455967 0.722550 -0.145928
C36   C     C_R   0.586176 0.540357 0.277821 -0.198575
C37   C     C_R   0.509763 0.435189 0.962764 0.557029
C38   C     C_R   0.494090 0.564777 0.037909 0.587230
C39   C     C_R   0.518866 0.437950 0.039686 -0.488400
C40   C     C_R   0.480459 0.561687 0.960941 -0.498102
C41   C     C_R   0.509410 0.501399 0.077505 0.070035
C42   C     C_R   0.490473 0.498202 0.922964 0.066534
C43   C     C_R   0.199700 0.605287 0.273419 0.359998
C44   C     C_R   0.801995 0.437840 0.747256 0.461202
C45   C     C_R   0.161025 0.589875 0.343712 -0.258243
C46   C     C_R   0.829329 0.440557 0.673111 -0.300626
C47   C     C_R   0.107440 0.524919 0.359777 0.026052
C48   C     C_R   0.898259 0.496564 0.644985 0.023411
C49   C     C_R   0.091803 0.474814 0.304992 -0.424202
C50   C     C_R   0.941964 0.549059 0.692718 -0.359109
C51   C     C_R   0.129792 0.488826 0.233063 0.421981
C52   C     C_R   0.912738 0.548263 0.766279 0.352291
C53   C     C_R   0.180598 0.555503 0.217189 0.366082
C54   C     C_R   0.843157 0.491829 0.794520 0.326103
C55   C     C_R   0.930144 0.508226 0.436681 -0.250942
C56   C     C_R   0.070740 0.494888 0.564052 -0.262823
H1    H     H_    0.677401 0.062831 0.593111 0.187500
H2    H     H_    0.577939 0.935022 0.364982 0.178285
H3    H     H_    0.629247 0.582327 0.701389 0.123167
H4    H     H_    0.360265 0.423040 0.298998 0.137513
H5    H     H_    0.618953 0.585081 0.834819 0.166328
H6    H     H_    0.366846 0.421890 0.164899 0.205028
H7    H     H_    0.361185 0.423718 0.687619 0.154037
H8    H     H_    0.644707 0.572361 0.312603 0.154819
H9    H     H_    0.538687 0.391088 0.071211 0.157141
H10   H     H_    0.462078 0.608483 0.929141 0.164455
H11   H     H_    0.171795 0.628747 0.386037 0.193626
H12   H     H_    0.798592 0.398259 0.637775 0.161774
H13   H     H_    0.050733 0.425262 0.320427 0.182086
H14   H     H_    0.999159 0.591406 0.672500 0.188834
H15   H     H_    0.876253 0.514109 0.386502 0.168864
H16   H     H_    0.125446 0.488944 0.613807 0.179150
H17   H     H_    0.418179 0.864150 0.429090 0.188737
H18   H     H_    0.483449 0.134359 0.578986 0.186647
N1    N     N_R   0.500020 0.499980 0.689440 -0.100284
N2    N     N_R   0.499980 0.500020 0.310560 -0.105833
O1    O     O_R   0.500010 0.398180 0.560840 -0.614708
O2    O     O_R   0.499990 0.601820 0.439160 -0.623614
O3    O     O_R   0.499950 0.398180 0.439210 -0.584790
O4    O     O_R   0.500050 0.601820 0.560790 -0.612013
O5    O     O_R   0.316790 0.500010 0.560810 -0.637519
O6    O     O_R   0.683210 0.499990 0.439190 -0.622019
O7    O     O_R   0.316730 0.500000 0.439190 -0.615183
O8    O     O_R   0.683270 0.500000 0.560810 -0.613160
Zn1   Zn    Zn3+2 0.500040 0.500000 0.581210 0.961390
Zn2   Zn    Zn3+2 0.499960 0.500000 0.418790 0.963180
O9    O     O_3   0.222153 0.567937 0.147497 -0.606274
C57   C     C_3   0.155734 0.623494 0.113673 0.150026
H19   H     H_    0.198077 0.674839 0.128726 0.190215
H20   H     H_    0.057411 0.623545 0.129013 0.094989
C58   C     C_3   0.161755 0.616200 0.031124 -0.324049
H21   H     H_    0.257349 0.626289 0.013944 0.238492
H22   H     H_    0.135981 0.561857 0.014749 0.242298
C59   C     C_3   0.076245 0.668156 0.991821 -1.017648
H23   H     H_    0.978865 0.657697 0.005798 0.264373
H24   H     H_    0.085264 0.662353 0.932257 0.296058
H25   H     H_    0.101291 0.722947 0.006958 0.267810
O10   O     O_3   0.794756 0.494085 0.863396 -0.628228
C60   C     C_3   0.887511 0.493397 0.918542 0.083607
H26   H     H_    0.926250 0.546916 0.926530 0.202933
H27   H     H_    0.963104 0.456177 0.906415 0.119528
C61   C     C_3   0.827486 0.470936 0.989193 -0.353689
H28   H     H_    0.747877 0.505655 0.999009 0.243529
H29   H     H_    0.793376 0.415912 0.984258 0.236476
C62   C     C_3   0.916546 0.476200 0.054078 -0.924335
H30   H     H_    0.001644 0.446223 0.043812 0.282458
H31   H     H_    0.871944 0.454684 0.103122 0.263435
H32   H     H_    0.940397 0.531997 0.064293 0.267403
O11   O     O_3   0.724994 0.684485 0.552728 -0.599850
C63   C     C_3   0.738893 0.695903 0.628003 -0.263866
H33   H     H_    0.796323 0.743095 0.639542 0.221126
H34   H     H_    0.788126 0.650532 0.651987 0.178673
H35   H     H_    0.648639 0.700097 0.655072 0.129723
O12   O     O_3   0.663522 0.313971 0.390274 -0.580384
C64   C     C_3   0.603685 0.304961 0.321826 -0.206302
H36   H     H_    0.631388 0.348880 0.285685 0.168910
H37   H     H_    0.501480 0.306485 0.325687 0.130894
H38   H     H_    0.631900 0.255311 0.295787 0.193145
O13   O     O_3   0.670780 0.927347 0.610009 -0.606409
C65   C     C_3   0.557902 0.914664 0.644822 0.074062
H39   H     H_    0.564548 0.862244 0.671613 0.160571
H40   H     H_    0.476068 0.912054 0.606727 0.110856
C66   C     C_3   0.537709 0.970244 0.703114 -0.360396
H41   H     H_    0.620233 0.973139 0.740104 0.237744
H42   H     H_    0.524231 0.022505 0.676977 0.207284
C67   C     C_3   0.424790 0.952902 0.747620 -0.959551
H43   H     H_    0.340890 0.950581 0.711763 0.264844
H44   H     H_    0.412238 0.994366 0.788931 0.265077
H45   H     H_    0.436908 0.901607 0.776036 0.262758
O14   O     O_3   0.558530 0.071516 0.352081 -0.607768
C68   C     C_3   0.428901 0.080001 0.349056 0.070115
H46   H     H_    0.409623 0.135679 0.334306 0.156324
H47   H     H_    0.382808 0.069843 0.401798 0.113264
C69   C     C_3   0.372287 0.032569 0.290015 -0.351236
H48   H     H_    0.413748 0.045534 0.236954 0.234756
H49   H     H_    0.392824 0.976791 0.303243 0.210479
C70   C     C_3   0.232888 0.041590 0.283294 -0.968808
H50   H     H_    0.189345 0.028798 0.335751 0.263408
H51   H     H_    0.194680 0.005567 0.240990 0.269867
H52   H     H_    0.210128 0.096444 0.267302 0.265084
O15   O     O_3   0.318566 0.417178 0.837043 -0.660143
C71   C     C_3   0.262873 0.361127 0.797812 0.080314
H53   H     H_    0.234812 0.320525 0.837841 0.156448
H54   H     H_    0.328060 0.333985 0.762192 0.132178
C72   C     C_3   0.145999 0.385319 0.756452 -0.370138
H55   H     H_    0.070388 0.391568 0.795339 0.199334
H56   H     H_    0.161195 0.437223 0.730319 0.225390
C73   C     C_3   0.107445 0.332026 0.698306 -0.957768
H57   H     H_    0.180986 0.326828 0.657878 0.287224
H58   H     H_    0.022381 0.349684 0.669278 0.264560
H59   H     H_    0.089494 0.279908 0.723599 0.260148
O16   O     O_3   0.683572 0.581020 0.164151 -0.647010
C74   C     C_3   0.790864 0.598282 0.205827 0.047019
H60   H     H_    0.868816 0.598087 0.168452 0.151852
H61   H     H_    0.815545 0.558281 0.248180 0.127277
C75   C     C_3   0.781172 0.672754 0.236767 -0.345644
H62   H     H_    0.779164 0.711561 0.191386 0.220486
H63   H     H_    0.694491 0.678828 0.266649 0.214062
C76   C     C_3   0.890212 0.689702 0.287744 -0.985664
H64   H     H_    0.894233 0.651850 0.333973 0.268945
H65   H     H_    0.880165 0.743536 0.309703 0.259953
H66   H     H_    0.977322 0.687400 0.257667 0.276258
O17   O     O_3   0.534735 0.373900 0.925071 -0.616455
C77   C     C_3   0.470098 0.315462 0.953511 0.111525
H67   H     H_    0.370836 0.328102 0.960035 0.156709
H68   H     H_    0.511630 0.298245 0.006429 0.119402
C78   C     C_3   0.480695 0.253644 0.901647 -0.333492
H69   H     H_    0.452078 0.270290 0.845984 0.219428
H70   H     H_    0.578313 0.236562 0.900783 0.209780
C79   C     C_3   0.400626 0.191607 0.924666 -0.994166
H71   H     H_    0.428629 0.173398 0.980130 0.268999
H72   H     H_    0.411760 0.147547 0.886135 0.267666
H73   H     H_    0.302023 0.206905 0.924079 0.260737
O18   O     O_3   0.485202 0.626855 0.077538 -0.638168
C80   C     C_3   0.523822 0.688589 0.040719 0.104450
H74   H     H_    0.512109 0.732837 0.078978 0.161609
H75   H     H_    0.462261 0.701379 0.993427 0.116279
C81   C     C_3   0.660726 0.687094 0.020567 -0.356707
H76   H     H_    0.718663 0.676679 0.069842 0.259841
H77   H     H_    0.678128 0.644961 0.980756 0.212460
C82   C     C_3   0.701059 0.757011 0.987701 -1.015555
H78   H     H_    0.648563 0.767398 0.936122 0.270364
H79   H     H_    0.800813 0.754972 0.976166 0.269454
H80   H     H_    0.685907 0.800596 0.026285 0.272220
O19   O     O_3   0.246573 0.671471 0.259141 -0.635058
C83   C     C_3   0.375937 0.667991 0.259284 -0.216991
H81   H     H_    0.407424 0.634789 0.214225 0.212561
H82   H     H_    0.413677 0.648846 0.312487 0.205500
H83   H     H_    0.413443 0.721580 0.250222 0.165155
O20   O     O_3   0.726683 0.384477 0.771992 -0.583787
C84   C     C_3   0.799510 0.335966 0.812011 -0.290393
H84   H     H_    0.835952 0.358804 0.863547 0.183622
H85   H     H_    0.876417 0.315795 0.779507 0.139300
H86   H     H_    0.741110 0.290553 0.826986 0.186780
O21   O     O_3   0.125244 0.440236 0.176188 -0.627179
C85   C     C_3   0.060549 0.376941 0.190297 0.083129
H87   H     H_    0.031195 0.354529 0.136971 0.160881
H88   H     H_    0.973024 0.385748 0.218885 0.130505
C86   C     C_3   0.144594 0.322505 0.228167 -0.382315
H89   H     H_    0.219155 0.307823 0.191019 0.214556
H90   H     H_    0.188824 0.344488 0.278102 0.214373
C87   C     C_3   0.072217 0.256680 0.248822 -0.951131
H91   H     H_    0.997607 0.270273 0.286338 0.274022
H92   H     H_    0.134906 0.218738 0.276793 0.254217
H93   H     H_    0.031311 0.231455 0.199447 0.267898
O22   O     O_3   0.958543 0.601159 0.810668 -0.654089
C88   C     C_3   0.873404 0.657045 0.813886 0.088561
H94   H     H_    0.846791 0.663081 0.871378 0.168526
H95   H     H_    0.786459 0.648839 0.781271 0.101432
C89   C     C_3   0.935784 0.724904 0.788601 -0.350846
H96   H     H_    0.021272 0.734283 0.821804 0.231512
H97   H     H_    0.962077 0.719243 0.731022 0.215939
C90   C     C_3   0.851309 0.788260 0.795283 -0.954743
H98   H     H_    0.761565 0.778815 0.766501 0.254577
H99   H     H_    0.895711 0.835268 0.770965 0.280645
H100  H     H_    0.834706 0.799140 0.853314 0.268663
O23   O     O_3   0.334583 0.730744 0.431051 -0.617444
C91   C     C_3   0.229901 0.771201 0.448286 0.092771
H101  H     H_    0.168469 0.737190 0.480896 0.108228
H102  H     H_    0.248875 0.818418 0.482420 0.108719
C92   C     C_3   0.157848 0.792465 0.378723 -0.327192
H103  H     H_    0.130490 0.744949 0.347839 0.260470
H104  H     H_    0.072039 0.819321 0.393308 0.147712
C93   C     C_3   0.229680 0.842085 0.329895 -0.783350
H105  H     H_    0.245166 0.893132 0.357616 0.225247
H106  H     H_    0.175504 0.851951 0.278841 0.241911
H107  H     H_    0.319318 0.818927 0.315691 0.281655
O24   O     O_3   0.453651 0.265517 0.615154 -0.647999
C94   C     C_3   0.549195 0.278108 0.667861 0.187475
H108  H     H_    0.512481 0.314293 0.708749 0.143746
H109  H     H_    0.629272 0.307011 0.644965 0.155441
C95   C     C_3   0.589972 0.210208 0.707814 -0.383932
H110  H     H_    0.592723 0.219231 0.767177 0.188101
H111  H     H_    0.522189 0.167155 0.698006 0.227434
C96   C     C_3   0.718475 0.186733 0.686497 -0.938260
H112  H     H_    0.725045 0.181725 0.626827 0.266958
H113  H     H_    0.739793 0.135163 0.712328 0.257756
H114  H     H_    0.788803 0.225535 0.705155 0.260414
O25   O     O_3   0.793055 0.825780 0.537655 -0.565459
C97   C     C_3   0.876872 0.815839 0.481802 -0.320732
H115  H     H_    0.850798 0.847260 0.432550 0.157659
H116  H     H_    0.885348 0.759244 0.467823 0.182185
H117  H     H_    0.968639 0.834484 0.501693 0.180381
O26   O     O_3   0.733803 0.173841 0.387344 -0.563840
C98   C     C_3   0.853463 0.181349 0.418104 -0.288811
H118  H     H_    0.865422 0.148780 0.468281 0.153326
H119  H     H_    0.875597 0.237426 0.429879 0.174881
H120  H     H_    0.920669 0.162651 0.378310 0.191997

loop_
_geom_bond_atom_site_label_1
_geom_bond_atom_site_label_2
_ccdc_geom_bond_type
C38   C40   A    
O9    C57   S    
C98   H119  S    
O20   C84   S    
C31   C42   S    
C27   C29   A    
C1    O1    A    
C15   O11   S    
C5    C56   A    
C36   H8    S    
O25   C97   S    
C73   H59   S    
C6    C55   A    
C68   C69   S    
C93   H105  S    
C69   C70   S    
O12   C64   S    
C8    O24   S    
C66   H41   S    
C39   C41   A    
C68   H47   S    
C82   H78   S    
C46   H12   S    
C70   H51   S    
C35   N1    A    
C1    C18   S    
C67   H43   S    
C23   O7    A    
C52   O22   S    
C77   H67   S    
C19   C21   A    
C73   H58   S    
C92   C93   S    
C76   H64   S    
C38   O18   S    
C58   H22   S    
C20   C25   A    
C43   O19   S    
C64   H36   S    
C11   C13   A    
O26   C98   S    
C61   C62   S    
C15   C17   A    
C49   C51   A    
C37   C42   A    
C19   C26   A    
C24   O6    A    
O18   C80   S    
C95   H110  S    
C16   O12   S    
C36   N2    A    
C66   H42   S    
C44   O20   S    
C63   H33   S    
C3    C55   A    
C35   H7    S    
C43   C53   A    
C79   H71   S    
O17   C77   S    
C44   C46   A    
C56   H16   S    
C87   H93   S    
C45   H11   S    
C86   C87   S    
C50   C52   A    
C32   C41   S    
C76   H65   S    
C78   C79   S    
C34   C36   A    
C65   C66   S    
O5    Zn1   S    
C37   O17   S    
C57   H19   S    
O2    Zn2   S    
C28   H4    S    
O1    Zn1   S    
C86   H89   S    
C74   H60   S    
C49   H13   S    
C98   H118  S    
C4    C56   A    
C2    C17   S    
C29   C31   A    
C77   H68   S    
C96   H113  S    
C71   C72   S    
C3    C24   S    
C59   H25   S    
C9    H17   S    
C85   C86   S    
C27   N1    A    
C10   C12   A    
C95   H111  S    
O24   C94   S    
C72   H56   S    
C94   H108  S    
C52   C54   A    
C72   H55   S    
C80   C81   S    
C46   C48   A    
C45   C47   A    
C5    C48   S    
C29   H5    S    
C6    C47   S    
C88   H94   S    
C81   H76   S    
O8    Zn1   S    
C38   C41   A    
C80   H75   S    
C87   H91   S    
C82   H79   S    
C20   O14   S    
C58   H21   S    
C4    C23   S    
C34   O16   S    
O22   C88   S    
C66   C67   S    
C69   H49   S    
O21   C85   S    
C11   C26   S    
C64   H37   S    
O23   C91   S    
O6    Zn2   S    
C40   H10   S    
C95   C96   S    
C8    C18   A    
C84   H84   S    
C78   H70   S    
C93   H106  S    
C51   C53   A    
C32   C34   A    
C61   H29   S    
C84   H85   S    
C21   H1    S    
O4    Zn1   S    
C2    O2    A    
C88   C89   S    
C92   H103  S    
C62   H31   S    
C91   H102  S    
C80   H74   S    
C57   C58   S    
C90   H98   S    
C96   H112  S    
C64   H38   S    
O7    Zn2   S    
C97   H116  S    
C76   H66   S    
C59   H23   S    
C53   O9    S    
C16   C18   A    
C62   H32   S    
C73   H57   S    
C74   C75   S    
C59   H24   S    
C43   C45   A    
C9    C11   A    
C63   H35   S    
C86   H90   S    
C87   H92   S    
C97   H117  S    
C14   O26   S    
C85   H88   S    
C60   H27   S    
C57   H20   S    
O10   C60   S    
C89   H97   S    
C30   H6    S    
C13   C15   A    
C94   H109  S    
C96   H114  S    
C14   C16   A    
C4    C6    A    
C74   H61   S    
C83   H82   S    
C68   H46   S    
C28   N2    A    
C93   H107  S    
N2    Zn2   S    
C78   H69   S    
C72   C73   S    
C65   H39   S    
C65   H40   S    
C91   C92   S    
N1    Zn1   S    
C62   H30   S    
C82   H80   S    
C7    C9    A    
C21   C25   A    
C75   H62   S    
C31   C33   A    
C67   H44   S    
C23   O5    A    
C75   C76   S    
C20   C22   A    
C85   H87   S    
C3    C5    A    
C7    C17   A    
C22   H2    S    
C81   H77   S    
O13   C65   S    
C69   H48   S    
C47   C49   A    
C89   C90   S    
C70   H50   S    
C39   H9    S    
O19   C83   S    
C67   H45   S    
C60   H26   S    
C12   C25   S    
C92   H104  S    
C33   O15   S    
C83   H83   S    
C75   H63   S    
O14   C68   S    
C24   O8    A    
C90   H99   S    
C28   C30   A    
C37   C39   A    
C51   O21   S    
O15   C71   S    
C58   C59   S    
C30   C32   A    
C10   H18   S    
C91   H101  S    
C79   H72   S    
C1    O3    A    
C70   H52   S    
C90   H100  S    
C48   C50   A    
C97   H115  S    
C33   C35   A    
C71   H54   S    
C77   C78   S    
C50   H14   S    
C61   H28   S    
C63   H34   S    
C84   H86   S    
C81   C82   S    
C2    O4    A    
C19   O13   S    
C94   C95   S    
C7    O23   S    
C44   C54   A    
C12   C14   A    
C60   C61   S    
O16   C74   S    
C8    C10   A    
C89   H96   S    
C22   C26   A    
C98   H120  S    
C88   H95   S    
C40   C42   A    
C71   H53   S    
C54   O10   S    
C27   H3    S    
C83   H81   S    
O11   C63   S    
O3    Zn2   S    
C55   H15   S    
C13   O25   S    
C79   H73   S    
