data_mof_unit_63858.cif
_audit_creation_date              2012-12-10T19:36:46-0500
_audit_creation_method            fapswitch 2.2
_symmetry_space_group_name_H-M    P1
_symmetry_Int_Tables_number       1
_space_group_crystal_system       triclinic
_cell_length_a                    11.717293
_cell_length_b                    15.813964
_cell_length_c                    17.139546
_cell_angle_alpha                 96.435035
_cell_angle_beta                  90.563948
_cell_angle_gamma                 92.246931
_cell_volume                      3153.14372114

loop_
_atom_site_label
_atom_site_type_symbol
_atom_type_description
_atom_site_fract_x
_atom_site_fract_y
_atom_site_fract_z
_atom_type_partial_charge
C1    C     C_R   0.498612 0.489465 0.348481 0.884125
C2    C     C_R   0.476682 0.108660 0.483688 0.222339
C3    C     C_R   0.593120 0.848887 0.564902 -0.348495
C4    C     C_R   0.406880 0.151113 0.435097 -0.348494
C5    C     C_R   0.587283 0.759488 0.560828 0.744227
C6    C     C_R   0.412717 0.240512 0.439172 0.744225
C7    C     C_R   0.283805 0.500262 0.499939 0.822011
C8    C     C_R   0.716195 0.499738 0.500061 0.822015
C9    C     C_1   0.162245 0.500647 0.499966 -0.103547
C10   C     C_1   0.837755 0.499353 0.500034 -0.103546
C11   C     C_1   0.059853 0.500327 0.499987 0.043475
C12   C     C_R   0.501388 0.510535 0.651519 0.884126
C13   C     C_1   0.940147 0.499673 0.500013 0.043475
C14   C     C_R   0.495160 0.483744 0.262306 -0.267977
C15   C     C_R   0.504838 0.516256 0.737694 -0.267979
C16   C     C_R   0.489195 0.558577 0.225777 -0.338324
C17   C     C_R   0.510784 0.441422 0.774223 -0.338322
C18   C     C_R   0.485126 0.555090 0.144382 0.637847
C19   C     C_R   0.514850 0.444908 0.855617 0.637851
C20   C     C_R   0.488182 0.475591 0.097729 0.159976
C21   C     C_R   0.511810 0.524408 0.902271 0.159977
C22   C     C_R   0.491962 0.401086 0.134206 -0.299649
C23   C     C_R   0.495960 0.404554 0.215700 0.625644
C24   C     C_R   0.508047 0.598913 0.865795 -0.299652
C25   C     C_R   0.504052 0.595446 0.784300 0.625645
C26   C     C_R   0.444445 0.751801 0.461515 0.682713
C27   C     C_R   0.555554 0.248199 0.538485 0.682715
C28   C     C_R   0.447852 0.841113 0.463848 -0.324908
C29   C     C_R   0.552147 0.158887 0.536152 -0.324908
C30   C     C_R   0.523318 0.891340 0.516312 0.222338
Cu1   Cu    Cu3+1 0.494550 0.415220 0.496180 1.096538
Cu2   Cu    Cu3+1 0.505450 0.584780 0.503820 1.096537
F1    F     F_    0.523892 0.370809 0.887877 -0.610729
F2    F     F_    0.476064 0.629188 0.112122 -0.610725
F3    F     F_    0.501210 0.330409 0.248315 -0.593491
F4    F     F_    0.498819 0.669592 0.751686 -0.593485
F5    F     F_    0.628904 0.295032 0.589278 -0.626516
F6    F     F_    0.371096 0.704967 0.410722 -0.626518
F7    F     F_    0.655904 0.720393 0.608513 -0.592790
F8    F     F_    0.344097 0.279607 0.391487 -0.592798
H1    H     H_    0.652205 0.885113 0.606012 0.208663
H2    H     H_    0.347795 0.114887 0.393988 0.208663
H3    H     H_    0.513203 0.379749 0.739807 0.246208
H4    H     H_    0.486764 0.620250 0.260192 0.246214
H5    H     H_    0.493125 0.339830 0.098944 0.230262
H6    H     H_    0.506896 0.660170 0.901056 0.230261
H7    H     H_    0.608190 0.129839 0.575099 0.212727
H8    H     H_    0.391809 0.870161 0.424901 0.212728
N1    N     N_2   0.485890 0.466857 0.014539 -0.106983
N2    N     N_2   0.514102 0.533142 0.985461 -0.106994
N3    N     N_R   0.513630 0.712130 0.509560 -0.287161
N4    N     N_R   0.486370 0.287870 0.490440 -0.287160
N5    N     N_2   0.532271 0.982952 0.522501 -0.167078
N6    N     N_2   0.467729 0.017048 0.477499 -0.167078
O1    O     O_R   0.494910 0.420530 0.382500 -0.490946
O2    O     O_R   0.505090 0.579470 0.617500 -0.490949
O3    O     O_R   0.504100 0.563720 0.388950 -0.567876
O4    O     O_R   0.495900 0.436280 0.611050 -0.567876
O5    O     O_R   0.332600 0.428410 0.496780 -0.551468
O6    O     O_R   0.667400 0.571590 0.503220 -0.551467
O7    O     O_R   0.341800 0.571600 0.503230 -0.538820
O8    O     O_R   0.658200 0.428400 0.496770 -0.538818

loop_
_geom_bond_atom_site_label_1
_geom_bond_atom_site_label_2
_ccdc_geom_bond_type
C14   C23   A    
C3    C30   A    
C2    C4    A    
C24   C25   A    
C17   H3    S    
Cu2   N3    S    
C20   N1    S    
C14   C16   A    
C1    O3    A    
C27   C29   A    
C11   C13   S    
C16   H4    S    
C26   C28   A    
Cu1   Cu2   S    
C12   C15   S    
Cu1   N4    S    
C3    C5    A    
C12   O4    A    
C28   C30   A    
C1    O1    A    
C24   H6    S    
C6    N4    A    
C26   N3    A    
C8    O6    A    
C9    C11   T    
Cu1   O8    S    
C12   O2    A    
C4    H2    S    
Cu2   O3    S    
C29   H7    S    
C2    C29   A    
C7    O7    A    
Cu1   O4    S    
C7    O5    A    
C21   N2    S    
C17   C19   A    
C20   C22   A    
Cu2   O7    S    
C23   F3    S    
C18   F2    S    
C19   F1    S    
C30   N5    S    
C6    F8    S    
C15   C25   A    
C4    C6    A    
C3    H1    S    
Cu2   O6    S    
C25   F4    S    
C7    C9    S    
C22   H5    S    
C27   N4    A    
C18   C20   A    
C16   C18   A    
N1    N2    D    
C2    N6    S    
C21   C24   A    
Cu1   O5    S    
C15   C17   A    
C5    F7    S    
C22   C23   A    
C26   F6    S    
C1    C14   S    
Cu1   O1    S    
N5    N6    D    
Cu2   O2    S    
C8    C10   S    
C28   H8    S    
C27   F5    S    
C8    O8    A    
C5    N3    A    
C19   C21   A    
C10   C13   T    
