data_mof_unit_54322.cif
_audit_creation_date              2012-12-10T18:19:53-0500
_audit_creation_method            fapswitch 2.2
_symmetry_space_group_name_H-M    P1
_symmetry_Int_Tables_number       1
_space_group_crystal_system       triclinic
_cell_length_a                    10.665759
_cell_length_b                    10.640289
_cell_length_c                    9.463765
_cell_angle_alpha                 88.771904
_cell_angle_beta                  90.134302
_cell_angle_gamma                 90.640814
_cell_volume                      1073.69576668

loop_
_atom_site_label
_atom_site_type_symbol
_atom_type_description
_atom_site_fract_x
_atom_site_fract_y
_atom_site_fract_z
_atom_type_partial_charge
C1    C     C_R   0.501476 0.259702 0.501128 0.830896
C2    C     C_R   0.498525 0.740298 0.498872 0.830849
C3    C     C_3   0.391671 0.956338 0.557251 -0.222766
C4    C     C_3   0.608333 0.043662 0.442750 -0.222783
C5    C     C_3   0.558563 0.596382 0.046295 0.083598
C6    C     C_3   0.441437 0.403618 0.953705 0.083601
C7    C     C_3   0.445661 0.599256 0.946217 -0.041552
C8    C     C_3   0.554339 0.400744 0.053783 -0.041567
C9    C     C_3   0.613561 0.498070 0.949522 -0.099856
C10   C     C_3   0.386439 0.501930 0.050478 -0.099858
C11   C     C_R   0.259638 0.498662 0.499785 0.848101
C12   C     C_R   0.740362 0.501338 0.500215 0.848064
C13   C     C_3   0.039904 0.397027 0.572008 -0.126521
C14   C     C_3   0.960096 0.602973 0.427991 -0.126528
C15   C     C_3   0.956300 0.397505 0.438846 0.011442
C16   C     C_3   0.043700 0.602495 0.561153 0.011431
C17   C     C_3   0.877252 0.501642 0.500749 -0.081505
C18   C     C_3   0.122748 0.498358 0.499250 -0.081493
C19   C     C_3   0.959321 0.502667 0.634885 -0.206893
C20   C     C_3   0.040679 0.497333 0.365114 -0.206873
C21   C     C_3   0.490929 0.037317 0.634874 -0.161616
C22   C     C_3   0.509075 0.962683 0.365127 -0.161602
C23   C     C_3   0.596189 0.956685 0.574313 0.014054
C24   C     C_3   0.403814 0.043315 0.425688 0.014046
C25   C     C_3   0.498288 0.877177 0.497596 -0.085315
C26   C     C_3   0.501715 0.122824 0.502405 -0.085336
Cu1   Cu    Cu3+1 0.500030 0.499990 0.643150 1.001646
Cu2   Cu    Cu3+1 0.499970 0.500010 0.356850 1.001656
H1    H     H_    0.401036 0.683254 0.897128 0.176174
H2    H     H_    0.598964 0.316746 0.102872 0.176174
N1    N     N_3   0.500090 0.499970 0.858290 -0.202719
N2    N     N_3   0.499910 0.500030 0.141710 -0.202720
O1    O     O_R   0.500060 0.316850 0.620870 -0.579581
O2    O     O_R   0.499940 0.683150 0.379130 -0.579576
O3    O     O_R   0.500000 0.316860 0.379090 -0.582582
O4    O     O_R   0.500000 0.683140 0.620910 -0.582595
O5    O     O_R   0.316880 0.499960 0.620870 -0.518476
O6    O     O_R   0.683120 0.500040 0.379130 -0.518465
O7    O     O_R   0.316830 0.499970 0.379090 -0.602054
O8    O     O_R   0.683170 0.500030 0.620910 -0.602072
C27   C     C_2   0.904206 0.283192 0.369115 0.798109
O9    O     O_2   0.921794 0.179083 0.422019 -0.576037
O10   O     O_R   0.836260 0.296524 0.243447 -0.752239
H3    H     H_    0.806682 0.212866 0.205537 0.330613
C28   C     C_2   0.095798 0.716807 0.630883 0.798119
O11   O     O_2   0.078236 0.820915 0.577963 -0.576039
O12   O     O_R   0.163719 0.703476 0.756567 -0.752230
H4    H     H_    0.193310 0.787135 0.794465 0.330615
H5    H     H_    0.073378 0.311635 0.628915 0.206876
H6    H     H_    0.926622 0.688366 0.371085 0.206887
H7    H     H_    0.924571 0.506224 0.745211 0.170777
H8    H     H_    0.075429 0.493775 0.254788 0.170771
C29   C     C_2   0.702629 0.903805 0.658967 0.896196
O13   O     O_2   0.718011 0.934902 0.781403 -0.546517
O14   O     O_R   0.781735 0.816558 0.598343 -0.762963
H9    H     H_    0.843611 0.780630 0.669304 0.339888
C30   C     C_2   0.297371 0.096181 0.341032 0.896189
O15   O     O_2   0.281944 0.065000 0.218622 -0.546500
O16   O     O_R   0.218301 0.183493 0.401626 -0.762987
H10   H     H_    0.156404 0.219381 0.330668 0.339901
H11   H     H_    0.486453 0.068195 0.745474 0.224674
H12   H     H_    0.513550 0.931806 0.254528 0.224677
H13   H     H_    0.303146 0.919232 0.603541 0.192726
H14   H     H_    0.696861 0.080769 0.396464 0.192728
C31   C     C_2   0.628296 0.709938 0.095716 0.866874
O17   O     O_2   0.597115 0.814078 0.052774 -0.589396
O18   O     O_R   0.731556 0.696492 0.185219 -0.737486
H15   H     H_    0.770421 0.780465 0.210520 0.333631
C32   C     C_2   0.371702 0.290062 0.904285 0.866842
O19   O     O_2   0.402880 0.185922 0.947231 -0.589427
O20   O     O_R   0.268445 0.303509 0.814779 -0.737481
H16   H     H_    0.229580 0.219536 0.789479 0.333627
H17   H     H_    0.709291 0.497546 0.903813 0.149874
H18   H     H_    0.290709 0.502454 0.096187 0.149876

loop_
_geom_bond_atom_site_label_1
_geom_bond_atom_site_label_2
_ccdc_geom_bond_type
C7    C10   S    
O14   H9    S    
C11   C18   S    
C7    H1    S    
C6    C32   S    
C27   O9    D    
C21   C26   S    
C1    O1    A    
C29   O13   D    
Cu1   O1    S    
C13   C18   S    
C24   C26   S    
C30   O16   S    
C18   C20   S    
C32   O20   S    
C11   O5    A    
Cu2   O3    S    
C8    C9    S    
C31   O18   S    
C22   C25   S    
C12   C17   S    
C21   H11   S    
C5    N2    S    
C2    O2    A    
C28   O12   S    
C6    N1    S    
Cu2   O2    S    
O16   H10   S    
C27   O10   S    
C14   C17   S    
C3    C24   S    
C9    H17   S    
C23   C29   S    
C29   O14   S    
C15   C20   S    
C7    N1    S    
C13   C19   S    
Cu1   N1    S    
O18   H15   S    
C8    N2    S    
C14   C20   S    
Cu2   N2    S    
C15   C27   S    
C5    C31   S    
C5    C7    S    
C4    C23   S    
C24   C30   S    
C6    C8    S    
Cu2   O7    S    
C28   O11   D    
C12   O8    A    
O10   H3    S    
C5    C9    S    
C10   N2    S    
C22   H12   S    
C4    C22   S    
O12   H4    S    
Cu2   O6    S    
Cu1   O8    S    
C11   O7    A    
C13   H5    S    
C13   C15   S    
C1    C26   S    
C14   C16   S    
C3    C21   S    
C1    O3    A    
C2    O4    A    
C15   C17   S    
C16   C28   S    
C6    C10   S    
C4    C26   S    
C3    H13   S    
Cu1   O4    S    
C4    H14   S    
C8    H2    S    
C21   C23   S    
O20   H16   S    
C20   H8    S    
C10   H18   S    
C30   O15   D    
C14   H6    S    
Cu1   O5    S    
C16   C19   S    
C17   C19   S    
C2    C25   S    
C22   C24   S    
C23   C25   S    
C12   O6    A    
C32   O19   D    
C9    N1    S    
C19   H7    S    
C3    C25   S    
C16   C18   S    
C31   O17   D    
Cu1   Cu2   S    
