data_mof_unit_34963.cif
_audit_creation_date              2012-12-10T20:38:21-0500
_audit_creation_method            fapswitch 2.2
_symmetry_space_group_name_H-M    P1
_symmetry_Int_Tables_number       1
_space_group_crystal_system       triclinic
_cell_length_a                    9.872792
_cell_length_b                    10.688243
_cell_length_c                    16.976709
_cell_angle_alpha                 90.485417
_cell_angle_beta                  85.790267
_cell_angle_gamma                 89.455251
_cell_volume                      1786.44035192

loop_
_atom_site_label
_atom_site_type_symbol
_atom_type_description
_atom_site_fract_x
_atom_site_fract_y
_atom_site_fract_z
_atom_type_partial_charge
C1    C     C_R   0.499910 0.740007 0.497434 0.906016
C2    C     C_R   0.368879 0.554090 0.779839 -0.191815
C3    C     C_R   0.424231 0.352112 0.161112 -0.078351
C4    C     C_R   0.427093 0.384366 0.239381 -0.218632
C5    C     C_R   0.634801 0.504720 0.210668 0.385203
C6    C     C_R   0.639655 0.458564 0.132174 -0.076393
C7    C     C_R   0.525184 0.394803 0.107305 0.071575
C8    C     C_2   0.471480 0.501134 0.986378 -0.068584
C9    C     C_2   0.493608 0.394190 0.025322 -0.258545
C10   C     C_R   0.527157 0.465067 0.264114 -0.190778
C11   C     C_R   0.378808 0.937536 0.486278 0.119135
C12   C     C_R   0.481671 0.494995 0.652180 0.941592
C13   C     C_R   0.500845 0.871282 0.484836 -0.082732
C14   C     C_R   0.624265 0.933734 0.468918 -0.155677
C15   C     C_R   0.624879 0.063267 0.469206 -0.192261
C16   C     C_R   0.502165 0.128623 0.485676 -0.060603
C17   C     C_R   0.379516 0.065106 0.487701 0.079046
C18   C     C_3   0.254714 0.073434 0.543719 -0.239009
C19   C     C_3   0.255073 0.931133 0.542319 -0.482808
C20   C     C_R   0.924516 0.598234 0.532215 0.136766
C21   C     C_R   0.933675 0.408348 0.462331 -0.063999
C22   C     C_R   0.077593 0.408130 0.462521 -0.121118
C23   C     C_R   0.500856 0.260105 0.497405 0.925289
C24   C     C_R   0.066985 0.599119 0.530914 0.212277
C25   C     C_3   0.066284 0.647865 0.613238 -0.561077
C26   C     C_3   0.912187 0.646966 0.615827 -0.260462
C27   C     C_R   0.518219 0.496640 0.347502 0.920215
C28   C     C_R   0.470166 0.483848 0.737118 -0.073617
C29   C     C_R   0.560903 0.408031 0.776364 0.047166
C30   C     C_R   0.560899 0.419252 0.857592 -0.188451
C31   C     C_R   0.462357 0.492367 0.900915 -0.004482
C32   C     C_R   0.360656 0.555987 0.862180 -0.003029
H1    H     H_    0.720328 0.883619 0.461548 0.189895
H2    H     H_    0.721143 0.111152 0.461840 0.163407
H3    H     H_    0.166775 0.115336 0.515732 0.123603
H4    H     H_    0.277225 0.886836 0.599083 0.222940
H5    H     H_    0.167237 0.891768 0.513418 0.192144
H6    H     H_    0.883883 0.333206 0.433079 0.141352
H7    H     H_    0.136181 0.332703 0.433490 0.140711
H8    H     H_    0.112420 0.580362 0.653307 0.213697
H9    H     H_    0.346851 0.349962 0.280344 0.174661
H10   H     H_    0.106711 0.743598 0.616527 0.204992
H11   H     H_    0.865979 0.742356 0.620740 0.192219
H12   H     H_    0.485985 0.303668 0.996328 0.166874
H13   H     H_    0.338717 0.300129 0.141778 0.162952
H14   H     H_    0.296665 0.608032 0.748588 0.185071
H15   H     H_    0.637271 0.368538 0.887686 0.125056
N1    N     N_R   0.857140 0.500860 0.500530 -0.116919
N2    N     N_R   0.142780 0.500820 0.500530 -0.108450
O1    O     O_R   0.385310 0.683210 0.499990 -0.617687
O2    O     O_R   0.614650 0.683240 0.500000 -0.607210
O3    O     O_R   0.371780 0.500000 0.615800 -0.645354
O4    O     O_R   0.601120 0.500040 0.615800 -0.592105
O5    O     O_R   0.385350 0.316760 0.500000 -0.657424
O6    O     O_R   0.614690 0.316790 0.500010 -0.611988
O7    O     O_R   0.398880 0.499960 0.384200 -0.617803
O8    O     O_R   0.628220 0.500000 0.384200 -0.555874
Zn1   Zn    Zn3+2 0.346870 0.499980 0.499990 0.954814
Zn2   Zn    Zn3+2 0.653130 0.500020 0.500010 1.022373
C33   C     C_2   0.654339 0.313682 0.736394 0.415174
H16   H     H_    0.742780 0.281619 0.765195 0.055033
O9    O     O_2   0.630714 0.266125 0.673319 -0.544668
C34   C     C_2   0.759958 0.475243 0.075195 0.492566
H17   H     H_    0.748513 0.477760 0.012197 0.053512
O10   O     O_2   0.874561 0.478509 0.097624 -0.490111
C35   C     C_2   0.276990 0.129895 0.623527 0.505155
H18   H     H_    0.210323 0.204765 0.646864 0.048230
O11   O     O_2   0.369258 0.093535 0.662018 -0.528787
C36   C     C_2   0.854632 0.557095 0.676419 0.548053
H19   H     H_    0.875882 0.457560 0.669947 0.036819
O12   O     O_2   0.787050 0.596336 0.734628 -0.569914
S1    S     S_3+6 0.747076 0.625343 0.237850 0.089380
O13   O     O_2   0.868472 0.566206 0.271648 -0.225341
O14   O     O_2   0.794264 0.702032 0.167426 -0.242643
O15   O     O_3   0.670208 0.722659 0.305981 -0.551876
H20   H     H_    0.591368 0.757982 0.280535 0.347109
C37   C     C_2   0.244089 0.620735 0.906145 0.407017
H21   H     H_    0.223805 0.607203 0.969096 0.112894
O16   O     O_2   0.167453 0.688682 0.872232 -0.535375
C38   C     C_2   0.468570 0.628331 0.023519 0.413976
H22   H     H_    0.491857 0.709125 0.986854 0.084085
O17   O     O_2   0.433960 0.644968 0.093371 -0.538092

loop_
_geom_bond_atom_site_label_1
_geom_bond_atom_site_label_2
_ccdc_geom_bond_type
C10   C27   S    
C35   O11   D    
C34   O10   D    
O6    Zn2   S    
C14   H1    S    
O4    Zn2   S    
C37   H21   S    
C2    H14   S    
C11   C19   S    
C12   C28   S    
C2    C32   A    
C28   C29   A    
C5    S1    S    
C3    C7    A    
C19   H4    S    
C25   H8    S    
O5    Zn1   S    
C5    C6    A    
O8    Zn2   S    
C16   C17   A    
C4    H9    S    
C15   C16   A    
C33   O9    D    
C18   C19   S    
C36   O12   D    
C19   H5    S    
C32   C37   S    
C21   H6    S    
C20   C24   A    
C8    C9    D    
C1    O1    A    
C15   H2    S    
C12   O4    A    
C21   N1    A    
C35   H18   S    
C21   C22   A    
S1    O15   S    
C12   O3    A    
C26   H11   S    
C37   O16   D    
O1    Zn1   S    
C30   H15   S    
C24   C25   S    
S1    O14   D    
C27   O8    A    
C27   O7    A    
C38   H22   S    
C25   C26   S    
C3    H13   S    
N2    Zn1   S    
C33   H16   S    
C6    C34   S    
O15   H20   S    
C29   C30   A    
C31   C32   A    
C29   C33   S    
C17   C18   S    
N1    Zn2   S    
C1    O2    A    
C20   N1    A    
O3    Zn1   S    
C22   N2    A    
C38   O17   D    
C16   C23   S    
C1    C13   S    
C4    C10   A    
C3    C4    A    
C23   O5    A    
C18   H3    S    
C24   N2    A    
C7    C9    S    
C11   C17   A    
C9    H12   S    
C8    C31   S    
S1    O13   D    
C25   H10   S    
C23   O6    A    
C6    C7    A    
C18   C35   S    
C5    C10   A    
C11   C13   A    
C30   C31   A    
C20   C26   S    
C22   H7    S    
O7    Zn1   S    
C36   H19   S    
C34   H17   S    
O2    Zn2   S    
C8    C38   S    
C26   C36   S    
C14   C15   A    
C2    C28   A    
C13   C14   A    
