data_mof_unit_36760.cif
_audit_creation_date              2012-12-10T16:53:29-0500
_audit_creation_method            fapswitch 2.2
_symmetry_space_group_name_H-M    P1
_symmetry_Int_Tables_number       1
_space_group_crystal_system       triclinic
_cell_length_a                    7.798772
_cell_length_b                    8.602364
_cell_length_c                    13.569768
_cell_angle_alpha                 91.895522
_cell_angle_beta                  78.954915
_cell_angle_gamma                 93.04007
_cell_volume                      892.002562675

loop_
_atom_site_label
_atom_site_type_symbol
_atom_type_description
_atom_site_fract_x
_atom_site_fract_y
_atom_site_fract_z
_atom_type_partial_charge
C1    C     C_R   0.544853 0.794167 0.495721 0.947133
C2    C     C_1   0.574690 0.523517 0.120327 0.059625
C3    C     C_2   0.561894 0.953698 0.473192 -0.070346
C4    C     C_2   0.438275 0.046324 0.526702 -0.074049
C5    C     C_2   0.293554 0.654381 0.044767 0.952168
C6    C     C_2   0.759280 0.496228 0.950387 0.980879
C7    C     C_3   0.692317 0.000959 0.377047 -0.422580
C8    C     C_3   0.695504 0.883700 0.289418 -0.821400
C9    C     C_3   0.308516 0.999185 0.623109 -0.406150
C10   C     C_3   0.304953 0.117213 0.710416 -0.833298
C11   C     C_R   0.455192 0.205825 0.504150 0.944047
C12   C     C_R   0.471496 0.505932 0.687208 0.873963
C13   C     C_R   0.528933 0.495800 0.312717 0.872635
C14   C     C_1   0.552633 0.507775 0.208392 -0.108364
C15   C     C_1   0.456563 0.533478 0.790612 -0.112654
C16   C     C_2   0.592574 0.544022 0.015651 -0.125000
C17   C     C_2   0.452977 0.590277 0.980470 -0.116834
C18   C     C_1   0.449581 0.561541 0.877396 0.045800
H1    H     H_    0.025128 0.378996 0.425968 0.194034
H2    H     H_    0.439988 0.150292 0.721027 0.250660
H3    H     H_    0.237243 0.222366 0.697100 0.276247
H4    H     H_    0.231302 0.065029 0.780785 0.264960
H5    H     H_    0.175067 0.983317 0.605708 0.227961
H6    H     H_    0.341061 0.888803 0.653603 0.226399
H7    H     H_    0.974857 0.620938 0.574084 0.200263
H8    H     H_    0.184499 0.763864 0.173765 0.344542
H9    H     H_    0.930393 0.517075 0.818903 0.350459
H10   H     H_    0.762012 0.777837 0.302685 0.273597
H11   H     H_    0.560386 0.852034 0.278396 0.274006
H12   H     H_    0.770200 0.935832 0.219294 0.260987
H13   H     H_    0.660782 0.111794 0.346714 0.227541
H14   H     H_    0.825683 0.015822 0.394671 0.226672
N1    N     N_2   0.954190 0.457600 0.473930 -0.166357
N2    N     N_2   0.045810 0.542400 0.526070 -0.166955
O1    O     O_R   0.388300 0.738660 0.506400 -0.629773
O2    O     O_R   0.301249 0.724503 0.138427 -0.814047
O3    O     O_2   0.851322 0.406302 0.982052 -0.595842
O4    O     O_R   0.814575 0.557727 0.854727 -0.797874
O5    O     O_R   0.611700 0.261340 0.493600 -0.631726
O6    O     O_R   0.679920 0.711490 0.489690 -0.619570
O7    O     O_R   0.320080 0.288510 0.510310 -0.621472
O8    O     O_R   0.333200 0.515510 0.649910 -0.625360
O9    O     O_R   0.666800 0.484490 0.350090 -0.619274
O10   O     O_R   0.624820 0.488340 0.633200 -0.594285
O11   O     O_R   0.375180 0.511660 0.366800 -0.599317
O12   O     O_2   0.155909 0.650198 0.013845 -0.596081
Zn1   Zn    Zn3+2 0.305280 0.518140 0.511160 0.945224
Zn2   Zn    Zn3+2 0.694720 0.481860 0.488840 0.948808

loop_
_geom_bond_atom_site_label_1
_geom_bond_atom_site_label_2
_ccdc_geom_bond_type
C15   C18   T    
C13   O11   A    
C6    O4    S    
C9    H6    S    
C7    H14   S    
C2    C16   S    
O9    Zn2   S    
C12   C15   S    
H7    N2    S    
C8    H12   S    
N1    N2    D    
O7    Zn1   S    
C6    O3    D    
O1    Zn1   S    
C7    C8    S    
C12   O10   A    
C13   C14   S    
C10   H4    S    
C4    C11   S    
C11   O5    A    
C2    C14   T    
C8    H11   S    
C9    C10   S    
H8    O2    S    
C11   O7    A    
C3    C7    S    
O8    Zn1   S    
O11   Zn1   S    
C10   H3    S    
H1    N1    S    
C8    H10   S    
C5    C17   S    
H9    O4    S    
C6    C16   S    
C3    C4    D    
C5    O2    S    
C13   O9    A    
C7    H13   S    
C1    O1    A    
C17   C18   S    
C5    O12   D    
O6    Zn2   S    
N1    Zn2   S    
C9    H5    S    
C12   O8    A    
N2    Zn1   S    
C1    O6    A    
C1    C3    S    
C4    C9    S    
O10   Zn2   S    
C10   H2    S    
C16   C17   D    
O5    Zn2   S    
