data_mof_unit_58868.cif
_audit_creation_date              2012-12-10T18:28:20-0500
_audit_creation_method            fapswitch 2.2
_symmetry_space_group_name_H-M    P1
_symmetry_Int_Tables_number       1
_space_group_crystal_system       triclinic
_cell_length_a                    23.698815
_cell_length_b                    20.299879
_cell_length_c                    14.859234
_cell_angle_alpha                 90.115456
_cell_angle_beta                  99.836404
_cell_angle_gamma                 89.946821
_cell_volume                      7043.4239535

loop_
_atom_site_label
_atom_site_type_symbol
_atom_type_description
_atom_site_fract_x
_atom_site_fract_y
_atom_site_fract_z
_atom_type_partial_charge
C1    C     C_R   0.575308 0.086996 0.554476 0.870176
C2    C     C_R   0.748253 0.768530 0.330147 -0.216203
C3    C     C_R   0.726096 0.229313 0.484351 -0.056216
C4    C     C_R   0.218238 0.259882 0.479031 -0.143032
C5    C     C_R   0.764904 0.717247 0.510190 -0.024973
C6    C     C_R   0.770989 0.274662 0.514313 -0.063080
C7    C     C_R   0.225997 0.729446 0.484287 -0.056198
C8    C     C_R   0.276353 0.198411 0.604364 0.435562
C9    C     C_R   0.706776 0.778369 0.384579 0.424262
C10   C     C_R   0.715946 0.208089 0.391089 0.434296
C11   C     C_R   0.280749 0.796339 0.607469 0.446497
C12   C     C_R   0.776330 0.698378 0.604366 0.435592
C13   C     C_R   0.757149 0.220240 0.336005 -0.359714
C14   C     C_R   0.206819 0.278431 0.384589 0.424265
C15   C     C_R   0.215857 0.708203 0.391035 0.434263
C16   C     C_R   0.780896 0.296145 0.607560 0.446460
C17   C     C_R   0.669065 0.051765 0.034188 0.141559
C18   C     C_R   0.700420 0.016608 0.977686 -0.164451
C19   C     C_R   0.756413 0.035353 0.971800 -0.121661
C20   C     C_R   0.781150 0.089836 0.020995 -0.098589
C21   C     C_R   0.749825 0.125914 0.075752 -0.140892
C22   C     C_R   0.693862 0.107232 0.082093 -0.137701
C23   C     C_R   0.332286 0.055302 0.966673 0.146712
C24   C     C_R   0.240013 0.782905 0.662988 -0.336995
C25   C     C_R   0.301288 0.022410 0.025689 -0.160282
C26   C     C_R   0.245797 0.042658 0.032563 -0.121947
C27   C     C_R   0.221213 0.096479 0.981918 -0.098953
C28   C     C_R   0.252174 0.130339 0.924638 -0.141978
C29   C     C_R   0.307597 0.110054 0.917127 -0.136547
C30   C     C_R   0.169037 0.551869 0.034201 0.141560
C31   C     C_R   0.200434 0.516704 0.977768 -0.164403
C32   C     C_R   0.256425 0.535484 0.971913 -0.121633
C33   C     C_R   0.281113 0.590009 0.021061 -0.098571
C34   C     C_R   0.249743 0.626096 0.075741 -0.140933
C35   C     C_R   0.736068 0.712378 0.660614 -0.361014
C36   C     C_R   0.193785 0.607377 0.082058 -0.137755
C37   C     C_R   0.832253 0.555159 0.966674 0.146693
C38   C     C_R   0.801266 0.522199 0.025643 -0.160264
C39   C     C_R   0.745747 0.542367 0.032479 -0.121949
C40   C     C_R   0.721125 0.596174 0.981844 -0.098909
C41   C     C_R   0.752076 0.630105 0.924617 -0.141934
C42   C     C_R   0.807527 0.609900 0.917146 -0.136594
C43   C     C_R   0.689424 0.983951 0.209513 0.133728
C44   C     C_R   0.732433 0.019305 0.266508 -0.173366
C45   C     C_R   0.789905 0.001454 0.272109 -0.115538
C46   C     C_R   0.248298 0.268588 0.330162 -0.216233
C47   C     C_R   0.804748 0.947629 0.222162 -0.096057
C48   C     C_R   0.762118 0.911385 0.166841 -0.155037
C49   C     C_R   0.704583 0.929101 0.160963 -0.088959
C50   C     C_R   0.311027 0.984245 0.792824 0.136210
C51   C     C_R   0.267703 0.017091 0.733118 -0.169445
C52   C     C_R   0.210326 0.999636 0.729569 -0.115932
C53   C     C_R   0.195823 0.948742 0.784539 -0.091732
C54   C     C_R   0.238711 0.914927 0.842702 -0.156014
C55   C     C_R   0.296169 0.932050 0.846199 -0.148665
C56   C     C_R   0.189434 0.484073 0.209525 0.133710
C57   C     C_R   0.257073 0.720329 0.335968 -0.359782
C58   C     C_R   0.232420 0.519489 0.266476 -0.173318
C59   C     C_R   0.289905 0.501689 0.272085 -0.115558
C60   C     C_R   0.304783 0.447852 0.222196 -0.096054
C61   C     C_R   0.262177 0.411545 0.166923 -0.154994
C62   C     C_R   0.204629 0.429212 0.161032 -0.089015
C63   C     C_R   0.811035 0.484143 0.792807 0.136270
C64   C     C_R   0.767694 0.516997 0.733145 -0.169444
C65   C     C_R   0.710325 0.499503 0.729587 -0.115946
C66   C     C_R   0.695847 0.448561 0.784503 -0.091672
C67   C     C_R   0.738753 0.414739 0.842620 -0.155986
C68   C     C_R   0.740166 0.282720 0.663092 -0.336985
C69   C     C_R   0.796203 0.431902 0.846127 -0.148595
C70   C     C_R   0.628381 0.001786 0.204906 -0.112296
C71   C     C_R   0.372014 0.002127 0.796151 -0.117335
C72   C     C_R   0.128379 0.501853 0.204911 -0.112280
C73   C     C_R   0.424601 0.913107 0.445477 0.862641
C74   C     C_R   0.872013 0.502067 0.796145 -0.117352
C75   C     C_R   0.606100 0.995486 0.285257 0.032019
C76   C     C_R   0.393948 0.995420 0.715413 0.021101
C77   C     C_R   0.106103 0.495530 0.285260 0.032039
C78   C     C_R   0.893950 0.495389 0.715408 0.021084
C79   C     C_R   0.511224 0.009503 0.207440 -0.061416
C80   C     C_R   0.489073 0.009457 0.792322 -0.062154
C81   C     C_R   0.011219 0.509478 0.207440 -0.061411
C82   C     C_R   0.989068 0.509468 0.792323 -0.062156
C83   C     C_R   0.530117 0.019287 0.124011 -0.012890
C84   C     C_R   0.424373 0.086604 0.445386 0.865248
C85   C     C_R   0.470597 0.019351 0.876117 -0.016163
C86   C     C_R   0.030106 0.519282 0.124012 -0.012900
C87   C     C_R   0.970587 0.519339 0.876118 -0.016164
C88   C     C_R   0.590300 0.017711 0.122765 0.051645
C89   C     C_R   0.410427 0.018586 0.877790 0.055690
C90   C     C_R   0.090290 0.517750 0.122768 0.051658
C91   C     C_R   0.910418 0.518534 0.877788 0.055693
C92   C     C_R   0.490494 0.027435 0.041982 0.077715
C93   C     C_R   0.510496 0.026919 0.958106 0.077073
C94   C     C_R   0.990478 0.527412 0.041984 0.077711
C95   C     C_R   0.575022 0.912537 0.554058 0.861903
C96   C     C_R   0.010482 0.526920 0.958108 0.077070
C97   C     C_R   0.569676 0.034803 0.958895 -0.285997
C98   C     C_R   0.431554 0.037067 0.041338 -0.289388
C99   C     C_R   0.069660 0.534840 0.958899 -0.285991
C100  C     C_R   0.931532 0.537001 0.041340 -0.289399
C101  C     C_R   0.609369 0.032535 0.039719 -0.011742
C102  C     C_R   0.391691 0.034750 0.960789 -0.010534
C103  C     C_R   0.109352 0.532592 0.039724 -0.011744
C104  C     C_R   0.891672 0.534668 0.960789 -0.010521
C105  C     C_R   0.615510 0.859897 0.584838 -0.072263
C106  C     C_R   0.075303 0.587003 0.554472 0.870159
C107  C     C_R   0.380059 0.134450 0.411651 -0.093880
C108  C     C_R   0.381892 0.863229 0.412764 -0.094919
C109  C     C_R   0.617364 0.137617 0.586878 -0.097251
C110  C     C_R   0.115516 0.359905 0.584839 -0.072275
C111  C     C_R   0.880049 0.634439 0.411650 -0.093885
C112  C     C_R   0.881918 0.363196 0.412784 -0.094915
C113  C     C_R   0.117328 0.637662 0.586851 -0.097253
C114  C     C_R   0.655686 0.776368 0.692600 -0.184889
C115  C     C_R   0.335326 0.215178 0.303215 -0.175357
C116  C     C_R   0.341149 0.778574 0.307160 -0.181160
C117  C     C_R   0.924605 0.413102 0.445481 0.862652
C118  C     C_R   0.657492 0.222282 0.692949 -0.172060
C119  C     C_R   0.155685 0.276360 0.692582 -0.184886
C120  C     C_R   0.835294 0.715149 0.303206 -0.175359
C121  C     C_R   0.841186 0.278546 0.307160 -0.181151
C122  C     C_R   0.157387 0.722390 0.692874 -0.172054
C123  C     C_R   0.616514 0.827217 0.668066 -0.190371
C124  C     C_R   0.379078 0.169676 0.330420 -0.184455
C125  C     C_R   0.382553 0.826974 0.332678 -0.200863
C126  C     C_R   0.616876 0.173013 0.667742 -0.191973
C127  C     C_R   0.116509 0.327205 0.668051 -0.190352
C128  C     C_R   0.924372 0.586602 0.445386 0.865259
C129  C     C_R   0.879058 0.669662 0.330416 -0.184455
C130  C     C_R   0.882567 0.326973 0.332667 -0.200852
C131  C     C_R   0.116813 0.673072 0.667698 -0.191946
C132  C     C_R   0.652245 0.840202 0.526262 -0.247915
C133  C     C_R   0.338014 0.145359 0.464564 -0.150247
C134  C     C_R   0.340625 0.850354 0.466426 -0.153534
C135  C     C_R   0.657615 0.152260 0.532102 -0.151413
C136  C     C_R   0.152268 0.340234 0.526278 -0.247912
C137  C     C_R   0.838001 0.645335 0.464563 -0.150230
C138  C     C_R   0.840692 0.350255 0.466496 -0.153534
C139  C     C_R   0.075023 0.412539 0.554059 0.861928
C140  C     C_R   0.157561 0.652344 0.532059 -0.151422
C141  C     C_R   0.685964 0.784126 0.543827 0.084951
C142  C     C_R   0.300050 0.197652 0.446663 0.099602
C143  C     C_R   0.305219 0.795589 0.450269 0.102471
C144  C     C_R   0.692272 0.207635 0.548471 0.101799
C145  C     C_R   0.185988 0.284158 0.543830 0.084960
C146  C     C_R   0.800024 0.697616 0.446659 0.099581
C147  C     C_R   0.805307 0.295473 0.450330 0.102495
C148  C     C_R   0.192179 0.707755 0.548407 0.101847
C149  C     C_R   0.691497 0.755837 0.631697 0.147320
C150  C     C_R   0.236083 0.212394 0.660604 -0.361040
C151  C     C_R   0.295315 0.228763 0.360556 0.055455
C152  C     C_R   0.301947 0.763315 0.365102 0.117893
C153  C     C_R   0.695790 0.239089 0.634185 0.104996
C154  C     C_R   0.191509 0.255850 0.631688 0.147318
C155  C     C_R   0.795281 0.728722 0.360546 0.055455
C156  C     C_R   0.802016 0.263235 0.365135 0.117885
C157  C     C_R   0.195672 0.739226 0.634102 0.104977
C158  C     C_R   0.718206 0.759835 0.479026 -0.143043
C159  C     C_R   0.264931 0.217287 0.510192 -0.024962
C160  C     C_R   0.270876 0.774814 0.514240 -0.063081
H1    H     H_    0.242971 0.194652 0.730303 0.134684
H2    H     H_    0.415573 0.050184 0.102753 0.142551
H3    H     H_    0.086093 0.546575 0.897500 0.142370
H4    H     H_    0.915542 0.550093 0.102756 0.142555
H5    H     H_    0.334041 0.110876 0.518256 0.198833
H6    H     H_    0.655447 0.870184 0.467424 0.206159
H7    H     H_    0.662818 0.118391 0.478095 0.200621
H8    H     H_    0.335333 0.885101 0.519338 0.200693
H9    H     H_    0.834035 0.610851 0.518255 0.198863
H10   H     H_    0.155480 0.370232 0.467459 0.206158
H11   H     H_    0.162781 0.618481 0.478053 0.200583
H12   H     H_    0.740843 0.786928 0.260689 0.166618
H13   H     H_    0.835407 0.384964 0.519458 0.200684
H14   H     H_    0.410874 0.160905 0.287361 0.160439
H15   H     H_    0.588367 0.841957 0.714756 0.160159
H16   H     H_    0.586283 0.161743 0.711942 0.162348
H17   H     H_    0.413916 0.836921 0.289319 0.162209
H18   H     H_    0.910855 0.660899 0.287356 0.160443
H19   H     H_    0.088348 0.341927 0.714730 0.160171
H20   H     H_    0.086230 0.661777 0.711905 0.162350
H21   H     H_    0.913901 0.336966 0.289274 0.162202
H22   H     H_    0.658726 0.753996 0.759425 0.129595
H23   H     H_    0.751628 0.200102 0.267476 0.135529
H24   H     H_    0.332718 0.239628 0.237858 0.134326
H25   H     H_    0.339735 0.753169 0.242590 0.131408
H26   H     H_    0.659095 0.247046 0.758027 0.135778
H27   H     H_    0.158716 0.253973 0.759396 0.129604
H28   H     H_    0.832679 0.739595 0.237846 0.134317
H29   H     H_    0.839758 0.253169 0.242566 0.131400
H30   H     H_    0.158969 0.747167 0.757939 0.135787
H31   H     H_    0.533396 0.008535 0.784715 0.127946
H32   H     H_    0.466790 0.008540 0.214473 0.127996
H33   H     H_    0.033392 0.508568 0.784718 0.127951
H34   H     H_    0.245705 0.802257 0.731926 0.149801
H35   H     H_    0.966786 0.508485 0.214475 0.127993
H36   H     H_    0.365746 0.985317 0.651528 0.140586
H37   H     H_    0.634087 0.985673 0.349411 0.138144
H38   H     H_    0.865753 0.485278 0.651520 0.140542
H39   H     H_    0.134095 0.485739 0.349416 0.138143
H40   H     H_    0.330242 0.164885 0.709052 0.325804
H41   H     H_    0.624410 0.781502 0.371008 0.337130
H42   H     H_    0.663948 0.170230 0.287320 0.325245
H43   H     H_    0.331787 0.836246 0.710749 0.334541
H44   H     H_    0.830217 0.664842 0.709052 0.325804
H45   H     H_    0.742962 0.694649 0.730321 0.134646
H46   H     H_    0.124452 0.281576 0.370994 0.337136
H47   H     H_    0.163859 0.670353 0.287261 0.325246
H48   H     H_    0.831984 0.335968 0.710852 0.334508
H49   H     H_    0.681759 0.974206 0.939379 0.122535
H50   H     H_    0.780621 0.007651 0.929054 0.128001
H51   H     H_    0.824495 0.104302 0.016322 0.120731
H52   H     H_    0.768917 0.168430 0.113086 0.114792
H53   H     H_    0.669921 0.135701 0.124460 0.114374
H54   H     H_    0.319853 0.980601 0.065304 0.122090
H55   H     H_    0.221896 0.016694 0.077304 0.127643
H56   H     H_    0.240896 0.286996 0.260709 0.166593
H57   H     H_    0.178298 0.112210 0.987493 0.121945
H58   H     H_    0.233253 0.172513 0.886496 0.115042
H59   H     H_    0.331316 0.136942 0.873004 0.115022
H60   H     H_    0.181810 0.474270 0.939499 0.122534
H61   H     H_    0.280667 0.507774 0.929229 0.127985
H62   H     H_    0.324455 0.604501 0.016414 0.120721
H63   H     H_    0.268797 0.668646 0.113035 0.114795
H64   H     H_    0.169810 0.635850 0.124370 0.114399
H65   H     H_    0.819858 0.480396 0.065242 0.122086
H66   H     H_    0.721853 0.516346 0.077175 0.127634
H67   H     H_    0.251565 0.700169 0.267452 0.135547
H68   H     H_    0.678187 0.611839 0.987382 0.121932
H69   H     H_    0.733125 0.672264 0.886476 0.115037
H70   H     H_    0.831236 0.636837 0.873055 0.115020
H71   H     H_    0.721475 0.060990 0.305702 0.136053
H72   H     H_    0.822924 0.029301 0.315288 0.130700
H73   H     H_    0.849257 0.933817 0.226651 0.124076
H74   H     H_    0.773638 0.869428 0.128717 0.119275
H75   H     H_    0.671882 0.900409 0.118305 0.126622
H76   H     H_    0.278302 0.056512 0.690068 0.138788
H77   H     H_    0.177112 0.025572 0.684157 0.129093
H78   H     H_    0.745883 0.302042 0.732046 0.149760
H79   H     H_    0.151382 0.935275 0.781724 0.122459
H80   H     H_    0.227463 0.875184 0.884729 0.123206
H81   H     H_    0.329046 0.905124 0.891039 0.123510
H82   H     H_    0.221432 0.561181 0.305627 0.136066
H83   H     H_    0.322906 0.529584 0.315227 0.130700
H84   H     H_    0.349302 0.434080 0.226692 0.124067
H85   H     H_    0.273726 0.369580 0.128843 0.119268
H86   H     H_    0.171946 0.400474 0.118410 0.126641
H87   H     H_    0.778275 0.556457 0.690141 0.138772
H88   H     H_    0.677097 0.525446 0.684212 0.129080
H89   H     H_    0.586112 0.046523 0.897494 0.142366
H90   H     H_    0.651413 0.435063 0.781680 0.122448
H91   H     H_    0.727524 0.374959 0.884605 0.123158
H92   H     H_    0.829094 0.404971 0.890930 0.123455
N1    N     N_R   0.549130 0.000000 0.284090 -0.109311
N2    N     N_R   0.450870 0.000000 0.715910 -0.106674
N3    N     N_R   0.049130 0.500000 0.284090 -0.109319
N4    N     N_R   0.950870 0.500000 0.715910 -0.106672
O1    O     O_R   0.541320 0.066090 0.608930 -0.617521
O2    O     O_R   0.427120 0.933890 0.529720 -0.609779
O3    O     O_R   0.427120 0.066110 0.529720 -0.603452
O4    O     O_R   0.572880 0.933890 0.470280 -0.620750
O5    O     O_R   0.072880 0.566110 0.470280 -0.603518
O6    O     O_R   0.927120 0.433890 0.529720 -0.609839
O7    O     O_R   0.927120 0.566110 0.529720 -0.603443
O8    O     O_R   0.072880 0.433890 0.470280 -0.620726
O9    O     O_3   0.328891 0.172312 0.642791 -0.793415
O10   O     O_3   0.654505 0.801565 0.341020 -0.784524
O11   O     O_3   0.664052 0.180405 0.352649 -0.788972
O12   O     O_R   0.458680 0.933910 0.391070 -0.616722
O13   O     O_3   0.332072 0.825391 0.645724 -0.789378
O14   O     O_3   0.828865 0.672271 0.642791 -0.793425
O15   O     O_3   0.154555 0.301645 0.341027 -0.784533
O16   O     O_3   0.163963 0.680521 0.352592 -0.788944
O17   O     O_3   0.832242 0.325149 0.645807 -0.789317
O18   O     O_R   0.458680 0.066090 0.391070 -0.616994
O19   O     O_R   0.541320 0.933910 0.608930 -0.614330
O20   O     O_R   0.041320 0.566090 0.608930 -0.617525
O21   O     O_R   0.958680 0.433910 0.391070 -0.616732
O22   O     O_R   0.958680 0.566090 0.391070 -0.616978
O23   O     O_R   0.041320 0.433910 0.608930 -0.614314
O24   O     O_R   0.572880 0.066110 0.470280 -0.603494
Zn1   Zn    Zn3+2 0.478910 0.000000 0.592580 0.960782
Zn2   Zn    Zn3+2 0.521090 1.000000 0.407420 0.956006
Zn3   Zn    Zn3+2 0.978910 0.500000 0.592580 0.960777
Zn4   Zn    Zn3+2 0.021090 0.500000 0.407420 0.956010

loop_
_geom_bond_atom_site_label_1
_geom_bond_atom_site_label_2
_ccdc_geom_bond_type
C74   C91   A    
C99   C103  A    
C66   H90   S    
C47   H73   S    
C2    C155  A    
C121  C156  A    
C84   O18   A    
C89   C102  A    
C109  C135  A    
C19   H50   S    
C15   C57   A    
C41   C42   A    
C84   O3    A    
C110  C136  A    
C19   C20   A    
O18   Zn2   S    
C91   C104  A    
C43   C44   A    
C3    C6    A    
C70   C88   A    
C140  C148  A    
C115  H24   S    
C118  H26   S    
C92   C98   A    
C143  C160  A    
C14   C46   A    
C53   C54   A    
C52   C53   A    
C132  H6    S    
C83   C92   A    
C79   N1    A    
C28   C29   A    
C26   C27   A    
C37   C38   A    
C80   N2    A    
C60   C61   A    
C23   C29   A    
C139  O23   A    
C25   H54   S    
C44   H71   S    
C12   O14   S    
C7    C148  A    
C87   C91   A    
C121  H29   S    
C38   C39   A    
C128  O7    A    
C23   C102  S    
C124  H14   S    
C61   H85   S    
C82   C87   A    
C68   H78   S    
C96   C99   A    
C11   C24   A    
C100  C104  A    
C84   C107  S    
C95   O19   A    
C105  C123  A    
C118  C153  A    
C59   H83   S    
C18   C19   A    
C20   H51   S    
C37   C42   A    
C58   H82   S    
O6    Zn3   S    
C17   C101  S    
C82   H33   S    
C117  O21   A    
H43   O13   S    
C69   H92   S    
C1    C109  S    
C134  C143  A    
C85   C93   A    
C35   H45   S    
C146  C155  A    
C63   C69   A    
C56   C58   A    
C43   C70   S    
C39   H66   S    
C98   C102  A    
C77   N3    A    
C30   C103  S    
C4    C14   A    
C72   C77   A    
C16   C68   A    
C45   H72   S    
O23   Zn3   S    
C108  C125  A    
C76   N2    A    
H42   O11   S    
C36   H64   S    
C150  C154  A    
C137  H9    S    
C81   C86   A    
C48   H74   S    
C110  C127  A    
C27   C28   A    
C33   H62   S    
C37   C104  S    
C7    C15   A    
C46   C151  A    
O7    Zn3   S    
C59   C60   A    
O22   Zn4   S    
H46   O15   S    
O1    Zn1   S    
C11   O13   S    
C53   H79   S    
C107  C124  A    
O19   Zn1   S    
C120  H28   S    
C2    H12   S    
C128  O22   A    
C98   H2    S    
C111  C129  A    
C11   C160  A    
C122  H30   S    
C105  C132  A    
C1    O1    A    
C45   C47   A    
C86   C94   A    
C95   O4    A    
C16   O17   S    
C43   C49   A    
C60   H84   S    
C44   C45   A    
C10   O11   S    
C107  C133  A    
C106  C113  S    
C141  C149  A    
C120  C129  A    
C47   C48   A    
C112  C138  A    
C137  C146  A    
O3    Zn1   S    
C18   H49   S    
C106  O20   A    
C57   C152  A    
C1    O24   A    
C68   C153  A    
C86   C90   A    
C39   C40   A    
C85   C89   A    
C73   O2    A    
C82   N4    A    
C73   C108  S    
C97   H89   S    
C7    C160  A    
C50   C51   A    
C25   C26   A    
C114  H22   S    
C6    C16   A    
C130  H21   S    
C120  C155  A    
H48   O17   S    
N1    Zn2   S    
C51   C52   A    
O12   Zn2   S    
C51   H76   S    
C67   C69   A    
C57   H67   S    
C142  C151  A    
C40   H68   S    
C8    C150  A    
C50   C71   S    
C13   C156  A    
C108  C134  A    
C80   C85   A    
C73   O12   A    
C133  H5    S    
C81   H35   S    
O5    Zn4   S    
C72   C90   A    
C94   C100  A    
C141  C158  A    
O4    Zn2   S    
H47   O16   S    
C71   C89   A    
C24   H34   S    
C138  C147  A    
O24   Zn2   S    
C50   C55   A    
C87   C96   A    
C138  H13   S    
C17   C18   A    
C133  C142  A    
C113  C140  A    
C100  H4    S    
C121  C130  A    
C81   N3    A    
C12   C35   A    
C94   C96   A    
C147  C156  A    
C77   H39   S    
C52   H77   S    
C5    C12   A    
C142  C159  A    
C99   H3    S    
C114  C123  A    
C42   H70   S    
C35   C149  A    
C40   C41   A    
O20   Zn3   S    
C65   H88   S    
C41   H69   S    
C27   H57   S    
C119  C154  A    
C46   H56   S    
C116  C125  A    
C38   H65   S    
C125  H17   S    
O8    Zn4   S    
C80   H31   S    
C56   C62   A    
C22   H53   S    
H41   O10   S    
C117  O6    A    
C112  C130  A    
C15   O16   S    
C5    C158  A    
C93   C97   A    
C122  C131  A    
C116  C152  A    
C126  H16   S    
C34   H63   S    
C111  C137  A    
C31   H60   S    
C116  H25   S    
C132  C141  A    
C150  H1    S    
C54   C55   A    
C110  C139  S    
C28   H58   S    
C115  C124  A    
C55   H81   S    
N4    Zn3   S    
C56   C72   S    
C24   C157  A    
C21   C22   A    
O21   Zn4   S    
C31   C32   A    
C88   C101  A    
C3    C144  A    
C136  C145  A    
C136  H10   S    
C8    O9    S    
C75   N1    A    
C10   C13   A    
C71   C76   A    
C75   H37   S    
C123  H15   S    
C131  H20   S    
H44   O14   S    
C63   C74   S    
C95   C105  S    
C140  H11   S    
C13   H23   S    
C129  H18   S    
C17   C22   A    
C114  C149  A    
C21   H52   S    
C30   C36   A    
C112  C117  S    
C79   H32   S    
C127  H19   S    
C32   C33   A    
C58   C59   A    
C78   N4    A    
C118  C126  A    
C3    C10   A    
C32   H61   S    
C66   C67   A    
C64   C65   A    
C79   C83   A    
C6    C147  A    
C8    C159  A    
C30   C31   A    
C64   H87   S    
C9    C158  A    
C48   C49   A    
C4    C145  A    
N3    Zn4   S    
C92   C93   A    
C76   H36   S    
C122  C157  A    
C33   C34   A    
C83   C88   A    
O2    Zn1   S    
C134  H8    S    
C148  C157  A    
C106  O5    A    
C5    C146  A    
C61   C62   A    
H40   O9    S    
C97   C101  A    
C90   C103  A    
C135  C144  A    
C62   H86   S    
C9    O10   S    
C54   H80   S    
C63   C64   A    
C4    C159  A    
N2    Zn1   S    
C109  C126  A    
C29   H59   S    
C23   C25   A    
C20   C21   A    
C34   C36   A    
C49   H75   S    
C65   C66   A    
C74   C78   A    
C113  C131  A    
C115  C151  A    
C111  C128  S    
C135  H7    S    
C26   H55   S    
C70   C75   A    
C139  O8    A    
C78   H38   S    
C119  H27   S    
C145  C154  A    
C144  C153  A    
C2    C9    A    
C143  C152  A    
C67   H91   S    
C14   O15   S    
C119  C127  A    
