data_mof_unit_37006.cif
_audit_creation_date              2012-12-11T15:41:29-0500
_audit_creation_method            fapswitch 2.2
_symmetry_space_group_name_H-M    P1
_symmetry_Int_Tables_number       1
_space_group_crystal_system       triclinic
_cell_length_a                    14.788803
_cell_length_b                    14.900073
_cell_length_c                    14.866537
_cell_angle_alpha                 108.820282
_cell_angle_beta                  109.707062
_cell_angle_gamma                 108.939076
_cell_volume                      2550.71101644

loop_
_atom_site_label
_atom_site_type_symbol
_atom_type_description
_atom_site_fract_x
_atom_site_fract_y
_atom_site_fract_z
_atom_type_partial_charge
C1    C     C_R   0.194158 0.993956 0.901599 -0.118419
C2    C     C_R   0.787702 0.903852 0.425828 -0.087954
C3    C     C_R   0.268544 0.302373 0.830883 -0.151797
C4    C     C_R   0.690661 0.808274 0.342786 -0.154324
C5    C     C_R   0.282728 0.338688 0.936927 0.097794
C6    C     C_R   0.694117 0.724109 0.268448 0.102831
C7    C     C_R   0.192249 0.295676 0.951329 -0.189378
C8    C     C_R   0.796586 0.737185 0.279581 -0.161199
C9    C     C_R   0.089154 0.216222 0.860674 -0.087259
C10   C     C_R   0.893379 0.832867 0.362893 -0.090644
C11   C     C_R   0.075656 0.180340 0.755390 -0.048359
C12   C     C_R   0.748491 0.933315 0.027037 -0.083989
C13   C     C_R   0.888949 0.916122 0.435851 -0.052454
C14   C     C_R   0.394371 0.530225 0.060835 -0.227904
C15   C     C_R   0.584740 0.522139 0.160036 -0.231644
C16   C     C_R   0.802883 0.204942 0.298184 0.491058
C17   C     C_R   0.241580 0.776708 0.685065 0.542330
C18   C     C_R   0.495883 0.624120 0.116586 0.045823
C19   C     C_R   0.487407 0.425227 0.077076 0.065082
C20   C     C_R   0.590732 0.623016 0.180112 0.041425
C21   C     C_R   0.389060 0.430056 0.031058 0.031752
C22   C     C_R   0.050160 0.451671 0.389412 -0.155031
C23   C     C_R   0.864495 0.298910 0.302026 -0.111874
C24   C     C_R   0.049140 0.505761 0.587685 -0.145650
C25   C     C_R   0.138600 0.544284 0.483358 -0.215243
C26   C     C_R   0.963008 0.413901 0.495672 -0.202955
C27   C     C_R   0.135387 0.572322 0.581124 0.170222
C28   C     C_R   0.962588 0.388102 0.396636 0.151012
C29   C     C_R   0.596968 0.159632 0.620566 -0.161775
C30   C     C_R   0.397507 0.056917 0.428023 -0.161770
C31   C     C_R   0.596395 0.156812 0.526383 -0.175661
C32   C     C_R   0.397975 0.059962 0.522204 -0.173399
C33   C     C_R   0.496990 0.094495 0.427100 0.147757
C34   C     C_R   0.215117 0.674511 0.676311 -0.130152
C35   C     C_R   0.498023 0.101369 0.615712 0.144661
C36   C     C_R   0.959865 0.831906 0.932124 -0.444107
C37   C     C_R   0.859414 0.927223 0.831014 -0.450511
C38   C     C_R   0.865931 0.830805 0.934325 0.545169
C39   C     C_R   0.949105 0.921839 0.822627 0.544238
C40   C     C_R   0.406611 0.973399 0.221862 -0.122363
C41   C     C_R   0.590862 0.095715 0.790777 -0.136444
C42   C     C_R   0.827656 0.895065 0.899159 0.042041
C43   C     C_R   0.009757 0.889959 0.888988 0.035234
C44   C     C_R   0.588267 0.314576 0.056696 -0.118990
C45   C     C_R   0.497730 0.050263 0.324270 0.014221
C46   C     C_R   0.409495 0.705845 0.012145 -0.121908
C47   C     C_R   0.590493 0.065355 0.313595 -0.123153
C48   C     C_R   0.408675 0.006459 0.700906 -0.058586
C49   C     C_R   0.404619 0.220001 0.969403 -0.139361
C50   C     C_R   0.591351 0.793460 0.101071 -0.107101
C51   C     C_R   0.802880 0.300205 0.209945 -0.207593
C52   C     C_R   0.249557 0.686600 0.780023 -0.202860
C53   C     C_R   0.194036 0.901959 0.992313 -0.159983
C54   C     C_R   0.747446 0.023460 0.932675 -0.152863
C55   C     C_R   0.127880 0.928474 0.926803 0.117691
C56   C     C_R   0.499369 0.067937 0.698209 0.000591
C57   C     C_R   0.772563 0.944806 0.947478 0.099643
C58   C     C_R   0.493119 0.324046 0.037310 0.054101
C59   C     C_R   0.500360 0.705632 0.079806 0.055438
C60   C     C_R   0.165370 0.222832 0.740546 -0.124326
H1    H     H_    0.168986 0.019879 0.842175 0.178480
H2    H     H_    0.971889 0.842611 0.370682 0.114124
H3    H     H_    0.318548 0.531050 0.022417 0.124544
H4    H     H_    0.657527 0.519705 0.205836 0.126031
H5    H     H_    0.048769 0.430743 0.311901 0.117632
H6    H     H_    0.045102 0.527668 0.662645 0.119264
H7    H     H_    0.206653 0.595802 0.479374 0.128367
H8    H     H_    0.893978 0.365840 0.500915 0.127500
H9    H     H_    0.675591 0.198251 0.693235 0.105648
H10   H     H_    0.319034 0.014832 0.354278 0.109298
H11   H     H_    0.997084 0.793693 0.971163 0.142702
H12   H     H_    0.758959 0.882499 0.062512 0.169633
H13   H     H_    0.820487 0.963684 0.790556 0.144223
H14   H     H_    0.320996 0.941257 0.199519 0.095853
H15   H     H_    0.674691 0.155508 0.823095 0.088010
H16   H     H_    0.672594 0.378862 0.106042 0.094831
H17   H     H_    0.325107 0.659920 0.990613 0.084437
H18   H     H_    0.675103 0.118406 0.376522 0.145941
H19   H     H_    0.325277 0.987396 0.652426 0.148434
H20   H     H_    0.319310 0.193228 0.943203 0.126244
H21   H     H_    0.676128 0.825007 0.158725 0.123494
H22   H     H_    0.830097 0.357932 0.182956 0.122145
H23   H     H_    0.154639 0.195119 0.658953 0.111494
H24   H     H_    0.237730 0.623522 0.802882 0.133078
H25   H     H_    0.167653 0.840863 0.015623 0.094749
H26   H     H_    0.756732 0.054368 0.878170 0.103779
H27   H     H_    0.995511 0.120152 0.685199 0.090998
H28   H     H_    0.963997 0.990142 0.500049 0.099856
H29   H     H_    0.674682 0.193777 0.530280 0.108397
H30   H     H_    0.319649 0.019917 0.517126 0.113386
H31   H     H_    0.920623 0.203989 0.405759 0.312441
H32   H     H_    0.155723 0.734428 0.533201 0.312891
H33   H     H_    0.852591 0.731974 0.994885 0.312718
H34   H     H_    0.784394 0.968419 0.482423 0.107068
H35   H     H_    0.923057 0.962164 0.708071 0.308833
H36   H     H_    0.337113 0.336486 0.818447 0.124603
H37   H     H_    0.612848 0.799958 0.336244 0.118978
H38   H     H_    0.201505 0.324449 0.032416 0.121101
H39   H     H_    0.801567 0.674152 0.222964 0.112612
H40   H     H_    0.019467 0.183246 0.871915 0.108536
N1    N     N_R   0.293810 0.002730 0.945950 -0.057876
N2    N     N_R   0.443210 0.997250 0.791090 -0.045702
N3    N     N_R   0.443180 0.152110 0.945950 -0.046822
N4    N     N_R   0.556820 0.847890 0.054050 -0.046153
N5    N     N_R   0.706170 0.208950 0.152090 -0.062540
N6    N     N_R   0.293830 0.791050 0.847910 -0.064310
N7    N     N_R   0.293800 0.945910 0.002760 -0.042639
N8    N     N_R   0.706200 0.054090 0.997240 -0.045834
N9    N     N_R   0.706190 0.997270 0.054050 -0.053409
N10   N     N_R   0.706160 0.152130 0.208910 -0.067747
N11   N     N_R   0.293840 0.847870 0.791090 -0.069401
N12   N     N_R   0.443140 0.945920 0.152090 -0.043705
N13   N     N_R   0.556860 0.054080 0.847910 -0.043337
N14   N     N_R   0.556830 0.208940 0.002760 -0.040511
N15   N     N_R   0.443170 0.791060 0.997240 -0.040619
N16   N     N_R   0.556790 0.002750 0.208910 -0.034051
Ni1   Ni    Ni4+2 0.369690 0.999990 0.869700 0.240765
Ni2   Ni    Ni4+2 0.630310 0.000010 0.130300 0.258148
Ni3   Ni    Ni4+2 0.369670 0.869670 0.000000 0.199694
Ni4   Ni    Ni4+2 0.630330 0.130330 0.000000 0.200572
O1    O     O_3   0.840400 0.156586 0.355883 -0.797684
O2    O     O_3   0.204808 0.802286 0.603735 -0.799211
O3    O     O_3   0.814882 0.772316 0.974683 -0.792666
O4    O     O_3   0.979629 0.950251 0.753714 -0.788443

loop_
_geom_bond_atom_site_label_1
_geom_bond_atom_site_label_2
_ccdc_geom_bond_type
H35   O4    S    
N1    N7    A    
N5    N10   A    
C50   N4    A    
C7    H38   S    
N6    Ni3   S    
C33   C45   S    
C14   C18   A    
C25   H7    S    
C24   C27   A    
C9    H40   S    
N10   Ni2   S    
C16   N10   A    
C40   N12   A    
N3    Ni1   S    
C15   C19   A    
C46   N15   A    
C50   C59   A    
C48   H19   S    
C19   C21   A    
C8    H39   S    
C24   C26   A    
C38   C42   A    
C41   C56   A    
C46   C59   A    
C60   H23   S    
N4    N15   A    
N8    N9    A    
C44   H16   S    
C37   C42   A    
C52   H24   S    
C2    C13   A    
N8    Ni4   S    
C32   H30   S    
C44   C58   A    
C31   H29   S    
C22   C25   A    
C15   H4    S    
C31   C33   A    
N5    Ni4   S    
C3    H36   S    
C29   H9    S    
C38   O3    S    
C36   H11   S    
C24   H6    S    
C3    C60   A    
C45   C47   A    
C12   H12   S    
C44   N14   A    
C19   C58   S    
C22   C28   A    
C4    H37   S    
C10   H2    S    
C17   N11   A    
C42   C57   S    
N7    Ni3   S    
C12   N9    A    
C30   H10   S    
N9    Ni2   S    
N4    Ni2   S    
N6    N11   A    
C53   C55   A    
C27   C34   S    
C15   C20   A    
C32   C35   A    
C2    H34   S    
N3    N14   A    
C4    C6    A    
C11   H27   S    
C54   H26   S    
C39   C43   A    
C39   O4    S    
C2    C4    A    
C16   O1    S    
C22   H5    S    
H32   O2    S    
C41   H15   S    
N13   Ni4   S    
C53   N7    A    
C23   C51   A    
C51   N5    A    
C48   N2    A    
C23   C28   S    
C9    C11   A    
C51   H22   S    
N2    Ni1   S    
N16   Ni2   S    
C12   C57   A    
C43   C55   S    
C16   C23   A    
N15   Ni3   S    
C17   C34   A    
C11   C60   A    
C1    N1    A    
N12   N16   A    
C14   C21   A    
C5    C7    A    
C17   O2    S    
C48   C56   A    
C37   H13   S    
C30   C33   A    
C35   C56   S    
C34   C52   A    
C8    C10   A    
H33   O3    S    
C41   N13   A    
C3    C5    A    
C10   C13   A    
C1    H1    S    
C49   N3    A    
N12   Ni3   S    
C6    C8    A    
C25   C27   A    
C46   H17   S    
C6    C20   S    
C29   C35   A    
C26   C28   A    
C49   H20   S    
C54   N8    A    
N11   Ni1   S    
N1    Ni1   S    
C36   C38   A    
C1    C55   A    
C26   H8    S    
C29   C31   A    
N2    N13   A    
C30   C32   A    
C14   H3    S    
C13   H28   S    
C47   N16   A    
C40   H14   S    
C18   C20   A    
C49   C58   A    
C52   N6    A    
C7    C9    A    
C18   C59   S    
C5    C21   S    
C40   C45   A    
C37   C39   A    
H31   O1    S    
C36   C43   A    
C53   H25   S    
C47   H18   S    
N14   Ni4   S    
C50   H21   S    
C54   C57   A    
