data_mof_unit_26617.cif
_audit_creation_date              2012-12-10T18:11:46-0500
_audit_creation_method            fapswitch 2.2
_symmetry_space_group_name_H-M    P1
_symmetry_Int_Tables_number       1
_space_group_crystal_system       triclinic
_cell_length_a                    10.500244
_cell_length_b                    12.694731
_cell_length_c                    13.173453
_cell_angle_alpha                 82.168828
_cell_angle_beta                  92.937137
_cell_angle_gamma                 102.04725
_cell_volume                      1700.83048359

loop_
_atom_site_label
_atom_site_type_symbol
_atom_type_description
_atom_site_fract_x
_atom_site_fract_y
_atom_site_fract_z
_atom_type_partial_charge
C1    C     C_R   0.474950 0.439806 0.690438 0.865018
C2    C     C_R   0.421114 0.450375 0.969525 0.085831
C3    C     C_R   0.419450 0.479976 0.862640 0.022897
C4    C     C_R   0.741975 0.499726 0.502269 0.846561
C5    C     C_R   0.450769 0.534667 0.032470 0.104340
C6    C     C_R   0.484081 0.644434 0.987932 0.174866
C7    C     C_R   0.451747 0.670910 0.885421 -0.261140
C8    C     C_R   0.408627 0.588096 0.825343 -0.159048
C9    C     C_R   0.455576 0.512884 0.138097 -0.260027
C10   C     C_R   0.569399 0.696913 0.151994 -0.221090
C11   C     C_R   0.437791 0.403325 0.797974 -0.231999
C12   C     C_3   0.067114 0.595168 0.524941 -0.117004
C13   C     C_R   0.262743 0.079540 0.403202 -0.279723
C14   C     C_R   0.666391 0.802741 0.623661 0.128023
C15   C     C_R   0.705719 0.908350 0.647113 -0.293772
C16   C     C_R   0.516130 0.560029 0.308827 0.858818
C17   C     C_R   0.641180 0.988053 0.602468 -0.194091
C18   C     C_R   0.533512 0.962259 0.536029 -0.039512
C19   C     C_R   0.496307 0.853798 0.511881 0.101711
C20   C     C_R   0.461268 0.040645 0.492199 -0.010807
C21   C     C_R   0.337380 0.005324 0.446891 0.120591
C22   C     C_R   0.294149 0.896980 0.437065 -0.404880
C23   C     C_3   0.969409 0.514802 0.596413 -0.192988
C24   C     C_R   0.384908 0.829829 0.445765 0.472152
C25   C     C_R   0.506434 0.152850 0.490585 -0.006184
C26   C     C_R   0.313820 0.189039 0.401837 0.012789
C27   C     C_R   0.257830 0.499450 0.499741 0.856909
C28   C     C_3   0.932294 0.402316 0.480010 -0.123646
C29   C     C_3   0.027217 0.418705 0.572527 -0.195744
C30   C     C_3   0.122151 0.498806 0.500959 0.034179
C31   C     C_3   0.029902 0.482536 0.408508 -0.190840
C32   C     C_3   0.972335 0.578746 0.432384 -0.186647
C33   C     C_3   0.566889 0.179438 0.808120 0.077215
C34   C     C_3   0.877363 0.498860 0.503761 0.043196
C35   C     C_3   0.687673 0.260964 0.765524 -0.359945
C36   C     C_3   0.812280 0.219915 0.797206 -0.973612
C37   C     C_1   0.730400 0.721167 0.677234 0.243216
C38   C     C_3   0.337943 0.779268 0.281749 0.077268
C39   C     C_3   0.232305 0.692202 0.240866 -0.336298
C40   C     C_3   0.201236 0.721585 0.127435 -0.954480
C41   C     C_R   0.546430 0.724869 0.047422 -0.221187
C42   C     C_R   0.515481 0.592290 0.198364 -0.051652
C43   C     C_R   0.433398 0.293782 0.840097 0.510435
C44   C     C_R   0.405904 0.261833 0.943610 -0.255098
C45   C     C_R   0.405297 0.338979 0.008449 -0.274598
H1    H     H_    0.055123 0.353579 0.628863 0.141993
H2    H     H_    0.873671 0.323289 0.462056 0.141567
H3    H     H_    0.673484 0.068053 0.624844 0.142550
H4    H     H_    0.785353 0.928808 0.701336 0.149768
H5    H     H_    0.058744 0.468929 0.332199 0.128959
H6    H     H_    0.943879 0.643834 0.376253 0.127885
H7    H     H_    0.125546 0.674150 0.543126 0.154143
H8    H     H_    0.940989 0.526857 0.673274 0.156469
H9    H     H_    0.621863 0.757956 0.197206 0.144933
H10   H     H_    0.460504 0.754834 0.851754 0.148714
H11   H     H_    0.578086 0.808249 0.013042 0.136343
H12   H     H_    0.410387 0.433969 0.174802 0.156010
H13   H     H_    0.560753 0.102411 0.775347 0.164858
H14   H     H_    0.577999 0.158783 0.892556 0.121546
H15   H     H_    0.679932 0.274565 0.680560 0.234232
H16   H     H_    0.694266 0.339984 0.794853 0.210721
H17   H     H_    0.822909 0.207105 0.882066 0.268617
H18   H     H_    0.897571 0.281024 0.766347 0.267122
H19   H     H_    0.810982 0.142375 0.766694 0.259090
H20   H     H_    0.427426 0.791209 0.238527 0.158500
H21   H     H_    0.306991 0.858427 0.263960 0.115999
H22   H     H_    0.263028 0.612811 0.252630 0.217732
H23   H     H_    0.397614 0.308580 0.088765 0.153843
H24   H     H_    0.142602 0.684310 0.284192 0.215697
H25   H     H_    0.163024 0.797710 0.115379 0.258603
H26   H     H_    0.126157 0.655260 0.100440 0.266916
H27   H     H_    0.289514 0.732678 0.081402 0.279415
H28   H     H_    0.394105 0.177199 0.975521 0.147384
H29   H     H_    0.373522 0.611051 0.748707 0.179286
H30   H     H_    0.256626 0.248022 0.370534 0.130548
H31   H     H_    0.199065 0.870078 0.402132 0.161017
H32   H     H_    0.167648 0.053272 0.368316 0.139660
H33   H     H_    0.598387 0.187222 0.524899 0.110770
N1    N     N_R   0.432930 0.222190 0.444670 -0.107151
N2    N     N_R   0.566370 0.776980 0.554790 -0.139025
N3    N     N_1   0.782234 0.656340 0.721668 -0.237728
O1    O     O_R   0.467970 0.366730 0.627150 -0.556459
O2    O     O_3   0.366321 0.745697 0.386791 -0.588943
O3    O     O_R   0.510820 0.544830 0.662520 -0.631685
O4    O     O_R   0.664630 0.410960 0.482340 -0.640163
O5    O     O_R   0.707470 0.589060 0.517710 -0.617206
O6    O     O_R   0.489180 0.455170 0.337480 -0.628576
O7    O     O_R   0.532030 0.633270 0.372850 -0.563259
O8    O     O_R   0.292530 0.410940 0.482290 -0.634603
O9    O     O_R   0.335370 0.589040 0.517660 -0.579374
O10   O     O_3   0.450707 0.217292 0.778925 -0.623995
Zn1   Zn    Zn3+2 0.471390 0.381080 0.476380 0.947509
Zn2   Zn    Zn3+2 0.528610 0.618920 0.523620 0.969762

loop_
_geom_bond_atom_site_label_1
_geom_bond_atom_site_label_2
_ccdc_geom_bond_type
C28   H2    S    
C33   H13   S    
C40   H26   S    
C38   O2    S    
C10   C42   A    
C35   C36   S    
C1    C11   S    
C17   H3    S    
C22   H31   S    
C7    C8    A    
C41   H11   S    
C1    O3    A    
C12   C23   S    
C9    C42   A    
C40   H25   S    
C23   C29   S    
C28   C29   S    
C24   O2    S    
C33   O10   S    
C38   C39   S    
C4    O5    A    
C20   C25   A    
O1    Zn1   S    
C27   O9    A    
C17   C18   A    
C18   C19   A    
C38   H21   S    
C6    C41   A    
C16   O6    A    
C11   C43   A    
C7    H10   S    
C36   H18   S    
C18   C20   A    
C28   C34   S    
C33   H14   S    
C21   C22   A    
C12   C32   S    
C10   C41   A    
C37   N3    T    
C19   N2    A    
C36   H17   S    
C12   H7    S    
O4    Zn1   S    
C23   H8    S    
C4    C34   S    
C2    C45   A    
C13   H32   S    
C25   H33   S    
C3    C8    A    
C39   C40   S    
C4    O4    A    
C1    O1    A    
C43   O10   S    
C35   H15   S    
C32   C34   S    
C43   C44   A    
C32   H6    S    
C5    C9    A    
C29   C30   S    
O5    Zn2   S    
C31   C32   S    
C38   H20   S    
C30   C31   S    
C23   C34   S    
C45   H23   S    
C8    H29   S    
C26   H30   S    
C39   H24   S    
C13   C21   A    
C35   H16   S    
O8    Zn1   S    
N1    Zn1   S    
C27   O8    A    
C14   N2    A    
C22   C24   A    
C13   C26   A    
C2    C5    A    
C31   H5    S    
C16   C42   S    
C44   C45   A    
O9    Zn2   S    
C15   C17   A    
O7    Zn2   S    
C40   H27   S    
C12   C30   S    
C25   N1    A    
C39   H22   S    
C28   C31   S    
C6    C7    A    
C26   N1    A    
C29   H1    S    
C19   C24   A    
C36   H19   S    
C14   C37   S    
C5    C6    A    
C33   C35   S    
C2    C3    A    
C9    H12   S    
O3    Zn2   S    
C15   H4    S    
C44   H28   S    
C10   H9    S    
C3    C11   A    
C20   C21   A    
C16   O7    A    
C14   C15   A    
N2    Zn2   S    
O6    Zn1   S    
C27   C30   S    
