data_mof_unit_65117.cif
_audit_creation_date              2012-12-10T16:52:57-0500
_audit_creation_method            fapswitch 2.2
_symmetry_space_group_name_H-M    P1
_symmetry_Int_Tables_number       1
_space_group_crystal_system       triclinic
_cell_length_a                    26.256847
_cell_length_b                    26.235719
_cell_length_c                    22.359884
_cell_angle_alpha                 89.998556
_cell_angle_beta                  53.745478
_cell_angle_gamma                 90.003213
_cell_volume                      12420.9408793

loop_
_atom_site_label
_atom_site_type_symbol
_atom_type_description
_atom_site_fract_x
_atom_site_fract_y
_atom_site_fract_z
_atom_type_partial_charge
C1    C     C_R   0.650297 0.250076 0.699364 0.510331
C2    C     C_1   0.889437 0.749939 0.221439 0.063226
C3    C     C_2   0.248291 0.943925 0.499311 -0.088408
C4    C     C_3   0.516448 0.796281 0.975678 0.240029
C5    C     C_3   0.516878 0.203767 0.975688 0.240381
C6    C     C_3   0.015625 0.296340 0.975687 0.239987
C7    C     C_3   0.013020 0.703571 0.975728 0.240232
C8    C     C_2   0.967222 0.146665 0.049436 0.260056
C9    C     C_2   0.973032 0.853662 0.049350 0.259885
C10   C     C_2   0.465384 0.646835 0.049455 0.259968
C11   C     C_2   0.464436 0.353073 0.049437 0.260023
C12   C     C_2   0.519339 0.242177 0.365561 0.234212
C13   C     C_1   0.389423 0.750088 0.221438 0.063405
C14   C     C_2   0.519341 0.757780 0.365551 0.233249
C15   C     C_2   0.019336 0.742147 0.365565 0.234259
C16   C     C_2   0.019340 0.257795 0.365553 0.233513
C17   C     C_1   0.389417 0.249916 0.221439 0.063048
C18   C     C_1   0.610819 0.749581 0.778579 0.044681
C19   C     C_1   0.610827 0.250422 0.778579 0.046013
C20   C     C_1   0.110821 0.249581 0.778579 0.044734
C21   C     C_1   0.110834 0.750418 0.778579 0.046091
C22   C     C_3   0.030484 0.269597 0.024485 0.245401
C23   C     C_3   0.029328 0.728094 0.024494 0.245387
C24   C     C_3   0.530821 0.768849 0.024486 0.245369
C25   C     C_R   0.650292 0.749925 0.699365 0.507868
C26   C     C_3   0.530991 0.231564 0.024497 0.245228
C27   C     C_3   0.962628 0.249028 0.073861 0.018577
C28   C     C_3   0.962693 0.751037 0.073862 0.018558
C29   C     C_3   0.462606 0.749048 0.073862 0.018591
C30   C     C_3   0.462595 0.250954 0.073862 0.018553
C31   C     C_3   0.552893 0.720724 0.974975 -0.180128
C32   C     C_3   0.552624 0.279660 0.974977 -0.180320
C33   C     C_3   0.053409 0.221434 0.974965 -0.180058
C34   C     C_3   0.054950 0.776280 0.974932 -0.180006
C35   C     C_3   0.537715 0.748863 0.926127 0.061163
C36   C     C_R   0.150296 0.750075 0.699364 0.510504
C37   C     C_3   0.537714 0.251148 0.926127 0.061105
C38   C     C_3   0.037732 0.248870 0.926126 0.061138
C39   C     C_3   0.037787 0.751111 0.926127 0.061059
C40   C     C_3   0.984517 0.200901 0.024620 -0.005530
C41   C     C_3   0.987278 0.799237 0.024579 -0.005433
C42   C     C_3   0.483643 0.700975 0.024629 -0.005489
C43   C     C_3   0.483194 0.298990 0.024621 -0.005468
C44   C     C_3   0.469612 0.729013 0.975461 0.203986
C45   C     C_3   0.469429 0.270590 0.975452 0.203945
C46   C     C_3   0.969989 0.228252 0.975462 0.203975
C47   C     C_R   0.150292 0.249925 0.699365 0.507820
C48   C     C_3   0.971268 0.774097 0.975453 0.203850
C49   C     C_1   0.922574 0.249767 0.154815 0.059048
C50   C     C_1   0.922603 0.750275 0.154816 0.059152
C51   C     C_1   0.422562 0.749779 0.154815 0.058994
C52   C     C_1   0.422554 0.250226 0.154816 0.058964
C53   C     C_R   0.849735 0.250073 0.300643 0.508246
C54   C     C_R   0.849733 0.749928 0.300644 0.509234
C55   C     C_R   0.349735 0.750073 0.300643 0.508168
C56   C     C_R   0.349733 0.249928 0.300644 0.508888
C57   C     C_1   0.577770 0.749274 0.845206 0.050403
C58   C     C_3   0.946860 0.276457 0.024978 -0.133901
C59   C     C_1   0.577776 0.250732 0.845206 0.051242
C60   C     C_1   0.077777 0.249276 0.845206 0.050464
C61   C     C_1   0.077804 0.750716 0.845206 0.051336
C62   C     C_2   0.502150 0.238637 0.442045 0.017608
C63   C     C_2   0.502158 0.761341 0.442031 0.017290
C64   C     C_2   0.002148 0.738624 0.442051 0.017603
C65   C     C_2   0.002157 0.261347 0.442034 0.017326
C66   C     C_2   0.442065 0.245131 0.504096 0.221478
C67   C     C_2   0.442069 0.754868 0.504087 0.220791
C68   C     C_2   0.942064 0.745131 0.504099 0.221433
C69   C     C_3   0.945440 0.725882 0.025012 -0.133959
C70   C     C_2   0.942069 0.254868 0.504089 0.220892
C71   C     C_2   0.554034 0.229066 0.448559 -0.065840
C72   C     C_2   0.554047 0.770913 0.448536 -0.065667
C73   C     C_2   0.054030 0.729056 0.448568 -0.065834
C74   C     C_2   0.054045 0.270918 0.448541 -0.065561
C75   C     C_2   0.559402 0.256799 0.494627 -0.061772
C76   C     C_2   0.559399 0.743195 0.494631 -0.062079
C77   C     C_2   0.059404 0.756798 0.494625 -0.061811
C78   C     C_2   0.059399 0.243196 0.494631 -0.062027
C79   C     C_2   0.745822 0.972164 0.456504 -0.045821
C80   C     C_3   0.447337 0.777183 0.024968 -0.133927
C81   C     C_2   0.738378 0.027836 0.462825 -0.042292
C82   C     C_2   0.245821 0.472164 0.456505 -0.045895
C83   C     C_2   0.238376 0.527836 0.462826 -0.042258
C84   C     C_2   0.736731 0.943664 0.512010 0.300044
C85   C     C_2   0.763560 0.056339 0.489214 0.304770
C86   C     C_2   0.236730 0.443664 0.512011 0.300021
C87   C     C_2   0.263559 0.556339 0.489214 0.304652
C88   C     C_R   0.889025 0.249878 0.499255 0.475891
C89   C     C_R   0.889022 0.750120 0.499260 0.478603
C90   C     C_R   0.389025 0.749878 0.499255 0.475888
C91   C     C_3   0.447593 0.222446 0.024968 -0.134001
C92   C     C_R   0.389023 0.250121 0.499259 0.478595
C93   C     C_R   0.611805 0.250822 0.499352 0.509345
C94   C     C_R   0.611803 0.749177 0.499354 0.508494
C95   C     C_R   0.111805 0.750822 0.499352 0.509192
C96   C     C_R   0.111803 0.249177 0.499354 0.508586
C97   C     C_R   0.752120 0.111419 0.498275 0.495165
C98   C     C_R   0.747924 0.888581 0.501840 0.494822
C99   C     C_R   0.252120 0.611419 0.498275 0.495187
C100  C     C_R   0.247924 0.388581 0.501840 0.494622
C101  C     C_R   0.749995 0.388660 0.500254 0.516868
C102  C     C_1   0.889428 0.250083 0.221438 0.063411
C103  C     C_R   0.749922 0.611340 0.499866 0.516906
C104  C     C_R   0.249926 0.888660 0.499863 0.516945
C105  C     C_R   0.249991 0.111340 0.500257 0.516869
C106  C     C_2   0.801081 0.528057 0.458325 -0.146788
C107  C     C_2   0.800796 0.471952 0.456677 -0.146881
C108  C     C_2   0.300793 0.028056 0.456687 -0.147067
C109  C     C_2   0.301085 0.971951 0.458329 -0.146944
C110  C     C_2   0.748285 0.556074 0.499318 -0.088534
C111  C     C_2   0.748952 0.443925 0.503061 -0.088373
C112  C     C_2   0.248945 0.056075 0.503065 -0.088323
H1    H     H_    0.846783 0.546705 0.423560 0.169269
H2    H     H_    0.526000 0.712824 0.527388 0.170479
H3    H     H_    0.026025 0.787184 0.527347 0.171298
H4    H     H_    0.026002 0.212823 0.527383 0.170604
H5    H     H_    0.758009 0.954529 0.405623 0.110795
H6    H     H_    0.712530 0.045468 0.444255 0.104666
H7    H     H_    0.258007 0.454529 0.405624 0.111079
H8    H     H_    0.212529 0.545468 0.444257 0.104876
H9    H     H_    0.701767 0.539166 0.533210 0.113873
H10   H     H_    0.703957 0.460825 0.545599 0.114003
H11   H     H_    0.203948 0.039167 0.545598 0.114190
H12   H     H_    0.845456 0.453313 0.415980 0.169122
H13   H     H_    0.201773 0.960826 0.533197 0.114067
H14   H     H_    0.903612 0.298718 0.044781 0.135415
H15   H     H_    0.900993 0.705513 0.044844 0.135775
H16   H     H_    0.404491 0.800032 0.044761 0.135236
H17   H     H_    0.404960 0.199289 0.044761 0.135285
H18   H     H_    0.596044 0.698204 0.954851 0.129467
H19   H     H_    0.595567 0.302490 0.954852 0.129421
H20   H     H_    0.096957 0.199505 0.954831 0.129621
H21   H     H_    0.099679 0.796310 0.954769 0.129883
H22   H     H_    0.383271 0.244008 0.612130 0.346942
H23   H     H_    0.345454 0.046703 0.415998 0.168891
H24   H     H_    0.383277 0.756018 0.612120 0.346950
H25   H     H_    0.883271 0.744030 0.612133 0.346960
H26   H     H_    0.883276 0.256009 0.612122 0.347093
H27   H     H_    0.704973 0.939360 0.615918 0.347813
H28   H     H_    0.821250 0.060651 0.517121 0.343120
H29   H     H_    0.204973 0.439360 0.615918 0.347793
H30   H     H_    0.321251 0.560650 0.517119 0.343015
H31   H     H_    0.513810 0.867972 0.993546 0.344521
H32   H     H_    0.514890 0.132138 0.993569 0.344467
H33   H     H_    0.011709 0.368131 0.993567 0.344555
H34   H     H_    0.346789 0.953312 0.423570 0.169089
H35   H     H_    0.005075 0.631614 0.993671 0.344304
H36   H     H_    0.395395 0.699454 0.992350 0.340393
H37   H     H_    0.394946 0.299528 0.992327 0.340434
H38   H     H_    0.896303 0.197534 0.992353 0.340442
H39   H     H_    0.899400 0.808395 0.992332 0.340369
H40   H     H_    0.985576 0.116517 0.008433 0.128185
H41   H     H_    0.993077 0.883879 0.008322 0.127873
H42   H     H_    0.483205 0.616728 0.008457 0.128059
H43   H     H_    0.481984 0.383154 0.008434 0.128065
H44   H     H_    0.104055 0.301067 0.006899 0.347240
H45   H     H_    0.590305 0.201570 0.411467 0.182028
H46   H     H_    0.101040 0.693070 0.006921 0.347379
H47   H     H_    0.604937 0.799168 0.006903 0.347192
H48   H     H_    0.605381 0.201862 0.006928 0.347315
H49   H     H_    0.486581 0.257396 0.355623 0.132087
H50   H     H_    0.486565 0.742576 0.355630 0.131119
H51   H     H_    0.986590 0.757380 0.355618 0.132177
H52   H     H_    0.986570 0.242582 0.355628 0.131072
H53   H     H_    0.590333 0.798398 0.411422 0.182134
H54   H     H_    0.090296 0.701553 0.411487 0.182124
H55   H     H_    0.090329 0.298405 0.411430 0.182429
H56   H     H_    0.526018 0.287179 0.527360 0.171271
O1    O     O_3   0.750010 0.250010 0.500000 -0.454443
O2    O     O_R   0.613890 0.719960 0.543100 -0.530438
O3    O     O_R   0.113890 0.780040 0.543100 -0.529888
O4    O     O_R   0.113890 0.219960 0.543100 -0.530171
O5    O     O_R   0.697860 0.219970 0.664410 -0.525570
O6    O     O_R   0.697860 0.780030 0.664410 -0.532210
O7    O     O_R   0.197860 0.719970 0.664410 -0.526287
O8    O     O_R   0.197860 0.280030 0.664410 -0.532347
O9    O     O_R   0.802170 0.219970 0.335590 -0.522925
O10   O     O_R   0.802170 0.780030 0.335590 -0.523127
O11   O     O_R   0.302170 0.719970 0.335590 -0.522720
O12   O     O_3   0.750010 0.749990 0.500000 -0.454189
O13   O     O_R   0.302170 0.280030 0.335590 -0.521933
O14   O     O_R   0.637780 0.280050 0.664410 -0.527339
O15   O     O_R   0.637780 0.719950 0.664410 -0.526576
O16   O     O_R   0.137780 0.780050 0.664410 -0.526424
O17   O     O_R   0.137780 0.219950 0.664410 -0.526601
O18   O     O_R   0.862250 0.280060 0.335590 -0.535584
O19   O     O_R   0.862250 0.719940 0.335590 -0.534571
O20   O     O_R   0.362250 0.780060 0.335590 -0.535615
O21   O     O_R   0.362250 0.219940 0.335590 -0.535541
O22   O     O_R   0.843040 0.219980 0.543100 -0.539875
O23   O     O_3   0.250010 0.750010 0.500000 -0.454442
O24   O     O_R   0.843040 0.780020 0.543100 -0.533305
O25   O     O_R   0.343040 0.719980 0.543100 -0.539978
O26   O     O_R   0.343040 0.280020 0.543100 -0.533411
O27   O     O_R   0.656980 0.219970 0.456900 -0.535203
O28   O     O_R   0.656980 0.780030 0.456900 -0.536011
O29   O     O_R   0.156980 0.719970 0.456900 -0.535149
O30   O     O_R   0.156980 0.280030 0.456900 -0.535798
O31   O     O_R   0.758500 0.135440 0.543100 -0.535067
O32   O     O_R   0.758500 0.864560 0.543100 -0.535604
O33   O     O_R   0.258500 0.635440 0.543100 -0.535177
O34   O     O_3   0.250010 0.249990 0.500000 -0.454248
O35   O     O_R   0.258500 0.364560 0.543100 -0.535717
O36   O     O_R   0.698440 0.364590 0.543100 -0.536487
O37   O     O_R   0.698440 0.635410 0.543100 -0.536307
O38   O     O_R   0.198440 0.864590 0.543100 -0.536218
O39   O     O_R   0.198440 0.135410 0.543100 -0.536189
O40   O     O_R   0.741510 0.135430 0.456900 -0.555263
O41   O     O_R   0.741510 0.864570 0.456900 -0.555501
O42   O     O_R   0.241510 0.635430 0.456900 -0.555199
O43   O     O_R   0.241510 0.364570 0.456900 -0.555368
O44   O     O_R   0.801610 0.364600 0.456900 -0.533368
O45   O     O_R   0.886150 0.280070 0.456900 -0.558904
O46   O     O_R   0.801610 0.635400 0.456900 -0.533531
O47   O     O_R   0.301610 0.864600 0.456900 -0.533505
O48   O     O_R   0.301610 0.135400 0.456900 -0.533667
O49   O     O_3   0.429488 0.241493 0.573518 -0.709748
O50   O     O_3   0.429495 0.758525 0.573506 -0.710178
O51   O     O_3   0.929487 0.741507 0.573522 -0.709764
O52   O     O_3   0.929494 0.258519 0.573508 -0.710012
O53   O     O_3   0.713256 0.966092 0.579880 -0.638758
O54   O     O_3   0.803197 0.033917 0.503461 -0.642413
O55   O     O_3   0.213256 0.466092 0.579881 -0.638737
O56   O     O_R   0.886150 0.719930 0.456900 -0.559828
O57   O     O_3   0.303197 0.533917 0.503461 -0.642666
O58   O     O_3   0.535427 0.845970 0.948880 -0.661516
O59   O     O_3   0.536316 0.154132 0.948899 -0.659481
O60   O     O_3   0.033719 0.346121 0.948897 -0.661505
O61   O     O_3   0.028312 0.653603 0.948981 -0.659793
O62   O     O_3   0.438523 0.707518 0.947994 -0.666153
O63   O     O_3   0.438150 0.291661 0.947975 -0.665942
O64   O     O_3   0.939285 0.205969 0.947996 -0.665959
O65   O     O_3   0.941873 0.798814 0.947977 -0.665902
O66   O     O_2   0.932690 0.136095 0.115291 -0.476851
O67   O     O_R   0.386150 0.780070 0.456900 -0.559085
O68   O     O_2   0.939099 0.864311 0.115196 -0.477750
O69   O     O_2   0.430661 0.636296 0.115311 -0.476772
O70   O     O_2   0.429609 0.363595 0.115292 -0.477004
O71   O     O_3   0.061331 0.292305 0.051484 -0.653822
O72   O     O_3   0.058842 0.702959 0.051503 -0.653841
O73   O     O_3   0.562059 0.790769 0.051487 -0.653929
O74   O     O_3   0.562424 0.210066 0.051508 -0.653824
O75   O     O_2   0.571592 0.229085 0.311987 -0.476006
O76   O     O_2   0.571608 0.770839 0.311963 -0.476307
O77   O     O_2   0.071577 0.729023 0.312000 -0.476087
O78   O     O_R   0.386150 0.219930 0.456900 -0.559655
O79   O     O_2   0.071600 0.270870 0.311969 -0.475830
O80   O     O_R   0.613890 0.280040 0.543100 -0.529665
Zn1   Zn    Zn3+2 0.823730 0.292940 0.438410 0.956595
Zn2   Zn    Zn3+2 0.737880 0.792910 0.438410 0.969337
Zn3   Zn    Zn3+2 0.237880 0.707090 0.438410 0.970293
Zn4   Zn    Zn3+2 0.237880 0.292910 0.438410 0.970164
Zn5   Zn    Zn3+2 0.676310 0.292930 0.561590 0.973620
Zn6   Zn    Zn3+2 0.676310 0.707070 0.561590 0.971384
Zn7   Zn    Zn3+2 0.176310 0.792930 0.561590 0.974172
Zn8   Zn    Zn3+2 0.176310 0.207070 0.561590 0.971656
Zn9   Zn    Zn3+2 0.823730 0.707060 0.438410 0.958925
Zn10  Zn    Zn3+2 0.323730 0.792940 0.438410 0.956357
Zn11  Zn    Zn3+2 0.323730 0.207060 0.438410 0.958300
Zn12  Zn    Zn3+2 0.762140 0.207100 0.561590 0.969548
Zn13  Zn    Zn3+2 0.762140 0.792900 0.561590 0.969350
Zn14  Zn    Zn3+2 0.262140 0.707100 0.561590 0.969074
Zn15  Zn    Zn3+2 0.262140 0.292900 0.561590 0.969016
Zn16  Zn    Zn3+2 0.737880 0.207090 0.438410 0.970215

loop_
_geom_bond_atom_site_label_1
_geom_bond_atom_site_label_2
_ccdc_geom_bond_type
C3    C104  S    
C83   C87   D    
O26   Zn15  S    
C26   C32   S    
O36   Zn5   S    
C31   C42   S    
C5    C37   S    
C29   C42   S    
C10   C42   S    
C55   O20   A    
C72   H53   S    
C6    C58   S    
H48   O74   S    
O34   Zn4   S    
C28   C69   S    
O15   Zn6   S    
C48   C69   S    
C72   C76   D    
C70   C88   S    
O34   Zn15  S    
C10   H42   S    
C89   O56   A    
C15   C64   S    
C21   C36   S    
C16   H52   S    
C11   O70   D    
C40   C46   S    
C34   C41   S    
C1    O5    A    
C103  C110  S    
C94   O28   A    
C107  H12   S    
O47   Zn10  S    
C15   H51   S    
C8    H40   S    
O9    Zn16  S    
O20   Zn10  S    
C4    C80   S    
C66   O49   S    
C92   O26   A    
C84   O53   S    
O67   Zn10  S    
O7    Zn14  S    
C29   C51   S    
C79   C84   D    
C4    C24   S    
C100  O35   A    
O35   Zn15  S    
O16   Zn7   S    
H24   O50   S    
C56   O13   A    
O29   Zn3   S    
O12   Zn2   S    
C65   C70   D    
C6    C22   S    
O12   Zn6   S    
C28   C41   S    
H38   O64   S    
C108  C109  S    
C54   O10   A    
O23   Zn10  S    
O1    Zn1   S    
C44   O62   S    
C24   C29   S    
C46   C58   S    
O18   Zn1   S    
O78   Zn11  S    
C2    C50   T    
C76   C94   S    
C12   H49   S    
O24   Zn13  S    
C28   C50   S    
C25   O6    A    
C32   C43   S    
O34   Zn8   S    
C15   O77   D    
C78   C96   S    
C87   O57   S    
C6    O60   S    
O8    Zn15  S    
O1    Zn12  S    
O23   Zn3   S    
C64   C73   S    
C6    C38   S    
H32   O59   S    
C11   C43   S    
C75   H56   S    
C36   O16   A    
C4    O58   S    
O43   Zn4   S    
C20   C60   T    
C86   C100  S    
C85   O54   S    
C27   C40   S    
C21   C61   T    
C48   O65   S    
C53   O18   A    
C11   H43   S    
O41   Zn2   S    
C89   O24   A    
C12   O75   D    
O31   Zn12  S    
C4    C35   S    
H26   O52   S    
C101  O44   A    
C105  O48   A    
C13   C51   T    
C99   O33   A    
C9    O68   D    
C31   H18   S    
C93   O27   A    
C18   C25   S    
C42   C44   S    
C82   H7    S    
O17   Zn8   S    
C71   H45   S    
O38   Zn7   S    
C17   C52   T    
C74   H55   S    
H33   O60   S    
C5    O59   S    
C105  O39   A    
C87   C99   S    
H44   O71   S    
C39   C61   S    
C98   O41   A    
C63   C67   D    
C1    C19   S    
C33   C40   S    
C7    O61   S    
C88   O45   A    
O21   Zn11  S    
C106  H1    S    
C27   C49   S    
C34   C39   S    
H37   O63   S    
O23   Zn14  S    
O1    Zn5   S    
C44   C80   S    
C68   O51   S    
O33   Zn14  S    
C108  H23   S    
C2    C54   S    
C49   C102  T    
C79   C81   S    
C62   C66   D    
O80   Zn5   S    
C30   C91   S    
C66   C92   S    
C80   H16   S    
C34   H21   S    
C19   C59   T    
C32   C37   S    
C81   H6    S    
C77   C95   S    
C67   C90   S    
C70   O52   S    
C65   C74   S    
C108  C112  D    
C3    C109  D    
C83   H8    S    
C14   H50   S    
C88   O22   A    
O39   Zn8   S    
C93   O80   A    
O22   Zn12  S    
O19   Zn9   S    
C12   C62   S    
C18   C57   T    
C76   H2    S    
C103  O46   A    
C8    O66   D    
C36   O7    A    
C53   C102  S    
C95   O29   A    
C23   C34   S    
H25   O51   S    
C26   O74   S    
C68   C89   S    
C96   O30   A    
C24   O73   S    
O46   Zn9   S    
C5    C91   S    
C23   C28   S    
O45   Zn1   S    
C35   C44   S    
C43   C45   S    
C17   C56   S    
C37   C59   S    
C112  H11   S    
C38   C60   S    
O12   Zn9   S    
O2    Zn6   S    
C105  C112  S    
H29   O55   S    
O5    Zn12  S    
C58   H14   S    
C104  O38   A    
C54   O19   A    
C74   C78   D    
C14   O76   D    
C30   C43   S    
H46   O72   S    
C47   O17   A    
C86   O55   S    
H28   O54   S    
H31   O58   S    
C37   C45   S    
C64   C68   D    
O42   Zn3   S    
C33   H20   S    
H30   O57   S    
C22   O71   S    
C106  C110  D    
C16   O79   D    
C22   C33   S    
C30   C52   S    
C56   O21   A    
O4    Zn8   S    
C92   O78   A    
C107  C111  D    
C67   O50   S    
C78   H4    S    
C5    C26   S    
C47   O8    A    
C104  O47   A    
C13   C55   S    
C73   H54   S    
O13   Zn4   S    
C53   O9    A    
C96   O4    A    
C7    C69   S    
C82   C83   S    
C1    O14   A    
C3    H13   S    
C26   C30   S    
C91   H17   S    
C101  O36   A    
C101  C111  S    
H22   O49   S    
C8    C40   S    
C100  O43   A    
C9    C41   S    
O25   Zn14  S    
O40   Zn16  S    
C98   O32   A    
C7    C39   S    
C22   C27   S    
C84   C98   S    
O27   Zn16  S    
O44   Zn1   S    
C24   C31   S    
C110  H9    S    
C82   C86   D    
O34   Zn11  S    
C94   O2    A    
O6    Zn13  S    
C71   C75   D    
O12   Zn13  S    
H35   O61   S    
C97   O31   A    
H27   O53   S    
O32   Zn13  S    
C29   C80   S    
C27   C58   S    
C75   C93   S    
C7    C23   S    
C14   C63   S    
C79   H5    S    
C41   C48   S    
C46   O64   S    
C62   C71   S    
C31   C35   S    
O10   Zn2   S    
O1    Zn16  S    
C97   O40   A    
C45   C91   S    
O14   Zn5   S    
O23   Zn7   S    
C38   C46   S    
C109  H34   S    
C85   C97   S    
O37   Zn6   S    
H36   O62   S    
C9    H41   S    
C90   O67   A    
O30   Zn4   S    
C103  O37   A    
O3    Zn7   S    
C55   O11   A    
C63   C72   S    
C69   H15   S    
C10   O69   D    
C35   C57   S    
C106  C107  S    
O28   Zn2   S    
C73   C77   D    
O56   Zn9   S    
C33   C38   S    
C16   C65   S    
C45   O63   S    
O48   Zn11  S    
C90   O25   A    
O11   Zn3   S    
C77   H3    S    
C95   O3    A    
H47   O73   S    
C32   H19   S    
C81   C85   D    
C20   C47   S    
C25   O15   A    
C23   O72   S    
C39   C48   S    
C111  H10   S    
C99   O42   A    
H39   O65   S    
