data_mof_unit_32393.cif
_audit_creation_date              2012-12-11T16:06:50-0500
_audit_creation_method            fapswitch 2.2
_symmetry_space_group_name_H-M    P1
_symmetry_Int_Tables_number       1
_space_group_crystal_system       triclinic
_cell_length_a                    8.257863
_cell_length_b                    12.683019
_cell_length_c                    17.373559
_cell_angle_alpha                 94.786845
_cell_angle_beta                  95.95974
_cell_angle_gamma                 97.377425
_cell_volume                      1786.1363162

loop_
_atom_site_label
_atom_site_type_symbol
_atom_type_description
_atom_site_fract_x
_atom_site_fract_y
_atom_site_fract_z
_atom_type_partial_charge
Ba1   Ba    Ba6+2 0.158660 0.552610 0.463110 1.705655
Ba2   Ba    Ba6+2 0.651510 0.447380 0.536830 1.691821
C1    C     C_3   0.301656 0.804551 0.168860 -0.000557
C2    C     C_R   0.727044 0.819256 0.478154 -0.280152
C3    C     C_R   0.699554 0.997381 0.443431 -0.052281
C4    C     C_3   0.885354 0.833698 0.278738 0.342282
C5    C     C_R   0.633679 0.889675 0.443302 0.043091
C6    C     C_R   0.886093 0.852374 0.513986 0.043713
C7    C     C_R   0.951157 0.963956 0.520017 -0.062779
C8    C     C_R   0.855801 0.037935 0.484236 -0.052697
C9    C     C_R   0.919094 0.149991 0.491959 0.039686
C10   C     C_R   0.168946 0.113145 0.565272 -0.034196
C11   C     C_R   0.107893 0.004062 0.560052 -0.098236
C12   C     C_3   0.365537 0.777808 0.249992 0.344468
C13   C     C_R   0.593541 0.544063 0.278479 0.195320
C14   C     C_R   0.443303 0.481116 0.254002 0.030449
C15   C     C_R   0.387014 0.461735 0.174374 -0.201903
C16   C     C_3   0.870484 0.934666 0.238869 -0.367858
C17   C     C_R   0.486872 0.500044 0.119192 -0.002798
C18   C     C_R   0.646713 0.552280 0.144242 -0.194810
C19   C     C_R   0.700499 0.573396 0.224038 0.027490
C20   C     C_R   0.417829 0.510434 0.834156 -0.119089
C21   C     C_R   0.360467 0.504024 0.754834 0.045726
C22   C     C_R   0.098544 0.412897 0.779419 0.020893
C23   C     C_3   0.553859 0.774088 0.655305 0.253117
C24   C     C_R   0.154772 0.417894 0.858986 -0.100244
C25   C     C_R   0.316187 0.465675 0.886500 -0.011342
C26   C     C_1   0.375009 0.475072 0.968652 -0.008207
C27   C     C_1   0.425960 0.485208 0.037202 0.014421
C28   C     C_3   0.713934 0.294172 0.299975 0.680794
C29   C     C_R   0.204110 0.451623 0.727626 -0.292421
C30   C     C_3   0.616887 0.235948 0.225382 -0.403694
C31   C     C_3   0.057607 0.680894 0.694981 0.298246
C32   C     C_3   0.100455 0.709700 0.782153 -0.401785
C33   C     C_3   0.249821 0.233180 0.377046 0.326121
C34   C     C_3   0.538301 0.891322 0.673265 0.188072
C35   C     C_3   0.189759 0.114671 0.357588 0.187702
C36   C     C_3   0.528052 0.801318 0.087471 -0.250865
C37   C     C_3   0.905901 0.159931 0.718213 0.457231
C38   C     C_3   0.943508 0.066769 0.763758 0.195582
C39   C     C_3   0.419940 0.206158 0.749643 0.320624
C40   C     C_3   0.457671 0.169601 0.829940 -0.323732
C41   C     C_R   0.071191 0.184989 0.535211 -0.299342
H1    H     H_    0.272389 0.715991 0.266957 0.076818
H2    H     H_    0.151540 0.271940 0.401781 -0.055561
H3    H     H_    0.359579 0.243180 0.420624 0.056916
H4    H     H_    0.248208 0.729610 0.132066 0.062744
H5    H     H_    0.063596 0.104905 0.326621 0.009323
H6    H     H_    0.184162 0.074659 0.411453 0.055500
H7    H     H_    0.483270 0.744920 0.248097 -0.080618
H8    H     H_    0.685079 0.764536 0.652500 0.000092
H9    H     H_    0.481405 0.746646 0.597969 0.061593
H10   H     H_    0.592702 0.919730 0.733769 0.047948
H11   H     H_    0.406241 0.901334 0.668622 0.100970
H12   H     H_    0.520240 0.174396 0.239955 0.139403
H13   H     H_    0.200980 0.853924 0.173972 0.132910
H14   H     H_    0.789924 0.916003 0.183224 0.114361
H15   H     H_    0.820562 0.130500 0.665075 0.022431
H16   H     H_    0.022965 0.196458 0.699388 -0.110602
H17   H     H_    0.995597 0.007821 0.725758 -0.013415
H18   H     H_    0.828393 0.027709 0.782848 0.047338
H19   H     H_    0.288882 0.217955 0.742109 -0.005644
H20   H     H_    0.497832 0.283473 0.746646 0.086020
H21   H     H_    0.426435 0.228797 0.874881 0.091648
H22   H     H_    0.590037 0.161754 0.841378 0.144064
H23   H     H_    0.558617 0.292830 0.190328 0.074822
H24   H     H_    0.966005 0.854647 0.334728 0.056796
H25   H     H_    0.384465 0.090861 0.833857 0.130215
H26   H     H_    0.625175 0.048545 0.413352 0.123244
H27   H     H_    0.185512 0.951677 0.586290 0.109634
H28   H     H_    0.120173 0.268925 0.540444 0.061393
H29   H     H_    0.672615 0.737466 0.479849 0.078707
H30   H     H_    0.538640 0.553029 0.855252 0.082640
H31   H     H_    0.727990 0.577553 0.102151 0.085404
H32   H     H_    0.072891 0.386665 0.899044 0.090147
H33   H     H_    0.267651 0.415572 0.155609 0.098098
H34   H     H_    0.699456 0.195628 0.189720 0.100754
H35   H     H_    0.759978 0.800941 0.290523 -0.098835
H36   H     H_    0.159963 0.448401 0.666473 0.056173
H37   H     H_    0.816873 0.992688 0.276710 0.083888
H38   H     H_    0.992860 0.970329 0.225683 0.118532
H39   H     H_    0.626777 0.330003 0.334955 0.034319
H40   H     H_    0.259495 0.073205 0.257610 0.309761
H41   H     H_    0.492924 0.930333 0.165216 0.224554
H42   H     H_    0.607432 0.854770 0.055072 0.114111
H43   H     H_    0.448750 0.741610 0.044589 0.121654
H44   H     H_    0.607346 0.760026 0.126896 0.108929
H45   H     H_    0.161998 0.649141 0.670698 0.014925
H46   H     H_    0.734467 0.951071 0.633099 0.259034
H47   H     H_    0.076241 0.040355 0.856212 0.298862
H48   H     H_    0.668162 0.652517 0.360601 0.254246
H49   H     H_    0.902549 0.341542 0.247639 0.302978
H50   H     H_    0.947950 0.619019 0.685076 0.069654
H51   H     H_    0.214580 0.768083 0.793796 0.131596
H52   H     H_    0.119610 0.637535 0.811714 0.062357
H53   H     H_    0.998548 0.745517 0.806528 0.116684
N1    N     N_2   0.428961 0.863927 0.131910 -0.430421
O1    O     O_2   0.163080 0.763400 0.536930 -0.472931
O2    O     O_2   0.761557 0.426442 0.774823 -0.501584
O3    O     O_3   0.830758 0.231093 0.764739 -0.589915
O4    O     O_3   0.893330 0.628980 0.538660 -0.469344
O5    O     O_3   0.422000 0.445190 0.409310 -0.435045
O6    O     O_2   0.648720 0.552000 0.685060 -0.459638
O7    O     O_3   0.494517 0.719186 0.715441 -0.679156
O8    O     O_2   0.497622 0.113924 0.546757 -0.419918
O9    O     O_3   0.453468 0.128657 0.693094 -0.578631
O10   O     O_3   0.379830 0.697590 0.399610 -0.490561
O11   O     O_2   0.294005 0.886720 0.441922 -0.457270
O12   O     O_3   0.288208 0.276805 0.308803 -0.661730
O13   O     O_3   0.025567 0.773262 0.661012 -0.654318
O14   O     O_3   0.385785 0.870169 0.302614 -0.579471
O15   O     O_2   0.161570 0.447940 0.314920 -0.426570
O16   O     O_3   0.953630 0.643360 0.361440 -0.436997
O17   O     O_2   0.038605 0.570205 0.223886 -0.488459
O18   O     O_3   0.297272 0.066887 0.312946 -0.689469
O19   O     O_3   0.614931 0.951989 0.620505 -0.717333
O20   O     O_3   0.056563 0.104121 0.829041 -0.729059
O21   O     O_3   0.635934 0.574306 0.356270 -0.681319
O22   O     O_3   0.830612 0.375594 0.281746 -0.719005
O23   O     O_3   0.955046 0.761969 0.230176 -0.632649
O24   O     O_2   0.647210 0.236530 0.463040 -0.485624
O25   O     O_3   0.916960 0.371010 0.461280 -0.447577
O26   O     O_3   0.430470 0.302400 0.600330 -0.499156
O27   O     O_3   0.793333 0.219827 0.339327 -0.669792
O28   O     O_3   0.388290 0.554800 0.590630 -0.475048
O29   O     O_3   0.856660 0.356630 0.638500 -0.485505
P1    P     P_3+3 0.990420 0.746550 0.559720 0.971113
P2    P     P_3+3 0.330880 0.415450 0.326700 1.031506
P3    P     P_3+3 0.912421 0.634057 0.259625 1.003096
P4    P     P_3+3 0.819870 0.253440 0.440220 1.006373
P5    P     P_3+3 0.886080 0.360280 0.740113 0.968061
P6    P     P_3+3 0.423456 0.836368 0.398140 0.998042
P7    P     P_3+3 0.471444 0.582262 0.688139 0.943756
P8    P     P_3+3 0.385665 0.163859 0.601141 0.988512

loop_
_geom_bond_atom_site_label_1
_geom_bond_atom_site_label_2
_ccdc_geom_bond_type
C38   H17   S    
C40   H21   S    
C39   C40   S    
C17   C18   A    
Ba1   P2    S    
O24   P4    D    
C2    C6    A    
C23   H9    S    
O3    P5    S    
Ba2   O26   S    
C24   C25   A    
O16   P3    S    
C36   H43   S    
H41   N1    S    
Ba2   O6    S    
C12   H1    S    
C26   C27   T    
C33   C35   S    
C31   H45   S    
C32   H53   S    
C10   C41   A    
O5    P2    S    
C36   N1    S    
Ba1   O15   S    
C4    H35   S    
C28   O22   S    
Ba2   O5    S    
C13   C14   A    
C16   H38   S    
Ba1   Ba2   S    
C7    C11   A    
Ba1   O25   S    
C3    H26   S    
C34   H10   S    
O12   P2    S    
C15   C17   A    
C30   H34   S    
C14   C15   A    
C40   H22   S    
C9    C41   A    
C7    C8    A    
C30   H12   S    
C33   O12   S    
O13   P1    S    
C38   O20   S    
H46   O19   S    
C10   P8    S    
C40   H25   S    
Ba1   P1    S    
Ba1   O16   S    
C39   H19   S    
C2    C5    A    
C4    O23   S    
C24   H32   S    
Ba2   O25   S    
C12   O14   S    
C4    C16   S    
O15   P2    D    
O7    P7    S    
C21   P7    S    
C36   H42   S    
O27   P4    S    
O23   P3    S    
H47   O20   S    
H40   O18   S    
C32   H52   S    
C39   O9    S    
C37   C38   S    
C3    C5    A    
Ba2   P4    S    
C6    C7    A    
O26   P8    S    
Ba2   O4    S    
C37   H15   S    
C38   H18   S    
C21   C29   A    
C28   H39   S    
C23   H8    S    
C33   H2    S    
C15   H33   S    
C35   H6    S    
C1    H13   S    
C1    N1    S    
C16   H14   S    
C13   C19   A    
C37   H16   S    
C31   C32   S    
H48   O21   S    
C18   H31   S    
C10   C11   A    
C35   H5    S    
C14   P2    S    
C19   P3    S    
C5    P6    S    
C1    C12   S    
Ba1   O10   S    
Ba2   O29   S    
C4    H24   S    
C28   O27   S    
C20   C25   A    
O17   P3    D    
C39   H20   S    
C17   C27   S    
C9    P4    S    
Ba1   O4    S    
C2    H29   S    
C30   H23   S    
Ba2   O24   S    
O28   P7    S    
O1    P1    D    
C41   H28   S    
H49   O22   S    
C32   H51   S    
C22   C24   A    
O10   P6    S    
C31   H50   S    
Ba1   O1    S    
C23   O7    S    
C29   H36   S    
C35   O18   S    
C13   O21   S    
O2    P5    D    
C36   H44   S    
Ba1   O28   S    
C6    P1    S    
O6    P7    D    
C22   C29   A    
C3    C8    A    
C28   C30   S    
C22   P5    S    
C37   O3    S    
C12   H7    S    
O29   P5    S    
C1    H4    S    
O4    P1    S    
O11   P6    D    
C34   H11   S    
C8    C9    A    
C23   C34   S    
Ba2   O28   S    
O14   P6    S    
O9    P8    S    
C18   C19   A    
C16   H37   S    
C11   H27   S    
C25   C26   S    
C20   C21   A    
C31   O13   S    
C20   H30   S    
C33   H3    S    
Ba1   O5    S    
O25   P4    S    
O8    P8    D    
C34   O19   S    
