data_mof_unit_58637.cif
_audit_creation_date              2012-12-11T14:44:15-0500
_audit_creation_method            fapswitch 2.2
_symmetry_space_group_name_H-M    P1
_symmetry_Int_Tables_number       1
_space_group_crystal_system       triclinic
_cell_length_a                    19.354967
_cell_length_b                    11.129544
_cell_length_c                    18.777832
_cell_angle_alpha                 90.397009
_cell_angle_beta                  89.862652
_cell_angle_gamma                 90.037672
_cell_volume                      4044.85997946

loop_
_atom_site_label
_atom_site_type_symbol
_atom_type_description
_atom_site_fract_x
_atom_site_fract_y
_atom_site_fract_z
_atom_type_partial_charge
C1    C     C_R   0.731066 0.379591 0.148414 0.549125
C2    C     C_R   0.957999 0.981067 0.061702 -0.128568
C3    C     C_R   0.978324 0.768202 0.046126 -0.007852
C4    C     C_R   0.506148 0.056302 0.035051 -0.162161
C5    C     C_R   0.501167 0.062579 0.962895 -0.170928
C6    C     C_R   0.006148 0.556302 0.035051 -0.162161
C7    C     C_R   0.001167 0.562579 0.962895 -0.170928
C8    C     C_1   0.756285 0.106879 0.600590 0.211631
C9    C     C_1   0.114893 0.963582 0.447811 0.217513
C10   C     C_1   0.256285 0.606879 0.600590 0.211631
C11   C     C_1   0.614893 0.463582 0.447811 0.217513
C12   C     C_3   0.634243 0.700253 0.571623 -0.267365
C13   C     C_R   0.469185 0.497599 0.990151 -0.156021
C14   C     C_3   0.389316 0.726870 0.412785 -0.269169
C15   C     C_3   0.134243 0.200253 0.571623 -0.267365
C16   C     C_3   0.889316 0.226870 0.412786 -0.269170
C17   C     C_3   0.739764 0.683488 0.349408 -0.284754
C18   C     C_3   0.432107 0.850828 0.562449 -0.259592
C19   C     C_3   0.239764 0.183488 0.349408 -0.284754
C20   C     C_3   0.932107 0.350828 0.562449 -0.259592
C21   C     C_1   0.493925 0.439200 0.871393 0.233730
C22   C     C_1   0.428758 0.353274 0.159736 0.255438
C23   C     C_1   0.993925 0.939200 0.871393 0.233730
C24   C     C_R   0.457999 0.481066 0.061702 -0.128568
C25   C     C_1   0.928758 0.853275 0.159736 0.255438
C26   C     C_1   0.627115 0.857235 0.916908 0.174628
C27   C     C_1   0.344743 0.043005 0.115643 0.188530
C28   C     C_1   0.127115 0.357235 0.916908 0.174628
C29   C     C_1   0.844743 0.543005 0.115643 0.188530
C30   C     C_3   0.854876 0.242571 0.996838 -0.305419
C31   C     C_3   0.118053 0.065986 0.948375 -0.245569
C32   C     C_3   0.354876 0.742571 0.996838 -0.305419
C33   C     C_3   0.618053 0.565986 0.948375 -0.245569
C34   C     C_3   0.551424 0.876807 0.431740 -0.263768
C35   C     C_R   0.678913 0.935695 0.027660 -0.172101
C36   C     C_3   0.608718 0.064290 0.674939 -0.257990
C37   C     C_3   0.051424 0.376807 0.431740 -0.263768
C38   C     C_3   0.108718 0.564290 0.674939 -0.257990
C39   C     C_3   0.466592 0.469057 0.580740 -0.266315
C40   C     C_3   0.397750 0.273850 0.379867 -0.286763
C41   C     C_3   0.966591 0.969057 0.580740 -0.266322
C42   C     C_3   0.897751 0.773850 0.379867 -0.286762
C43   C     C_R   0.313017 0.024543 0.987554 -0.200196
C44   C     C_R   0.178914 0.435695 0.027660 -0.172101
C45   C     C_R   0.813017 0.524543 0.987554 -0.200196
C46   C     C_R   0.684730 0.908299 0.954943 -0.038127
C47   C     C_R   0.302242 0.994505 0.059644 -0.044196
C48   C     C_R   0.184730 0.408299 0.954943 -0.038127
C49   C     C_R   0.269154 0.380109 0.852711 0.532296
C50   C     C_R   0.802242 0.494505 0.059644 -0.044196
C51   C     C_R   0.745181 0.940271 0.918533 -0.014281
C52   C     C_R   0.248352 0.915582 0.077030 0.028822
C53   C     C_R   0.245181 0.440271 0.918534 -0.014281
C54   C     C_R   0.748352 0.415582 0.077030 0.028822
C55   C     C_R   0.789191 0.025029 0.949433 -0.102224
C56   C     C_R   0.202639 0.875960 0.025492 -0.108650
C57   C     C_R   0.289191 0.525029 0.949433 -0.102224
C58   C     C_R   0.702639 0.375960 0.025492 -0.108650
C59   C     C_R   0.780865 0.063650 0.019688 0.133288
C60   C     C_R   0.231066 0.879591 0.148414 0.549125
C61   C     C_R   0.205930 0.923286 0.958168 0.118435
C62   C     C_R   0.280865 0.563650 0.019688 0.133289
C63   C     C_R   0.705930 0.423286 0.958168 0.118435
C64   C     C_R   0.729854 0.005732 0.062187 0.017937
C65   C     C_R   0.265342 0.985026 0.935700 0.016034
C66   C     C_R   0.229854 0.505733 0.062187 0.017937
C67   C     C_R   0.765342 0.485026 0.935700 0.016034
C68   C     C_R   0.558563 0.074718 0.486030 0.070885
C69   C     C_R   0.549734 0.092253 0.558559 0.123077
C70   C     C_R   0.058563 0.574718 0.486030 0.070885
C71   C     C_R   0.769154 0.880109 0.852711 0.532296
C72   C     C_R   0.049734 0.592253 0.558559 0.123077
C73   C     C_R   0.502361 0.178210 0.580551 0.000087
C74   C     C_R   0.534531 0.160911 0.436449 -0.006999
C75   C     C_R   0.002361 0.678210 0.580551 0.000088
C76   C     C_R   0.034531 0.660911 0.436449 -0.007000
C77   C     C_R   0.531855 0.154147 0.147338 0.570089
C78   C     C_R   0.465860 0.157007 0.854461 0.527193
C79   C     C_R   0.031855 0.654146 0.147338 0.570089
C80   C     C_R   0.965860 0.657007 0.854461 0.527193
C81   C     C_R   0.477702 0.267028 0.532970 0.089125
C82   C     C_R   0.476919 0.401275 0.943037 0.002296
C83   C     C_R   0.492524 0.255953 0.460188 0.119792
C84   C     C_R   0.977702 0.767028 0.532970 0.089125
C85   C     C_R   0.992525 0.755952 0.460188 0.119792
C86   C     C_R   0.761311 0.034176 0.475977 -0.196291
C87   C     C_R   0.183696 0.911706 0.548547 -0.184846
C88   C     C_R   0.261311 0.534176 0.475977 -0.196291
C89   C     C_R   0.683696 0.411706 0.548547 -0.184846
C90   C     C_R   0.761823 0.012510 0.548328 -0.043776
C91   C     C_R   0.178353 0.914584 0.475460 -0.073343
C92   C     C_R   0.261823 0.512510 0.548328 -0.043776
C93   C     C_R   0.456933 0.366718 0.089069 0.015235
C94   C     C_R   0.678353 0.414584 0.475460 -0.073343
C95   C     C_R   0.754738 0.896073 0.571711 0.029853
C96   C     C_R   0.237324 0.892117 0.431920 -0.033735
C97   C     C_R   0.254738 0.396073 0.571711 0.029853
C98   C     C_R   0.737324 0.392117 0.431920 -0.033735
C99   C     C_R   0.733099 0.804507 0.524253 0.122894
C100  C     C_R   0.301538 0.863657 0.464193 0.127128
C101  C     C_R   0.233099 0.304507 0.524253 0.122894
C102  C     C_R   0.801538 0.363657 0.464193 0.127128
C103  C     C_R   0.731754 0.825316 0.450545 0.119189
C104  C     C_R   0.976919 0.901275 0.943037 0.002296
C105  C     C_R   0.305990 0.863863 0.539025 0.173057
C106  C     C_R   0.231754 0.325316 0.450545 0.119189
C107  C     C_R   0.805990 0.363863 0.539025 0.173057
C108  C     C_R   0.751519 0.939055 0.426933 -0.008476
C109  C     C_R   0.248329 0.904009 0.579578 0.013747
C110  C     C_R   0.251519 0.439055 0.426933 -0.008476
C111  C     C_R   0.748329 0.404009 0.579578 0.013748
C112  C     C_R   0.727460 0.021938 0.140602 0.577296
C113  C     C_R   0.271805 0.018920 0.860242 0.563616
C114  C     C_R   0.227460 0.521938 0.140602 0.577296
C115  C     C_R   0.956933 0.866719 0.089069 0.015236
C116  C     C_R   0.771805 0.518920 0.860242 0.563616
C117  C     C_R   0.726662 0.371641 0.355328 0.525419
C118  C     C_R   0.273655 0.367449 0.644506 0.571831
C119  C     C_R   0.226662 0.871641 0.355328 0.525419
C120  C     C_R   0.773655 0.867449 0.644506 0.571832
C121  C     C_R   0.557133 0.153696 0.361525 0.559663
C122  C     C_R   0.466627 0.158804 0.647031 0.564798
C123  C     C_R   0.057133 0.653695 0.361525 0.559663
C124  C     C_R   0.966628 0.658804 0.647031 0.564798
C125  C     C_R   0.741558 0.973958 0.354043 0.551787
C126  C     C_R   0.969185 0.997599 0.990151 -0.156021
C127  C     C_R   0.258392 0.967149 0.647421 0.584723
C128  C     C_R   0.241558 0.473958 0.354043 0.551787
C129  C     C_R   0.758392 0.467149 0.647421 0.584723
C130  C     C_R   0.489345 0.171436 0.928443 -0.011570
C131  C     C_R   0.499480 0.159148 0.077021 0.023250
C132  C     C_R   0.989345 0.671436 0.928443 -0.011569
C133  C     C_R   0.999480 0.659148 0.077021 0.023250
C134  C     C_R   0.481199 0.280485 0.970285 -0.016047
C135  C     C_R   0.478324 0.268201 0.046126 -0.007852
C136  C     C_R   0.981199 0.780485 0.970285 -0.016047
Cr1   Cr    Cr6+3 0.772000 0.169640 0.250110 0.990271
Cr2   Cr    Cr6+3 0.383330 0.010620 0.749160 1.012533
Cr3   Cr    Cr6+3 0.116670 0.510620 0.250840 1.000912
Cr4   Cr    Cr6+3 0.883330 0.510620 0.749160 1.012534
Cr5   Cr    Cr6+3 0.228000 0.169640 0.749890 1.035074
Cr6   Cr    Cr6+3 0.272000 0.669640 0.250110 0.990270
Cr7   Cr    Cr6+3 0.728000 0.669640 0.749890 1.035074
Cr8   Cr    Cr6+3 0.614960 0.323350 0.249260 1.047612
Cr9   Cr    Cr6+3 0.385040 0.323350 0.750740 1.045851
Cr10  Cr    Cr6+3 0.114960 0.823350 0.249260 1.047612
Cr11  Cr    Cr6+3 0.885040 0.823350 0.750740 1.045851
Cr12  Cr    Cr6+3 0.616670 0.010620 0.250840 1.000912
H1    H     H_    0.517726 0.969383 0.057640 0.141488
H2    H     H_    0.952241 0.058217 0.096486 0.108125
H3    H     H_    0.912598 0.695940 0.345906 0.189602
H4    H     H_    0.476909 0.587792 0.971865 0.102100
H5    H     H_    0.452241 0.558217 0.096486 0.108125
H6    H     H_    0.634979 0.901839 0.057132 0.132642
H7    H     H_    0.355572 0.082067 0.972511 0.126358
H8    H     H_    0.134979 0.401839 0.057132 0.132642
H9    H     H_    0.855572 0.582067 0.972511 0.126358
H10   H     H_    0.832149 0.058196 0.918708 0.152958
H11   H     H_    0.157424 0.823941 0.040538 0.124308
H12   H     H_    0.332149 0.558196 0.918708 0.152957
H13   H     H_    0.503637 0.978507 0.934270 0.181930
H14   H     H_    0.657424 0.323941 0.040538 0.124307
H15   H     H_    0.721051 0.623052 0.521177 0.248708
H16   H     H_    0.603481 0.634997 0.540767 0.103102
H17   H     H_    0.627190 0.681313 0.628873 0.189879
H18   H     H_    0.612415 0.789560 0.562346 0.157969
H19   H     H_    0.367164 0.901544 0.378089 0.252091
H20   H     H_    0.446084 0.728125 0.408276 0.113107
H21   H     H_    0.371048 0.688701 0.362031 0.202471
H22   H     H_    0.376264 0.667926 0.458106 0.168565
H23   H     H_    0.221051 0.123052 0.521177 0.248708
H24   H     H_    0.017726 0.469383 0.057640 0.141488
H25   H     H_    0.103482 0.134997 0.540767 0.103103
H26   H     H_    0.127190 0.181313 0.628873 0.189879
H27   H     H_    0.112415 0.289560 0.562346 0.157969
H28   H     H_    0.867164 0.401544 0.378090 0.252092
H29   H     H_    0.946084 0.228125 0.408276 0.113107
H30   H     H_    0.871048 0.188700 0.362032 0.202471
H31   H     H_    0.876264 0.167926 0.458106 0.168565
H32   H     H_    0.661067 0.688855 0.424766 0.271296
H33   H     H_    0.776418 0.620627 0.374946 0.119766
H34   H     H_    0.767778 0.748939 0.315993 0.166869
H35   H     H_    0.003637 0.478507 0.934270 0.181930
H36   H     H_    0.705576 0.631851 0.313120 0.183475
H37   H     H_    0.355961 0.773999 0.623802 0.281403
H38   H     H_    0.461527 0.781981 0.532872 0.127245
H39   H     H_    0.457719 0.858501 0.614694 0.150640
H40   H     H_    0.432460 0.938688 0.534814 0.184380
H41   H     H_    0.161067 0.188855 0.424766 0.271296
H42   H     H_    0.276418 0.120628 0.374946 0.119765
H43   H     H_    0.267778 0.248939 0.315992 0.166869
H44   H     H_    0.205576 0.131850 0.313121 0.183475
H45   H     H_    0.855961 0.273999 0.623802 0.281403
H46   H     H_    0.761731 0.126079 0.457774 0.145640
H47   H     H_    0.961527 0.281981 0.532872 0.127245
H48   H     H_    0.957719 0.358501 0.614694 0.150640
H49   H     H_    0.932460 0.438688 0.534814 0.184380
H50   H     H_    0.851775 0.144824 0.090786 0.283843
H51   H     H_    0.881224 0.315728 0.026340 0.152895
H52   H     H_    0.894370 0.199805 0.963957 0.123902
H53   H     H_    0.816186 0.276712 0.959255 0.178295
H54   H     H_    0.107512 0.879766 0.931329 0.245711
H55   H     H_    0.078433 0.098581 0.911432 0.184052
H56   H     H_    0.098613 0.062739 0.003994 0.127785
H57   H     H_    0.139113 0.935152 0.580922 0.136322
H58   H     H_    0.160226 0.133534 0.947282 0.169098
H59   H     H_    0.351774 0.644825 0.090786 0.283843
H60   H     H_    0.381224 0.815728 0.026340 0.152895
H61   H     H_    0.394370 0.699805 0.963957 0.123902
H62   H     H_    0.316186 0.776712 0.959254 0.178295
H63   H     H_    0.607512 0.379765 0.931329 0.245711
H64   H     H_    0.578433 0.598581 0.911432 0.184052
H65   H     H_    0.598613 0.562739 0.003994 0.127785
H66   H     H_    0.660226 0.633534 0.947282 0.169098
H67   H     H_    0.632246 0.996688 0.431702 0.280155
H68   H     H_    0.261730 0.626079 0.457774 0.145640
H69   H     H_    0.571737 0.850714 0.378518 0.194426
H70   H     H_    0.497178 0.906674 0.425394 0.168008
H71   H     H_    0.553176 0.794837 0.463999 0.119334
H72   H     H_    0.561073 0.932445 0.613671 0.245118
H73   H     H_    0.657174 0.018106 0.689818 0.169025
H74   H     H_    0.571651 0.046637 0.718754 0.163078
H75   H     H_    0.617862 0.162595 0.671143 0.168270
H76   H     H_    0.132246 0.496688 0.431702 0.280155
H77   H     H_    0.071737 0.350714 0.378518 0.194426
H78   H     H_    0.997178 0.406674 0.425394 0.168008
H79   H     H_    0.639113 0.435152 0.580922 0.136320
H80   H     H_    0.053176 0.294837 0.463999 0.119335
H81   H     H_    0.061073 0.432445 0.613671 0.245118
H82   H     H_    0.157174 0.518106 0.689818 0.169025
H83   H     H_    0.071651 0.546636 0.718754 0.163078
H84   H     H_    0.117862 0.662595 0.671143 0.168270
H85   H     H_    0.389948 0.375282 0.526048 0.243066
H86   H     H_    0.488318 0.517763 0.534689 0.126078
H87   H     H_    0.508399 0.448590 0.619249 0.158648
H88   H     H_    0.428606 0.529239 0.607232 0.167091
H89   H     H_    0.447822 0.416650 0.426845 0.268448
H90   H     H_    0.976909 0.087792 0.971865 0.102100
H91   H     H_    0.369962 0.340120 0.346997 0.179793
H92   H     H_    0.363002 0.242904 0.423073 0.119489
H93   H     H_    0.412598 0.195939 0.345907 0.189602
H94   H     H_    0.889947 0.875281 0.526047 0.243067
H95   H     H_    0.988321 0.017759 0.534692 0.126079
H96   H     H_    0.008393 0.948592 0.619252 0.158654
H97   H     H_    0.928604 0.029241 0.607227 0.167087
H98   H     H_    0.947822 0.916650 0.426845 0.268449
H99   H     H_    0.869962 0.840120 0.346997 0.179793
H100  H     H_    0.863002 0.742904 0.423072 0.119489
N1    N     N_1   0.749721 0.176099 0.646259 -0.348385
N2    N     N_2   0.363169 0.807069 0.573413 -0.502900
N3    N     N_2   0.198114 0.243349 0.402821 -0.518491
N4    N     N_2   0.863169 0.307069 0.573413 -0.502899
N5    N     N_1   0.507656 0.471185 0.814483 -0.287680
N6    N     N_1   0.405757 0.343274 0.216210 -0.279200
N7    N     N_1   0.007656 0.971185 0.814483 -0.287680
N8    N     N_1   0.905757 0.843274 0.216210 -0.279200
N9    N     N_1   0.581242 0.818171 0.884828 -0.346602
N10   N     N_1   0.377254 0.080230 0.162411 -0.298380
N11   N     N_1   0.081242 0.318171 0.884828 -0.346602
N12   N     N_1   0.065811 0.006940 0.424267 -0.338536
N13   N     N_1   0.877254 0.580230 0.162410 -0.298380
N14   N     N_2   0.822586 0.160431 0.046468 -0.507681
N15   N     N_2   0.142474 0.948363 0.925684 -0.467409
N16   N     N_2   0.322586 0.660431 0.046468 -0.507681
N17   N     N_2   0.642473 0.448363 0.925684 -0.467409
N18   N     N_2   0.593553 0.970306 0.463758 -0.490445
N19   N     N_2   0.583734 0.014861 0.608038 -0.492872
N20   N     N_2   0.093553 0.470306 0.463758 -0.490445
N21   N     N_2   0.083734 0.514861 0.608038 -0.492872
N22   N     N_2   0.432506 0.359883 0.557407 -0.474926
N23   N     N_1   0.249721 0.676100 0.646259 -0.348384
N24   N     N_2   0.457983 0.330157 0.410098 -0.461759
N25   N     N_2   0.932505 0.859882 0.557406 -0.474927
N26   N     N_2   0.957983 0.830157 0.410098 -0.461759
N27   N     N_1   0.565811 0.506940 0.424267 -0.338536
N28   N     N_2   0.706834 0.695681 0.551496 -0.475814
N29   N     N_2   0.362894 0.847948 0.422472 -0.521149
N30   N     N_2   0.206834 0.195681 0.551496 -0.475814
N31   N     N_2   0.862894 0.347948 0.422472 -0.521150
N32   N     N_2   0.698115 0.743348 0.402821 -0.518491
O1    O     O_R   0.787540 0.042690 0.170470 -0.511082
O2    O     O_R   0.454130 0.051100 0.669160 -0.542159
O3    O     O_R   0.045870 0.551100 0.330840 -0.535338
O4    O     O_R   0.954130 0.551100 0.669160 -0.542159
O5    O     O_R   0.681340 0.959300 0.325510 -0.503132
O6    O     O_R   0.318660 0.959300 0.674490 -0.490779
O7    O     O_R   0.181340 0.459300 0.325510 -0.503132
O8    O     O_R   0.818660 0.459300 0.674490 -0.490779
O9    O     O_3   0.667880 0.167870 0.250070 -0.307980
O10   O     O_3   0.332120 0.167870 0.749930 -0.292650
O11   O     O_3   0.167880 0.667870 0.250070 -0.307980
O12   O     O_R   0.212460 0.042690 0.829530 -0.461080
O13   O     O_3   0.832120 0.667870 0.749930 -0.292650
O14   O     O_R   0.765660 0.292160 0.175050 -0.504991
O15   O     O_R   0.234340 0.292160 0.824950 -0.506911
O16   O     O_R   0.265660 0.792160 0.175050 -0.504992
O17   O     O_R   0.734340 0.792160 0.824950 -0.506911
O18   O     O_R   0.670190 0.408980 0.168550 -0.525858
O19   O     O_R   0.329810 0.408980 0.831450 -0.522051
O20   O     O_R   0.170190 0.908980 0.168550 -0.525858
O21   O     O_R   0.829810 0.908980 0.831450 -0.522051
O22   O     O_R   0.556580 0.251450 0.175160 -0.501475
O23   O     O_R   0.287540 0.542690 0.170470 -0.511082
O24   O     O_R   0.443420 0.251450 0.824840 -0.493847
O25   O     O_R   0.056580 0.751450 0.175160 -0.501475
O26   O     O_R   0.943420 0.751450 0.824840 -0.493847
O27   O     O_R   0.545920 0.049510 0.170320 -0.523112
O28   O     O_R   0.454080 0.049510 0.829680 -0.526805
O29   O     O_R   0.045920 0.549510 0.170320 -0.523112
O30   O     O_R   0.954080 0.549510 0.829680 -0.526805
O31   O     O_R   0.681390 0.957840 0.176710 -0.504180
O32   O     O_R   0.318610 0.957840 0.823290 -0.500825
O33   O     O_R   0.181390 0.457840 0.176710 -0.504180
O34   O     O_R   0.712460 0.542690 0.829530 -0.461080
O35   O     O_R   0.818610 0.457840 0.823290 -0.500825
O36   O     O_R   0.787500 0.044280 0.330990 -0.545271
O37   O     O_R   0.212500 0.044280 0.669010 -0.515595
O38   O     O_R   0.287500 0.544280 0.330990 -0.545271
O39   O     O_R   0.712500 0.544280 0.669010 -0.515595
O40   O     O_R   0.765610 0.293630 0.323860 -0.510431
O41   O     O_R   0.234390 0.293630 0.676140 -0.490509
O42   O     O_R   0.265610 0.793630 0.323860 -0.510431
O43   O     O_R   0.734390 0.793630 0.676140 -0.490509
O44   O     O_R   0.670140 0.410570 0.329080 -0.509213
O45   O     O_R   0.556540 0.252920 0.323970 -0.437497
O46   O     O_R   0.329860 0.410570 0.670920 -0.505818
O47   O     O_R   0.170140 0.910570 0.329080 -0.509213
O48   O     O_R   0.829860 0.910570 0.670920 -0.505816
O49   O     O_R   0.443460 0.252920 0.676030 -0.465828
O50   O     O_R   0.056540 0.752920 0.323970 -0.437497
O51   O     O_R   0.943460 0.752920 0.676030 -0.465828
O52   O     O_R   0.545870 0.051100 0.330840 -0.535338

loop_
_geom_bond_atom_site_label_1
_geom_bond_atom_site_label_2
_ccdc_geom_bond_type
C99   C103  A    
Cr6   O23   S    
C80   C132  S    
C87   C91   A    
C59   N14   S    
C35   H6    S    
C74   C83   A    
C14   H22   S    
Cr3   O11   S    
C90   C95   A    
C78   O24   A    
C1    O14   A    
C40   H91   S    
C55   C59   A    
C95   C99   A    
C64   C112  S    
Cr6   O16   S    
C60   O20   A    
C85   N26   S    
C31   N15   S    
C89   C94   A    
C32   N16   S    
Cr7   O39   S    
C87   H57   S    
C91   C96   A    
C116  O34   A    
C17   H34   S    
C109  C127  S    
Cr1   O40   S    
C39   N22   S    
C40   N24   S    
C130  C134  A    
C114  O33   A    
C51   C71   S    
C122  O49   A    
C73   C81   A    
C25   N8    T    
H15   N28   S    
C8    N1    T    
C125  O5    A    
C15   H25   S    
C41   H96   S    
C1    O18   A    
H98   N26   S    
C128  O7    A    
C86   C90   A    
H28   N31   S    
C33   H65   S    
C34   H71   S    
C98   C102  A    
C13   C82   A    
C30   N14   S    
C44   H8    S    
C82   C134  A    
C47   C52   A    
C79   O25   A    
C80   O30   A    
C119  O42   A    
C63   N17   S    
C7    C132  A    
C38   H83   S    
C37   H78   S    
C10   N23   T    
C14   H20   S    
C126  H90   S    
C12   H17   S    
C41   N25   S    
C65   C113  S    
C15   N30   S    
C86   C108  A    
C4    C5    A    
C69   N19   S    
C99   N28   S    
Cr9   O19   S    
C70   N20   S    
C6    C7    A    
Cr10  O20   S    
C56   H11   S    
C7    H35   S    
C32   H61   S    
C17   H36   S    
C26   N9    T    
C45   C50   A    
C49   C53   S    
C81   N22   S    
C49   O15   A    
C127  O37   A    
C83   N24   S    
C38   N21   S    
C17   N32   S    
Cr9   O10   S    
C42   N26   S    
C61   C65   A    
C74   C121  S    
C9    N12   T    
Cr10  O47   S    
C43   C47   A    
C76   C85   A    
C44   C48   A    
C19   H43   S    
C2    H2    S    
C30   H52   S    
Cr11  O21   S    
C100  N29   S    
C102  N31   S    
H32   N32   S    
C34   H69   S    
C6    H24   S    
H59   N16   S    
C42   H100  S    
C107  N4    S    
C105  N2    S    
C119  O47   A    
C75   C84   A    
C20   N4    S    
C68   C74   A    
C18   H39   S    
C3    C136  A    
C77   C131  S    
C49   O19   A    
C52   C60   S    
C37   H80   S    
Cr10  O25   S    
C32   H60   S    
H19   N29   S    
C51   C55   A    
Cr2   O28   S    
H81   N21   S    
C103  N32   S    
Cr4   O4    S    
C72   C75   A    
C81   C83   A    
C16   H30   S    
C92   C97   A    
Cr12  O27   S    
C124  O4    A    
C48   C53   A    
C62   C66   A    
C75   C124  S    
Cr6   O38   S    
C45   H9    S    
C61   N15   S    
C16   H31   S    
Cr4   O13   S    
Cr7   O13   S    
C123  O50   A    
Cr4   O35   S    
C46   C51   A    
C37   N20   S    
C67   C116  S    
C71   O17   A    
Cr10  O11   S    
C132  C136  A    
C102  C107  A    
Cr9   O49   S    
C42   H3    S    
C31   H56   S    
C112  O31   A    
C128  O38   A    
C72   N21   S    
H67   N18   S    
C2    C126  A    
C27   C47   S    
C101  C106  A    
C105  C109  A    
C28   C48   S    
C104  C136  A    
C107  C111  A    
C79   O29   A    
H94   N25   S    
C93   C135  A    
C80   O26   A    
H76   N20   S    
Cr9   O24   S    
C77   O22   A    
Cr7   O43   S    
C78   C130  S    
C40   H92   S    
C24   C93   A    
C86   H46   S    
C19   N3    S    
C96   C100  A    
C114  O23   A    
H89   N24   S    
Cr7   O34   S    
C10   C92   S    
C17   H33   S    
C30   H53   S    
C21   C82   S    
C110  C128  S    
H72   N19   S    
C36   H73   S    
C96   C119  S    
H54   N15   S    
Cr5   O10   S    
C117  O44   A    
Cr11  O26   S    
C50   C54   A    
C41   H95   S    
Cr1   O14   S    
C6    C133  A    
C14   H21   S    
C106  C110  A    
C39   H88   S    
C33   H64   S    
C94   C98   A    
H63   N17   S    
H45   N4    S    
Cr3   O33   S    
C111  C129  S    
Cr4   O30   S    
C68   C69   A    
C45   C67   A    
C69   C73   A    
C20   H47   S    
C68   N18   S    
C40   H93   S    
C88   C110  A    
C37   H77   S    
Cr1   O1    S    
Cr5   O41   S    
C84   N25   S    
C12   N28   S    
C125  O36   A    
C43   H7    S    
C84   C85   A    
Cr12  O52   S    
C62   N16   S    
C53   C57   A    
C38   H84   S    
C33   N17   S    
C106  N3    S    
C12   H16   S    
C32   H62   S    
C2    C115  A    
C101  N30   S    
C23   C104  S    
Cr3   O29   S    
C43   C65   A    
Cr2   O2    S    
C59   C64   A    
Cr3   O7    S    
Cr4   O8    S    
Cr1   O9    S    
C122  O2    A    
C36   H75   S    
Cr11  O48   S    
C134  C135  A    
H23   N30   S    
Cr12  O31   S    
C11   C94   S    
C57   H12   S    
Cr12  O5    S    
C36   N19   S    
H85   N22   S    
C24   H5    S    
Cr7   O17   S    
Cr5   O12   S    
Cr8   O22   S    
C27   N10   T    
Cr2   O6    S    
C66   C114  S    
C15   H26   S    
C41   H97   S    
C71   O21   A    
C13   H4    S    
C39   H86   S    
C33   H66   S    
C34   H70   S    
C87   C109  A    
C117  O40   A    
C15   H27   S    
C95   C120  S    
H41   N3    S    
Cr2   O10   S    
C3    C115  A    
C121  O45   A    
Cr2   O32   S    
C77   O27   A    
C78   O28   A    
C18   H40   S    
C112  O1    A    
C20   H49   S    
C26   C46   S    
C73   C122  S    
C56   C61   A    
C35   C46   A    
C121  O52   A    
C5    H13   S    
C44   C66   A    
Cr1   O36   S    
C9    C91   S    
Cr11  O51   S    
C57   C62   A    
C38   H82   S    
C113  O12   A    
C4    H1    S    
C100  C105  A    
C16   N31   S    
C131  C135  A    
C25   C115  S    
C12   H18   S    
C116  O35   A    
Cr5   O15   S    
C120  O43   A    
C124  O51   A    
Cr5   O37   S    
C97   C118  S    
H37   N2    S    
C88   C92   A    
C29   N13   T    
C103  C108  A    
C108  C125  S    
C31   H55   S    
C19   H44   S    
C28   N11   T    
C30   H51   S    
C127  O6    A    
C89   H79   S    
C4    C131  A    
C29   C50   S    
C55   H10   S    
C79   C133  S    
C63   C67   A    
C42   H99   S    
C113  O32   A    
C31   H58   S    
C23   N7    T    
H50   N14   S    
C118  O41   A    
Cr11  O13   S    
C21   N5    T    
C18   H38   S    
C13   C24   A    
C3    C133  A    
C1    C54   S    
Cr8   O44   S    
Cr9   O46   S    
Cr10  O50   S    
C11   N27   T    
C35   C64   A    
C129  O39   A    
C120  O48   A    
C70   C76   A    
C22   C93   S    
C8    C90   S    
C36   H74   S    
C16   H29   S    
C14   N29   S    
C98   C117  S    
C54   C58   A    
Cr6   O11   S    
C5    C130  A    
C88   H68   S    
C76   C123  S    
C34   N18   S    
C129  O8    A    
C58   C63   A    
Cr8   O9    S    
C89   C111  A    
Cr3   O3    S    
Cr6   O42   S    
C123  O3    A    
C39   H87   S    
C60   O16   A    
C18   N2    S    
Cr12  O9    S    
C22   N6    T    
C19   H42   S    
C118  O46   A    
Cr8   O18   S    
C104  C126  A    
C70   C72   A    
C20   H48   S    
C97   C101  A    
Cr8   O45   S    
C52   C56   A    
C58   H14   S    
