data_mof_unit_43875.cif
_audit_creation_date              2012-10-26T18:28:21-0400
_audit_creation_method            fapswitch 2.2
_symmetry_space_group_name_H-M    P1
_symmetry_Int_Tables_number       1
_space_group_crystal_system       triclinic
_cell_length_a                    27.831888
_cell_length_b                    10.974908
_cell_length_c                    9.812072
_cell_angle_alpha                 111.665921
_cell_angle_beta                  98.016853
_cell_angle_gamma                 91.108997
_cell_volume                      2749.97533244

loop_
_atom_site_label
_atom_site_type_symbol
_atom_type_description
_atom_site_fract_x
_atom_site_fract_y
_atom_site_fract_z
_atom_type_partial_charge
C1    C     C_R   0.498133 0.252723 0.439420 0.559974
C2    C     C_R   0.869967 0.397753 0.483103 0.027801
C3    C     C_R   0.354793 0.488093 0.502124 0.012284
C4    C     C_R   0.645250 0.511532 0.497989 0.017311
C5    C     C_R   0.971778 0.390971 0.486872 0.020181
C6    C     C_R   0.028627 0.621218 0.523579 0.020346
C7    C     C_R   0.977012 0.622307 0.512518 -0.001417
C8    C     C_R   0.022673 0.386254 0.482558 -0.001836
C9    C     C_R   0.948952 0.508254 0.497718 0.030440
C10   C     C_R   0.051116 0.501982 0.505436 0.030399
C11   C     C_R   0.942841 0.282290 0.483263 -0.146675
C12   C     C_R   0.502063 0.747031 0.560774 0.566015
C13   C     C_R   0.058864 0.736376 0.554906 -0.147997
C14   C     C_R   0.893047 0.285340 0.479792 -0.117460
C15   C     C_R   0.108657 0.732835 0.558382 -0.119201
C16   C     C_R   0.407533 0.494001 0.499865 0.544505
C17   C     C_R   0.592478 0.504298 0.499778 0.549284
C18   C     C_R   0.045685 0.267887 0.452937 -0.117453
C19   C     C_R   0.952677 0.734946 0.517169 -0.116967
C20   C     C_2   0.500999 0.110729 0.404030 0.001897
C21   C     C_2   0.502581 0.889333 0.596914 -0.005657
C22   C     C_2   0.516787 0.071993 0.516690 -0.142578
C23   C     C_R   0.102446 0.498910 0.510395 -0.037809
C24   C     C_2   0.518199 0.933978 0.498933 -0.158827
C25   C     C_2   0.504108 0.511130 0.081624 -0.022651
C26   C     C_2   0.495762 0.489265 0.918496 -0.025809
C27   C     C_R   0.177156 0.386352 0.502768 0.385028
C28   C     C_R   0.822267 0.618929 0.486439 0.385782
C29   C     C_R   0.180990 0.612651 0.535130 0.395717
C30   C     C_R   0.819655 0.399984 0.480704 0.396620
C31   C     C_R   0.288042 0.579405 0.633984 -0.064857
C32   C     C_R   0.712507 0.424440 0.366819 -0.062102
C33   C     C_R   0.337676 0.575978 0.627546 -0.165218
C34   C     C_R   0.897617 0.510824 0.493169 -0.037710
C35   C     C_R   0.662832 0.424705 0.373002 -0.162548
C36   C     C_R   0.321007 0.398798 0.382740 -0.006075
C37   C     C_R   0.678498 0.602893 0.617224 -0.010144
C38   C     C_R   0.271117 0.409665 0.387959 -0.038211
C39   C     C_R   0.728408 0.599558 0.609578 -0.046245
C40   C     C_R   0.254484 0.497311 0.513477 0.225673
C41   C     C_R   0.745489 0.510981 0.485641 0.229103
C42   C     C_3   0.335673 0.287886 0.251565 -0.285302
C43   C     C_3   0.317698 0.153134 0.245559 -0.437882
C44   C     C_3   0.662604 0.708630 0.750023 -0.269576
C45   C     C_R   0.125537 0.380571 0.491392 0.020172
C46   C     C_3   0.638023 0.815082 0.706471 -0.411162
C47   C     C_3   0.483992 0.982818 0.735102 -0.283713
C48   C     C_3   0.455910 0.917374 0.816635 -0.417749
C49   C     C_3   0.486351 0.013959 0.244641 -0.280284
C50   C     C_3   0.436789 0.941297 0.222482 -0.437696
C51   C     C_3   0.118503 0.129274 0.428242 -0.237936
C52   C     C_3   0.083510 0.006610 0.384128 -0.473652
C53   C     C_3   0.880322 0.874574 0.552064 -0.236770
C54   C     C_3   0.916083 0.997099 0.612347 -0.473451
C55   C     C_R   0.873905 0.625876 0.500243 0.020117
C56   C     C_R   0.096272 0.261947 0.459075 0.010996
C57   C     C_R   0.902506 0.742097 0.520518 0.012373
C58   C     C_R   0.130781 0.615352 0.534862 0.028056
Cu1   Cu    Cu3+1 0.508480 0.521810 0.644910 0.909658
Cu2   Cu    Cu3+1 0.491520 0.478190 0.355090 0.912712
H1    H     H_    0.467411 0.416059 0.844956 0.148306
H2    H     H_    0.275636 0.646648 0.732367 0.140932
H3    H     H_    0.872615 0.198461 0.474988 0.160587
H4    H     H_    0.129920 0.823926 0.581203 0.160584
H5    H     H_    0.957616 0.193701 0.487095 0.097485
H6    H     H_    0.045637 0.832553 0.580760 0.098599
H7    H     H_    0.024005 0.177293 0.419601 0.116483
H8    H     H_    0.972343 0.818822 0.515301 0.114946
H9    H     H_    0.530192 0.866038 0.399646 0.136411
H10   H     H_    0.526731 0.144241 0.628963 0.144210
H11   H     H_    0.332398 0.140379 0.350305 0.165903
H12   H     H_    0.532378 0.584567 0.155235 0.145387
H13   H     H_    0.277356 0.141126 0.228166 0.172790
H14   H     H_    0.330368 0.074810 0.151391 0.133635
H15   H     H_    0.320136 0.299909 0.147029 0.147316
H16   H     H_    0.375442 0.286058 0.254795 0.178902
H17   H     H_    0.664063 0.864917 0.664090 0.163579
H18   H     H_    0.605813 0.772830 0.619346 0.159841
H19   H     H_    0.625963 0.889358 0.805144 0.137222
H20   H     H_    0.638481 0.665894 0.804314 0.174801
H21   H     H_    0.694514 0.757487 0.836978 0.135086
H22   H     H_    0.427788 0.841814 0.737345 0.162115
H23   H     H_    0.547839 0.623639 0.935096 0.195892
H24   H     H_    0.481045 0.872780 0.879977 0.172959
H25   H     H_    0.437280 0.992917 0.897693 0.120339
H26   H     H_    0.515200 0.046618 0.814300 0.137090
H27   H     H_    0.458578 0.047192 0.701234 0.148313
H28   H     H_    0.437975 0.877755 0.288203 0.177115
H29   H     H_    0.408987 0.012963 0.256592 0.149522
H30   H     H_    0.425916 0.878050 0.103400 0.134911
H31   H     H_    0.484095 0.065885 0.166258 0.159300
H32   H     H_    0.514389 0.942596 0.212148 0.130405
H33   H     H_    0.062500 0.014058 0.474842 0.137593
H34   H     H_    0.452231 0.376168 0.064837 0.197215
H35   H     H_    0.058508 0.991925 0.279759 0.153826
H36   H     H_    0.104761 0.918718 0.364211 0.159250
H37   H     H_    0.139842 0.111311 0.335900 0.189628
H38   H     H_    0.143081 0.134515 0.530027 0.202782
H39   H     H_    0.941888 0.997608 0.709787 0.158238
H40   H     H_    0.936270 0.001633 0.524333 0.132339
H41   H     H_    0.895648 0.086459 0.648745 0.155091
H42   H     H_    0.857661 0.873621 0.449008 0.198368
H43   H     H_    0.856974 0.888475 0.638980 0.192601
H44   H     H_    0.244692 0.346821 0.295319 0.130145
H45   H     H_    0.754483 0.667042 0.699767 0.124463
H46   H     H_    0.638034 0.355276 0.280584 0.126448
H47   H     H_    0.362844 0.643347 0.720624 0.119715
H48   H     H_    0.725442 0.356297 0.270005 0.138923
N1    N     N_R   0.203073 0.499450 0.518860 -0.391058
N2    N     N_R   0.796924 0.509190 0.482109 -0.391999
N3    N     N_2   0.478780 0.445430 0.137360 -0.351949
N4    N     N_2   0.521220 0.554570 0.862640 -0.355440
O1    O     O_R   0.504520 0.332330 0.577400 -0.500340
O2    O     O_2   0.796986 0.718577 0.473353 -0.526867
O3    O     O_2   0.793565 0.294015 0.478395 -0.506730
O4    O     O_2   0.207578 0.722227 0.549694 -0.511247
O5    O     O_R   0.495480 0.667670 0.422600 -0.500335
O6    O     O_R   0.490210 0.295500 0.332650 -0.500204
O7    O     O_R   0.509790 0.704500 0.667350 -0.492756
O8    O     O_R   0.437420 0.518430 0.622370 -0.498306
O9    O     O_R   0.562580 0.481570 0.377630 -0.499059
O10   O     O_R   0.423110 0.481600 0.377610 -0.495597
O11   O     O_R   0.576890 0.518400 0.622390 -0.492445
O12   O     O_2   0.201901 0.281378 0.499916 -0.535085

loop_
_geom_bond_atom_site_label_1
_geom_bond_atom_site_label_2
_ccdc_geom_bond_type
C51   H37   S    
C23   C58   A    
C43   H13   S    
Cu1   O8    S    
C23   C45   A    
C54   H41   S    
C36   C42   S    
C33   H47   S    
C39   C41   A    
C53   C54   S    
C19   C57   A    
C42   H15   S    
C30   N2    A    
C29   N1    A    
C26   H1    S    
C53   H43   S    
C5    C11   A    
C16   O8    A    
C46   H19   S    
C11   C14   A    
C3    C33   A    
H34   N3    S    
C31   C40   A    
C52   H35   S    
C39   H45   S    
C51   C56   S    
C16   O10   A    
C38   H44   S    
C50   H30   S    
C45   C56   A    
C44   C46   S    
Cu1   O7    S    
C15   H4    S    
C31   C33   A    
Cu2   O6    S    
C50   H28   S    
C30   O3    S    
C2    C34   A    
C43   H14   S    
C4    C35   A    
Cu1   Cu2   S    
C31   H2    S    
C54   H40   S    
C1    O1    A    
C49   H31   S    
C28   C55   A    
C17   O11   A    
C24   H9    S    
C13   H6    S    
Cu1   O11   S    
C51   C52   S    
C47   H26   S    
C44   H20   S    
C44   H21   S    
C46   H18   S    
C53   C57   S    
C28   N2    A    
C18   H7    S    
C12   C21   S    
C8    C18   A    
C48   H24   S    
C47   H27   S    
C32   C35   A    
C5    C9    A    
C20   C49   S    
C46   H17   S    
C12   O7    A    
C50   H29   S    
C47   C48   S    
C53   H42   S    
C32   C41   A    
Cu1   N4    S    
C19   H8    S    
C25   H12   S    
C4    C37   A    
Cu2   O10   S    
C40   N1    S    
C28   O2    S    
C4    C17   S    
C17   O9    A    
C29   O4    S    
C20   C22   D    
C7    C19   A    
C41   N2    S    
C55   C57   A    
Cu2   O5    S    
C9    C34   A    
C15   C58   A    
C22   C24   S    
C54   H39   S    
C42   C43   S    
C49   H32   S    
C26   N4    D    
C7    C9    A    
C1    C20   S    
C43   H11   S    
H23   N4    S    
Cu1   O1    S    
C6    C10   A    
C5    C8    A    
C27   O12   S    
C6    C7    A    
C18   C56   A    
C10   C23   A    
C42   H16   S    
C52   H33   S    
C2    C30   A    
C37   C44   S    
C13   C15   A    
C25   C26   S    
C37   C39   A    
C35   H46   S    
C6    C13   A    
C38   C40   A    
C27   C45   A    
C3    C36   A    
C51   H38   S    
C14   H3    S    
C36   C38   A    
C48   H22   S    
C52   H36   S    
C1    O6    A    
Cu2   O9    S    
C2    C14   A    
C25   N3    D    
C12   O5    A    
C34   C55   A    
C29   C58   A    
C27   N1    A    
C8    C10   A    
C49   C50   S    
C32   H48   S    
C21   C24   D    
Cu2   N3    S    
C48   H25   S    
C22   H10   S    
C3    C16   S    
C11   H5    S    
C21   C47   S    
