data_mof_unit_67451.cif
_audit_creation_date              2012-12-10T16:46:00-0500
_audit_creation_method            fapswitch 2.2
_symmetry_space_group_name_H-M    P1
_symmetry_Int_Tables_number       1
_space_group_crystal_system       triclinic
_cell_length_a                    10.774222
_cell_length_b                    8.706513
_cell_length_c                    7.524726
_cell_angle_alpha                 103.319916
_cell_angle_beta                  94.982688
_cell_angle_gamma                 94.675141
_cell_volume                      680.517231357

loop_
_atom_site_label
_atom_site_type_symbol
_atom_type_description
_atom_site_fract_x
_atom_site_fract_y
_atom_site_fract_z
_atom_type_partial_charge
C1    C     C_R   0.498194 0.200104 0.453601 0.928605
C2    C     C_3   0.877428 0.509440 0.501329 -0.059671
C3    C     C_3   0.920912 0.554889 0.326293 -0.527470
C4    C     C_3   0.913347 0.337049 0.495682 -0.090616
C5    C     C_2   0.494812 0.031901 0.431556 -0.298616
C6    C     C_2   0.525363 0.968867 0.574400 -0.036419
C7    C     C_R   0.260569 0.504494 0.502096 0.833795
C8    C     C_R   0.508776 0.800054 0.547112 0.826839
C9    C     C_R   0.739665 0.506736 0.500084 0.760871
C10   C     C_3   0.089428 0.627022 0.690797 0.248107
C11   C     C_3   0.943887 0.634543 0.675417 -0.128114
C12   C     C_3   0.065387 0.568919 0.336018 -0.215625
C13   C     C_3   0.058347 0.328094 0.481349 -0.047404
C14   C     C_3   0.122181 0.506846 0.506323 -0.110670
Cu1   Cu    Cu3+1 0.514070 0.517380 0.684380 1.033527
Cu2   Cu    Cu3+1 0.485930 0.482620 0.315620 0.961476
H1    H     H_    0.860349 0.261879 0.366760 0.200051
H2    H     H_    0.087695 0.492420 0.205606 0.158945
H3    H     H_    0.881432 0.461467 0.201934 0.197859
H4    H     H_    0.461171 0.957862 0.295965 0.165796
H5    H     H_    0.909083 0.604037 0.799102 0.190432
H6    H     H_    0.882681 0.664910 0.305507 0.170036
N1    N     N_2   0.464720 0.456420 0.038520 -0.091965
N2    N     N_2   0.535280 0.543580 0.961480 -0.116799
O1    O     O_R   0.509140 0.286130 0.619770 -0.506722
O2    O     O_R   0.485380 0.256770 0.308360 -0.611654
O3    O     O_R   0.329570 0.514650 0.655700 -0.570223
O4    O     O_R   0.305810 0.485300 0.344290 -0.585745
O5    O     O_R   0.514620 0.743230 0.691640 -0.560460
O6    O     O_R   0.490860 0.713870 0.380230 -0.612888
O7    O     O_R   0.694190 0.514700 0.655710 -0.567968
O8    O     O_R   0.670430 0.485350 0.344300 -0.632612
N3    N     N_3   0.155124 0.787099 0.711164 -0.598601
H7    H     H_    0.251969 0.783191 0.719477 0.226270
H8    H     H_    0.139083 0.860567 0.836451 0.276537
N4    N     N_3   0.579323 0.063356 0.751563 -0.543559
H9    H     H_    0.668451 0.029318 0.778686 0.268026
H10   H     H_    0.524841 0.037004 0.851106 0.238957
N5    N     N_3   0.377992 0.343860 0.922320 -0.350528
H11   H     H_    0.290932 0.363027 0.969273 0.196890
H12   H     H_    0.397141 0.234036 0.944881 0.229248
C15   C     C_2   0.626606 0.665528 0.065421 0.588358
H13   H     H_    0.651507 0.686134 0.209336 0.062735
O9    O     O_2   0.682568 0.753141 0.987540 -0.531223
N6    N     N_3   0.124341 0.578417 0.862153 -0.578135
H14   H     H_    0.220213 0.592177 0.902756 0.284385
H15   H     H_    0.082153 0.468459 0.867295 0.177820
C16   C     C_2   0.905417 0.800663 0.683993 0.383098
H16   H     H_    0.905389 0.852121 0.566206 0.062787
O10   O     O_2   0.876993 0.881000 0.827186 -0.482124
C17   C     C_2   0.117939 0.734811 0.330721 0.485781
H17   H     H_    0.074495 0.837915 0.396334 0.131952
O11   O     O_2   0.210608 0.755149 0.253121 -0.538233
C18   C     C_2   0.074200 0.223210 0.291710 0.376980
H18   H     H_    0.145784 0.255421 0.210597 0.073143
O12   O     O_2   0.013519 0.093500 0.234481 -0.521048
C19   C     C_2   0.120190 0.240595 0.615068 0.364210
H19   H     H_    0.076157 0.216934 0.731288 0.110558
O13   O     O_2   0.221637 0.190420 0.591205 -0.560034
N7    N     N_3   0.867804 0.269613 0.643567 -0.606214
H20   H     H_    0.882462 0.350975 0.770561 0.222347
H21   H     H_    0.771680 0.234621 0.614438 0.244915

loop_
_geom_bond_atom_site_label_1
_geom_bond_atom_site_label_2
_ccdc_geom_bond_type
Cu2   O4    S    
C2    C4    S    
N1    N2    D    
C18   O12   D    
C3    H3    S    
Cu2   O8    S    
N2    C15   S    
C15   H13   S    
Cu1   O3    S    
C16   H16   S    
C8    O6    A    
Cu2   N1    S    
C4    N7    S    
C10   N6    S    
N4    H10   S    
N3    H7    S    
C19   H19   S    
C7    O3    A    
N5    H12   S    
C5    H4    S    
C13   C14   S    
C1    O1    A    
C11   C16   S    
C5    C6    D    
C15   O9    D    
N1    N5    S    
C2    C11   S    
C16   O10   D    
Cu1   N2    S    
N3    H8    S    
C12   C14   S    
Cu1   O5    S    
C10   N3    S    
C2    C3    S    
N6    H15   S    
Cu2   O2    S    
C1    O2    A    
C1    C5    S    
Cu1   O1    S    
C19   O13   D    
C10   C11   S    
C8    O5    A    
Cu2   O6    S    
C17   H17   S    
N5    H11   S    
C12   C17   S    
C13   C19   S    
N7    H21   S    
C13   C18   S    
C10   C14   S    
C12   H2    S    
C4    C13   S    
C9    O7    A    
C18   H18   S    
N4    H9    S    
C3    H6    S    
C6    C8    S    
C3    C12   S    
C9    O8    A    
N6    H14   S    
C2    C9    S    
Cu1   O7    S    
C11   H5    S    
C7    C14   S    
C7    O4    A    
Cu1   Cu2   S    
C6    N4    S    
N7    H20   S    
C17   O11   D    
C4    H1    S    
