data_mof_unit_5552.cif
_audit_creation_date              2012-12-11T14:44:28-0500
_audit_creation_method            fapswitch 2.2
_symmetry_space_group_name_H-M    P1
_symmetry_Int_Tables_number       1
_space_group_crystal_system       triclinic
_cell_length_a                    19.905427
_cell_length_b                    7.225037
_cell_length_c                    19.732393
_cell_angle_alpha                 91.45861
_cell_angle_beta                  98.258075
_cell_angle_gamma                 91.529189
_cell_volume                      2806.2062358

loop_
_atom_site_label
_atom_site_type_symbol
_atom_type_description
_atom_site_fract_x
_atom_site_fract_y
_atom_site_fract_z
_atom_type_partial_charge
O1    O     O_R   0.673210 0.377390 0.686390 -0.538399
O2    O     O_R   0.326790 0.622610 0.313610 -0.538067
O3    O     O_R   0.826790 0.877390 0.813610 -0.534920
O4    O     O_R   0.173210 0.122610 0.186390 -0.534949
O5    O     O_R   0.810750 0.706450 0.681250 -0.540010
O6    O     O_R   0.189250 0.293550 0.318750 -0.540617
O7    O     O_R   0.689250 0.206450 0.818750 -0.537835
O8    O     O_R   0.310750 0.793550 0.181250 -0.537434
C1    C     C_R   0.831334 0.538540 0.665667 0.694605
C2    C     C_R   0.168652 0.461421 0.334290 0.696295
C3    C     C_R   0.668855 0.038441 0.834642 0.695453
C4    C     C_R   0.331153 0.961559 0.165366 0.696052
O9    O     O_R   0.672750 0.707060 0.678240 -0.537270
O10   O     O_R   0.327250 0.292940 0.321760 -0.537224
O11   O     O_R   0.827250 0.207060 0.821760 -0.543346
O12   O     O_R   0.172750 0.792940 0.178240 -0.542905
O13   O     O_R   0.687800 0.877990 0.810580 -0.538760
O14   O     O_R   0.312200 0.122010 0.189420 -0.538791
O15   O     O_R   0.812200 0.377990 0.689420 -0.533818
O16   O     O_R   0.187800 0.622010 0.310580 -0.535783
C5    C     C_R   0.648371 0.534203 0.661412 0.688354
C6    C     C_R   0.351642 0.465793 0.338573 0.689494
C7    C     C_R   0.851440 0.042663 0.839502 0.687242
C8    C     C_R   0.148555 0.957336 0.160503 0.687117
O17   O     O_3   0.755100 0.544060 0.793420 -0.376382
O18   O     O_3   0.244900 0.455940 0.206580 -0.375717
O19   O     O_3   0.744900 0.044060 0.706580 -0.372120
O20   O     O_3   0.255100 0.955940 0.293420 -0.373109
V1    V     V_3+5 0.749050 0.818670 0.741950 1.405644
V2    V     V_3+5 0.250950 0.181330 0.258050 1.401852
V3    V     V_3+5 0.750950 0.318670 0.758050 1.407675
V4    V     V_3+5 0.249050 0.681330 0.241950 1.404403
C9    C     C_R   0.088891 0.949671 0.104692 -0.065109
C10   C     C_R   0.911096 0.050331 0.895325 -0.065194
C11   C     C_R   0.412450 0.494373 0.391880 -0.064328
C12   C     C_R   0.587590 0.505602 0.608074 -0.063555
C13   C     C_R   0.002493 0.234330 0.964589 -0.201331
C14   C     C_R   0.997484 0.765681 0.035438 -0.202744
C15   C     C_R   0.493333 0.300498 0.555840 -0.191183
C16   C     C_R   0.506738 0.699424 0.444085 -0.196432
C17   C     C_R   0.949428 0.217572 0.909778 -0.163906
C18   C     C_R   0.050554 0.782436 0.090245 -0.165432
C19   C     C_R   0.546386 0.343757 0.608769 -0.157683
C20   C     C_R   0.453662 0.656199 0.391171 -0.159324
C21   C     C_R   0.928123 0.898476 0.937129 -0.236874
C22   C     C_R   0.071859 0.101529 0.062891 -0.236475
C23   C     C_R   0.573316 0.626126 0.553409 -0.239339
C24   C     C_R   0.426748 0.373814 0.446528 -0.235455
C25   C     C_R   0.981292 0.915257 0.992993 0.158420
C26   C     C_R   0.018686 0.084751 0.007032 0.157813
C27   C     C_R   0.520114 0.582288 0.499461 0.156641
C28   C     C_R   0.479960 0.417637 0.500465 0.155217
H1    H     H_    0.100854 0.230973 0.072697 0.125966
H2    H     H_    0.899130 0.769031 0.927321 0.125500
H3    H     H_    0.395254 0.249770 0.448273 0.127117
H4    H     H_    0.604813 0.750167 0.551666 0.124083
H5    H     H_    0.061727 0.662672 0.121347 0.130096
H6    H     H_    0.938256 0.337338 0.878678 0.130462
H7    H     H_    0.444350 0.751728 0.349666 0.126603
H8    H     H_    0.555685 0.248239 0.650279 0.127980
H9    H     H_    0.030679 0.365054 0.973956 0.120042
H10   H     H_    0.969297 0.634958 0.026073 0.118958
H11   H     H_    0.463167 0.174243 0.557982 0.123714
H12   H     H_    0.536911 0.825666 0.441935 0.118692
C29   C     C_R   0.575454 0.174329 0.891200 -0.136416
C30   C     C_R   0.424586 0.825700 0.108845 -0.138548
C31   C     C_R   0.929987 0.390411 0.622381 -0.157812
C32   C     C_R   0.068437 0.605412 0.375982 -0.188384
C33   C     C_R   0.619658 0.028593 0.884431 -0.110954
C34   C     C_R   0.380373 0.971422 0.115600 -0.110982
C35   C     C_R   0.881044 0.528166 0.616388 -0.096243
C36   C     C_R   0.118644 0.471215 0.383222 -0.090194
C37   C     C_R   0.615941 0.871621 0.924640 -0.189959
C38   C     C_R   0.384109 0.128421 0.075410 -0.189919
C39   C     C_R   0.879888 0.654740 0.563298 -0.187910
C40   C     C_R   0.120819 0.347391 0.437244 -0.192137
C41   C     C_R   0.569068 0.859342 0.971536 0.012387
C42   C     C_R   0.430998 0.140720 0.028533 0.012934
C43   C     C_R   0.925943 0.642165 0.515425 0.011683
C44   C     C_R   0.073547 0.356574 0.483969 0.019919
C45   C     C_R   0.524075 0.005449 0.976996 -0.022979
C46   C     C_R   0.475992 0.994614 0.023075 -0.022581
C47   C     C_R   0.975160 0.503419 0.522258 -0.014164
C48   C     C_R   0.022695 0.490752 0.475569 -0.011824
C49   C     C_R   0.527218 0.162704 0.936461 0.081170
C50   C     C_R   0.472843 0.837354 0.063604 0.080674
C51   C     C_R   0.977567 0.379028 0.576448 0.069135
C52   C     C_R   0.020322 0.615263 0.421413 0.043280
C53   C     C_R   0.566775 0.704708 0.013490 0.429006
C54   C     C_R   0.433308 0.295374 0.986593 0.426504
C55   C     C_R   0.923651 0.764989 0.460703 0.453395
C56   C     C_R   0.076361 0.235473 0.539298 0.445033
C57   C     C_R   0.518037 0.693906 0.058390 -0.222358
C58   C     C_R   0.482033 0.306168 0.941686 -0.218766
C59   C     C_R   0.970974 0.751190 0.414498 -0.294518
C60   C     C_R   0.028344 0.247254 0.584762 -0.245858
H13   H     H_    0.577601 0.295429 0.860142 0.125021
H14   H     H_    0.422430 0.704590 0.139896 0.124388
H15   H     H_    0.931881 0.293957 0.663782 0.117111
H16   H     H_    0.066497 0.701631 0.334505 0.119930
H17   H     H_    0.650445 0.760050 0.919954 0.171056
H18   H     H_    0.349605 0.239994 0.080091 0.171176
H19   H     H_    0.842003 0.760376 0.558589 0.165036
H20   H     H_    0.160050 0.245544 0.443159 0.160313
H21   H     H_    0.515069 0.571701 0.088678 0.138348
H22   H     H_    0.484983 0.428369 0.911391 0.139204
H23   H     H_    0.969852 0.849829 0.373906 0.142234
H24   H     H_    0.031733 0.154847 0.627463 0.137974
O21   O     O_3   0.608669 0.557648 0.006463 -0.554653
C61   C     C_3   0.657383 0.550765 0.065645 -0.270262
H25   H     H_    0.686041 0.685336 0.076496 0.129475
H26   H     H_    0.694535 0.444271 0.056744 0.168804
H27   H     H_    0.633624 0.509055 0.110809 0.133939
O22   O     O_3   0.391435 0.442472 0.993615 -0.556062
C62   C     C_3   0.342501 0.448687 0.934590 -0.259561
H28   H     H_    0.305487 0.555627 0.943414 0.169559
H29   H     H_    0.313733 0.314174 0.924178 0.132572
H30   H     H_    0.366066 0.489345 0.889189 0.137555
O23   O     O_3   0.878277 0.907327 0.455120 -0.550038
C63   C     C_3   0.824524 0.859456 0.402456 -0.265670
H31   H     H_    0.786417 0.969190 0.400394 0.165096
H32   H     H_    0.798577 0.726695 0.412695 0.131244
H33   H     H_    0.842452 0.851439 0.351621 0.136597
O24   O     O_3   0.129794 0.117388 0.553249 -0.556397
C64   C     C_3   0.108587 0.940284 0.525730 -0.235636
H34   H     H_    0.151058 0.844563 0.537573 0.172016
H35   H     H_    0.095987 0.943401 0.469027 0.143660
H36   H     H_    0.064791 0.883916 0.548875 0.143683

loop_
_geom_bond_atom_site_label_1
_geom_bond_atom_site_label_2
_ccdc_geom_bond_type
O17   V3    S    
C24   H3    S    
C47   C51   A    
C40   H20   S    
O19   V1    S    
O13   V1    S    
O3    C7    A    
O1    V3    S    
C44   C48   A    
O15   V3    S    
C45   C46   A    
C5    C12   S    
C42   C54   A    
O1    C5    A    
C6    C11   S    
C41   C53   A    
C13   C17   A    
C9    C18   A    
O9    V1    S    
C17   H6    S    
C14   C18   A    
C56   O24   S    
O4    C8    A    
C20   H7    S    
C62   H28   S    
C53   O21   S    
C56   C60   A    
C12   C23   A    
O2    V4    S    
O3    V1    S    
C34   C38   A    
C57   H21   S    
C61   H25   S    
C1    O15   A    
C58   H22   S    
C2    O16   A    
C62   H29   S    
O2    C6    A    
C64   H36   S    
C33   C37   A    
O14   V2    S    
C21   C25   A    
C16   C20   A    
C43   C55   A    
C63   H33   S    
C31   H15   S    
C38   H18   S    
C62   H30   S    
C37   H17   S    
C15   C28   A    
C60   H24   S    
C52   C59   A    
O12   C8    A    
C39   H19   S    
C9    C22   A    
C10   C17   A    
O10   V2    S    
C11   C24   A    
C18   H5    S    
C63   H32   S    
C54   C58   A    
O5    V1    S    
O7    V3    S    
C27   C28   A    
O8    V4    S    
C48   C52   A    
O22   C62   S    
C14   C25   A    
O18   V4    S    
C23   C27   A    
C46   C50   A    
O4    V2    S    
C32   C36   A    
C44   C56   A    
O7    C3    A    
C32   H16   S    
O5    C1    A    
C50   C57   A    
C49   C58   A    
C42   C46   A    
C13   H9    S    
C47   C48   A    
C41   C45   A    
O8    C4    A    
C7    C10   S    
C51   C60   A    
O9    C5    A    
C36   C40   A    
C10   C21   A    
C29   C49   A    
C11   C20   A    
C61   H27   S    
C59   H23   S    
C19   H8    S    
O6    V2    S    
C21   H2    S    
C64   H34   S    
C32   C52   A    
C55   O23   S    
C40   C44   A    
C63   H31   S    
O16   V4    S    
C4    C34   S    
C3    O13   A    
C1    C35   S    
C30   C50   A    
C15   C19   A    
O23   C63   S    
C3    C33   S    
O11   V3    S    
O12   V4    S    
C16   C27   A    
C15   H11   S    
C22   C26   A    
C31   C51   A    
C8    C9    S    
C16   H12   S    
O10   C6    A    
O20   V2    S    
C29   H13   S    
O21   C61   S    
C35   C39   A    
C13   C26   A    
C30   H14   S    
C30   C34   A    
C29   C33   A    
C22   H1    S    
O11   C7    A    
C31   C35   A    
C54   O22   S    
C53   C57   A    
C61   H26   S    
O6    C2    A    
C55   C59   A    
C43   C47   A    
C24   C28   A    
C25   C26   A    
C38   C42   A    
C4    O14   A    
C64   H35   S    
C37   C41   A    
C23   H4    S    
C12   C19   A    
C39   C43   A    
C45   C49   A    
O24   C64   S    
C14   H10   S    
C2    C36   S    
