data_mof_unit_47047.cif
_audit_creation_date              2012-12-10T18:06:47-0500
_audit_creation_method            fapswitch 2.2
_symmetry_space_group_name_H-M    P1
_symmetry_Int_Tables_number       1
_space_group_crystal_system       triclinic
_cell_length_a                    12.602685
_cell_length_b                    13.058443
_cell_length_c                    15.448509
_cell_angle_alpha                 83.585797
_cell_angle_beta                  98.907463
_cell_angle_gamma                 96.272689
_cell_volume                      2485.02426756

loop_
_atom_site_label
_atom_site_type_symbol
_atom_type_description
_atom_site_fract_x
_atom_site_fract_y
_atom_site_fract_z
_atom_type_partial_charge
C1    C     C_R   0.441645 0.308556 0.504822 0.872650
C2    C     C_R   0.684914 0.545044 0.929182 0.172585
C3    C     C_R   0.574699 0.552044 0.895178 0.103979
C4    C     C_R   0.436039 0.515444 0.335807 0.850857
C5    C     C_R   0.756599 0.520568 0.875118 -0.194945
C6    C     C_R   0.718741 0.500001 0.788400 -0.198206
C7    C     C_R   0.537774 0.524951 0.810350 -0.262371
C8    C     C_R   0.650097 0.943486 0.368045 -0.195932
C9    C     C_R   0.577839 0.802417 0.463964 -0.062210
C10   C     C_R   0.314272 0.158930 0.543600 -0.254970
C11   C     C_R   0.275144 0.055172 0.541319 0.018151
C12   C     C_R   0.456983 0.574956 0.095931 0.077976
C13   C     C_R   0.329501 0.988954 0.501515 -0.059037
C14   C     C_R   0.425246 0.028581 0.466035 0.019634
C15   C     C_R   0.447267 0.136169 0.450503 0.079536
C16   C     C_R   0.555130 0.692255 0.488160 0.860063
C17   C     C_R   0.501264 0.966290 0.446168 0.089701
C18   C     C_R   0.576850 0.007096 0.389289 0.180238
C19   C     C_R   0.578648 0.111002 0.356214 -0.248737
C20   C     C_R   0.515658 0.175586 0.387830 -0.188576
C21   C     C_R   0.510382 0.867599 0.488666 -0.234504
C22   C     C_R   0.649012 0.840363 0.403952 -0.185137
C23   C     C_R   0.349812 0.596448 0.060482 0.114138
C24   C     C_R   0.400017 0.200256 0.498191 -0.136800
C25   C     C_R   0.138571 0.634596 0.629019 -0.279966
C26   C     C_R   0.757969 0.383212 0.392979 0.023995
C27   C     C_R   0.853283 0.358287 0.369988 -0.249501
C28   C     C_R   0.565514 0.489842 0.663912 0.867742
C29   C     C_R   0.950853 0.402026 0.411167 -0.189723
C30   C     C_R   0.952895 0.471819 0.475390 0.017422
C31   C     C_R   0.853405 0.494015 0.496784 0.234005
C32   C     C_R   0.049046 0.520341 0.518889 -0.012534
C33   C     C_R   0.044141 0.588031 0.584000 0.190092
C34   C     C_R   0.536258 0.576587 0.040090 0.068844
C35   C     C_R   0.945139 0.608813 0.603282 -0.276251
C36   C     C_R   0.851041 0.563118 0.559471 -0.220194
C37   C     C_R   0.150767 0.504703 0.500406 -0.045948
C38   C     C_R   0.236722 0.614509 0.608477 0.032963
C39   C     C_R   0.402896 0.540143 0.241501 -0.054694
C40   C     C_R   0.608560 0.501429 0.756126 -0.063184
C41   C     C_R   0.272311 0.594269 0.117636 -0.191539
C42   C     C_R   0.298976 0.566863 0.207537 -0.189651
C43   C     C_R   0.480249 0.543972 0.185651 -0.252316
C44   C     C_1   0.216729 0.644275 0.928618 0.139603
C45   C     C_R   0.502550 0.578633 0.948750 0.050540
C46   C     C_1   0.277202 0.887299 0.484063 0.148778
C47   C     C_1   0.180046 0.017944 0.581344 0.164976
C48   C     C_R   0.397807 0.606055 0.913988 -0.275330
C49   C     C_R   0.322688 0.617066 0.968858 -0.010195
C50   C     C_R   0.647626 0.573924 0.072423 -0.225693
C51   C     C_R   0.721116 0.560583 0.017012 -0.233356
H1    H     H_    0.701099 0.790035 0.383146 0.163219
H2    H     H_    0.163157 0.455787 0.451964 0.123204
H3    H     H_    0.022537 0.379787 0.391177 0.137457
H4    H     H_    0.851554 0.305645 0.320280 0.147704
H5    H     H_    0.777502 0.583673 0.575818 0.214954
H6    H     H_    0.775284 0.483310 0.746911 0.166200
H7    H     H_    0.805605 0.558020 0.043873 0.148901
H8    H     H_    0.238164 0.565843 0.250158 0.160802
H9    H     H_    0.558102 0.518558 0.212768 0.158170
H10   H     H_    0.680265 0.584391 0.140047 0.149470
H11   H     H_    0.841505 0.516962 0.899987 0.146716
H12   H     H_    0.632579 0.143404 0.309836 0.140081
H13   H     H_    0.136432 0.685735 0.679251 0.158660
H14   H     H_    0.681891 0.351101 0.360184 0.125190
H15   H     H_    0.190482 0.612028 0.093200 0.149296
H16   H     H_    0.373640 0.621766 0.843878 0.146748
H17   H     H_    0.706673 0.972964 0.323024 0.140277
H18   H     H_    0.463843 0.839649 0.541210 0.157038
H19   H     H_    0.275904 0.208094 0.579148 0.173594
H20   H     H_    0.519042 0.255844 0.361631 0.155402
H21   H     H_    0.311166 0.649217 0.642587 0.125427
H22   H     H_    0.452569 0.519134 0.786183 0.162990
H23   H     H_    0.940317 0.661084 0.652076 0.167379
N1    N     N_R   0.239390 0.551900 0.544730 -0.099605
N2    N     N_R   0.759950 0.448600 0.455730 -0.128544
N3    N     N_1   0.131995 0.665985 0.896284 -0.221886
N4    N     N_1   0.234989 0.806667 0.469176 -0.182500
N5    N     N_1   0.103920 0.988062 0.613361 -0.199255
O1    O     O_R   0.374950 0.371210 0.521360 -0.613123
O2    O     O_R   0.542050 0.338030 0.492790 -0.606014
O3    O     O_R   0.368720 0.526070 0.390200 -0.611596
O4    O     O_R   0.535820 0.492890 0.361630 -0.633164
O5    O     O_R   0.457950 0.661970 0.507210 -0.601279
O6    O     O_R   0.625050 0.628790 0.478640 -0.634974
O7    O     O_R   0.464180 0.507110 0.638370 -0.619673
O8    O     O_R   0.631280 0.473930 0.609800 -0.628734
Zn1   Zn    Zn3+2 0.388420 0.522150 0.519080 0.947341
Zn2   Zn    Zn3+2 0.611580 0.477850 0.480920 0.927158

loop_
_geom_bond_atom_site_label_1
_geom_bond_atom_site_label_2
_ccdc_geom_bond_type
C44   C49   S    
C35   H23   S    
C27   C29   A    
C41   C42   A    
C11   C47   S    
C19   C20   A    
C6    H6    S    
C47   N5    T    
C7    H22   S    
C12   C23   A    
C26   C27   A    
C44   N3    T    
C9    C16   S    
C12   C43   A    
C3    C7    A    
C30   C31   A    
C27   H4    S    
C9    C22   A    
C23   C49   A    
C29   H3    S    
C28   C40   S    
C1    O2    A    
C16   O5    A    
C18   C19   A    
C35   C36   A    
C19   H12   S    
C26   N2    A    
C7    C40   A    
C20   H20   S    
N2    Zn2   S    
O2    Zn2   S    
C37   N1    A    
C13   C14   A    
C14   C17   A    
C50   C51   A    
C39   C42   A    
C38   N1    A    
C15   C20   A    
O4    Zn2   S    
C38   H21   S    
C34   C50   A    
C10   C11   A    
C46   N4    T    
O6    Zn2   S    
C39   C43   A    
C10   C24   A    
C3    C45   A    
C8    C18   A    
C21   H18   S    
C25   H13   S    
C29   C30   A    
C36   H5    S    
C25   C38   A    
C8    C22   A    
C4    C39   S    
C28   O8    A    
C17   C18   A    
C51   H7    S    
C32   C37   A    
C34   C45   A    
C43   H9    S    
C10   H19   S    
C15   C24   A    
C8    H17   S    
O8    Zn2   S    
C28   O7    A    
C16   O6    A    
C6    C40   A    
C2    C5    A    
C12   C34   A    
C22   H1    S    
C45   C48   A    
C13   C46   S    
C1    O1    A    
C48   C49   A    
C14   C15   A    
C26   H14   S    
O5    Zn1   S    
C42   H8    S    
C41   H15   S    
C23   C41   A    
C32   C33   A    
C2    C3    A    
C37   H2    S    
O1    Zn1   S    
C30   C32   A    
C11   C13   A    
C9    C21   A    
C31   N2    A    
C5    C6    A    
C4    O4    A    
O3    Zn1   S    
C33   C35   A    
C5    H11   S    
O7    Zn1   S    
C48   H16   S    
C17   C21   A    
C2    C51   A    
N1    Zn1   S    
C4    O3    A    
C1    C24   S    
C50   H10   S    
C31   C36   A    
C25   C33   A    
