data_mof_unit_62840.cif
_audit_creation_date              2012-12-10T19:16:03-0500
_audit_creation_method            fapswitch 2.2
_symmetry_space_group_name_H-M    P1
_symmetry_Int_Tables_number       1
_space_group_crystal_system       triclinic
_cell_length_a                    50.422512
_cell_length_b                    38.865217
_cell_length_c                    31.865436
_cell_angle_alpha                 89.999877
_cell_angle_beta                  129.548913
_cell_angle_gamma                 89.999983
_cell_volume                      48151.0324279

loop_
_atom_site_label
_atom_site_type_symbol
_atom_type_description
_atom_site_fract_x
_atom_site_fract_y
_atom_site_fract_z
_atom_type_partial_charge
C1    C     C_R   0.067072 0.000021 0.566540 0.882817
C2    C     C_3   0.034236 0.014667 0.760223 0.161764
C3    C     C_R   0.342109 0.520453 0.314043 0.015275
C4    C     C_R   0.176181 0.002055 0.673502 0.056426
C5    C     C_R   0.823819 0.002056 0.326502 0.056440
C6    C     C_R   0.676181 0.502055 0.673507 0.056422
C7    C     C_R   0.323819 0.502055 0.326493 0.056420
C8    C     C_R   1.000000 0.067172 1.000000 0.864833
C9    C     C_R   0.500000 0.567172 0.000000 0.864834
C10   C     C_R   0.000126 0.999957 0.081153 0.902932
C11   C     C_R   0.999874 0.999957 0.918847 0.902932
C12   C     C_R   0.500126 0.499957 0.081153 0.902933
C13   C     C_3   0.465761 0.514660 0.239774 0.161764
C14   C     C_R   0.499874 0.499957 0.918847 0.902934
C15   C     C_R   0.000000 0.932692 0.000000 0.854559
C16   C     C_R   0.500000 0.432692 0.000000 0.854560
C17   C     C_R   0.500000 0.932775 1.000000 0.918388
C18   C     C_R   1.000000 0.432775 0.000000 0.918325
C19   C     C_R   0.432654 0.999640 0.932515 0.895839
C20   C     C_R   0.567346 0.999640 0.067485 0.895926
C21   C     C_R   0.932654 0.499640 0.932515 0.895830
C22   C     C_R   0.067346 0.499640 0.067485 0.895828
C23   C     C_R   0.500000 0.067111 1.000000 0.926220
C24   C     C_3   0.534239 0.514658 0.760227 0.161764
C25   C     C_R   0.000000 0.567111 1.000000 0.926219
C26   C     C_R   0.527942 0.877388 0.045794 -0.136941
C27   C     C_R   0.472059 0.877387 0.954206 -0.136960
C28   C     C_R   0.027929 0.377386 0.045811 -0.136965
C29   C     C_R   0.972071 0.377387 0.954189 -0.136964
C30   C     C_3   0.000379 0.959244 0.275324 -0.370509
C31   C     C_3   0.999631 0.959243 0.724687 -0.370509
C32   C     C_3   0.500378 0.459244 0.275323 -0.370508
C33   C     C_3   0.499620 0.459244 0.724676 -0.370508
C34   C     C_R   0.528474 0.841413 0.045023 0.400574
C35   C     C_1   0.001036 0.997546 0.163873 0.091666
C36   C     C_R   0.471527 0.841412 0.954981 0.400587
C37   C     C_R   0.028461 0.341412 0.045038 0.400575
C38   C     C_R   0.971538 0.341412 0.954961 0.400575
C39   C     C_R   0.500001 0.823472 0.000003 -0.167541
C40   C     C_R   1.000000 0.323471 0.999999 -0.167540
C41   C     C_R   0.500001 0.895336 0.000000 -0.252008
C42   C     C_R   1.000000 0.395336 1.000000 -0.252027
C43   C     C_R   0.503422 0.767929 0.041312 -0.176601
C44   C     C_R   0.496579 0.767929 0.958696 -0.176599
C45   C     C_R   0.003390 0.267928 0.041280 -0.176608
C46   C     C_1   0.998964 0.997545 0.836127 0.091667
C47   C     C_R   0.996609 0.267928 0.958719 -0.176610
C48   C     C_R   0.003507 0.232119 0.041645 -0.020673
C49   C     C_R   0.996492 0.232119 0.958353 -0.020673
C50   C     C_R   0.503540 0.732120 0.041678 -0.020680
C51   C     C_R   0.496461 0.732119 0.958330 -0.020679
C52   C     C_R   1.000000 0.214050 0.999999 -0.024666
C53   C     C_R   0.500000 0.714051 0.000004 -0.024655
C54   C     C_R   0.500001 0.785809 0.000003 0.139585
C55   C     C_R   1.000000 0.285808 0.999999 0.139612
C56   C     C_R   0.968987 0.158664 0.964381 -0.151678
C57   C     C_1   0.501036 0.497546 0.163873 0.091667
C58   C     C_R   0.031013 0.158664 0.035617 -0.151678
C59   C     C_R   0.468986 0.658664 0.964390 -0.151673
C60   C     C_R   0.531014 0.658664 0.035616 -0.151674
C61   C     C_R   0.968944 0.122908 0.964428 -0.187353
C62   C     C_R   0.031056 0.122908 0.035571 -0.187353
C63   C     C_R   0.468944 0.622908 0.964435 -0.187353
C64   C     C_R   0.531056 0.622908 0.035569 -0.187352
C65   C     C_R   1.000000 0.104788 1.000000 -0.037888
C66   C     C_R   0.500000 0.604788 0.000001 -0.037892
C67   C     C_3   0.003821 0.957275 0.228867 0.802661
C68   C     C_1   0.498964 0.497546 0.836127 0.091667
C69   C     C_3   0.996190 0.957274 0.771145 0.802660
C70   C     C_3   0.503820 0.457275 0.228865 0.802661
C71   C     C_3   0.496178 0.457275 0.771133 0.802661
C72   C     C_R   1.000000 0.176472 0.999999 0.130213
C73   C     C_R   0.500000 0.676473 0.000004 0.130206
C74   C     C_R   0.476107 0.122440 0.000834 0.423885
C75   C     C_R   0.523890 0.122440 0.999163 0.423892
C76   C     C_R   0.976108 0.622440 0.000834 0.423886
C77   C     C_R   0.023892 0.622440 0.999166 0.423884
C78   C     C_R   0.476482 0.158272 0.001339 -0.266306
C79   C     C_1   0.999673 0.999046 0.336751 0.073319
C80   C     C_R   0.523515 0.158273 0.998657 -0.266310
C81   C     C_R   0.976483 0.658273 0.001339 -0.266304
C82   C     C_R   0.023518 0.658272 0.998661 -0.266304
C83   C     C_R   0.499998 0.176370 0.999998 -0.027655
C84   C     C_R   0.000000 0.676370 0.000000 -0.027654
C85   C     C_R   0.499999 0.104470 0.999999 -0.272124
C86   C     C_R   1.000000 0.604469 1.000000 -0.272127
C87   C     C_R   0.504933 0.232315 0.967345 -0.179435
C88   C     C_R   0.495063 0.232315 0.032651 -0.179435
C89   C     C_R   0.004937 0.732315 0.967349 -0.179434
C90   C     C_1   0.000327 0.999046 0.663249 0.073318
C91   C     C_R   0.995064 0.732315 0.032652 -0.179434
C92   C     C_R   0.005195 0.768064 0.967685 -0.190526
C93   C     C_R   0.994806 0.768064 0.032316 -0.190525
C94   C     C_R   0.505192 0.268064 0.967682 -0.190527
C95   C     C_R   0.494805 0.268064 0.032315 -0.190527
C96   C     C_R   0.000000 0.786002 0.000000 0.102620
C97   C     C_R   0.499999 0.286002 0.999999 0.102621
C98   C     C_R   0.499998 0.214161 0.999998 0.166204
C99   C     C_R   0.000001 0.714160 0.000000 0.166204
C100  C     C_R   0.972065 0.841459 0.988894 -0.174380
C101  C     C_1   0.499673 0.499046 0.336751 0.073319
C102  C     C_R   0.027935 0.841459 0.011106 -0.174383
C103  C     C_R   0.472065 0.341459 0.988895 -0.174384
C104  C     C_R   0.527934 0.341458 0.011105 -0.174382
C105  C     C_1   0.000482 0.998919 0.125860 -0.198824
C106  C     C_1   0.999518 0.998919 0.874140 -0.198822
C107  C     C_1   0.500482 0.498919 0.125860 -0.198823
C108  C     C_1   0.499518 0.498919 0.874140 -0.198824
C109  C     C_R   0.971917 0.877212 0.988404 -0.193410
C110  C     C_R   0.028084 0.877212 0.011596 -0.193414
C111  C     C_R   0.471916 0.377212 0.988405 -0.193408
C112  C     C_R   0.932928 0.000021 0.433460 0.882816
C113  C     C_1   0.500326 0.499046 0.663248 0.073319
C114  C     C_R   0.528083 0.377211 0.011595 -0.193409
C115  C     C_R   0.000000 0.895222 0.000000 -0.033102
C116  C     C_R   0.500000 0.395222 0.000000 -0.033103
C117  C     C_R   0.000000 0.823515 0.000000 0.111782
C118  C     C_R   0.499999 0.323514 0.000000 0.111781
C119  C     C_3   0.999596 0.997744 0.290865 -0.042573
C120  C     C_3   0.000404 0.997744 0.709135 -0.042570
C121  C     C_3   0.499597 0.497744 0.290865 -0.042572
C122  C     C_3   0.500403 0.497744 0.709135 -0.042572
C123  C     C_3   0.033393 0.015632 0.259256 -0.583363
C124  C     C_1   0.999804 0.999785 0.374346 -0.167959
C125  C     C_3   0.966602 0.015623 0.740740 -0.583362
C126  C     C_3   0.533394 0.515631 0.259256 -0.583363
C127  C     C_3   0.466607 0.515633 0.740745 -0.583362
C128  C     C_3   0.001364 0.995880 0.209891 -0.003026
C129  C     C_3   0.998637 0.995879 0.790109 -0.003027
C130  C     C_3   0.501364 0.495879 0.209891 -0.003027
C131  C     C_3   0.498636 0.495879 0.790108 -0.003027
C132  C     C_3   0.396867 0.940608 0.963987 0.108790
C133  C     C_3   0.418961 0.927802 0.022381 -0.783949
C134  C     C_3   0.603173 0.940639 0.035982 0.108703
C135  C     C_1   0.000196 0.999784 0.625654 -0.167965
C136  C     C_3   0.581022 0.927858 0.977570 -0.783960
C137  C     C_3   0.896875 0.440589 0.963963 0.108768
C138  C     C_3   0.918972 0.427772 0.022351 -0.783918
C139  C     C_3   0.103122 0.440582 0.036047 0.108767
C140  C     C_3   0.081027 0.427760 0.977662 -0.783918
C141  C     C_1   0.324787 0.019294 0.747536 0.240073
C142  C     C_1   0.675213 0.019257 0.252480 0.240069
C143  C     C_1   0.824786 0.519310 0.747544 0.240083
C144  C     C_1   0.175214 0.519318 0.252452 0.240084
C145  C     C_3   0.290971 0.080334 0.812017 0.090451
C146  C     C_1   0.499804 0.499785 0.374346 -0.167959
C147  C     C_3   0.309760 0.113873 0.822062 -0.810385
C148  C     C_3   0.709028 0.080343 0.188036 0.090467
C149  C     C_3   0.690228 0.113873 0.178000 -0.810397
C150  C     C_3   0.790970 0.580332 0.812035 0.090445
C151  C     C_3   0.809755 0.613874 0.822082 -0.810381
C152  C     C_3   0.209029 0.580331 0.187952 0.090443
C153  C     C_3   0.190246 0.613875 0.177904 -0.810380
C154  C     C_3   0.210987 0.938244 0.771648 0.085373
C155  C     C_3   0.188485 0.907261 0.758698 -0.783677
C156  C     C_3   0.789011 0.938267 0.228317 0.085372
C157  C     C_1   0.500196 0.499785 0.625653 -0.167959
C158  C     C_3   0.811515 0.907290 0.241250 -0.783685
C159  C     C_3   0.710986 0.438239 0.771642 0.085375
C160  C     C_3   0.688486 0.407254 0.758689 -0.783685
C161  C     C_3   0.289013 0.438235 0.228363 0.085375
C162  C     C_3   0.311514 0.407249 0.241320 -0.783685
C163  C     C_3   0.076801 0.984371 0.376881 0.117185
C164  C     C_3   0.114629 0.987559 0.426509 -0.784700
C165  C     C_3   0.923204 0.984350 0.623123 0.117185
C166  C     C_3   0.885374 0.987529 0.573493 -0.784701
C167  C     C_3   0.576800 0.484368 0.376880 0.117184
C168  C     C_R   0.376343 0.988316 0.911035 0.471269
C169  C     C_3   0.614629 0.487555 0.426508 -0.784695
C170  C     C_3   0.423199 0.484372 0.623119 0.117183
C171  C     C_3   0.385370 0.487560 0.573492 -0.784694
C172  C     C_1   0.177100 0.965536 0.610385 0.227037
C173  C     C_1   0.822900 0.965520 0.389604 0.227020
C174  C     C_1   0.677102 0.465540 0.610388 0.227043
C175  C     C_1   0.322898 0.465544 0.389614 0.227045
C176  C     C_1   0.103618 0.962810 0.538420 0.177535
C177  C     C_1   0.896382 0.962796 0.461571 0.177548
C178  C     C_1   0.603619 0.462812 0.538421 0.177532
C179  C     C_R   0.623658 0.988336 0.088957 0.471274
C180  C     C_1   0.396381 0.462815 0.461581 0.177530
C181  C     C_1   0.175273 0.039581 0.736084 0.125794
C182  C     C_1   0.824726 0.039600 0.263934 0.125790
C183  C     C_1   0.675272 0.539578 0.736090 0.125793
C184  C     C_1   0.324728 0.539575 0.263906 0.125795
C185  C     C_1   0.556795 0.895607 0.093126 0.224672
C186  C     C_1   0.443209 0.895605 0.906870 0.224608
C187  C     C_1   0.056768 0.395604 0.093163 0.224652
C188  C     C_1   0.943232 0.395605 0.906838 0.224656
C189  C     C_3   0.580004 0.817417 0.080511 0.107479
C190  C     C_R   0.876344 0.488307 0.911033 0.471283
C191  C     C_3   0.609475 0.795738 0.127045 -0.789910
C192  C     C_3   0.419997 0.817419 0.919494 0.107477
C193  C     C_3   0.390525 0.795741 0.872961 -0.789909
C194  C     C_3   0.080004 0.317418 0.080592 0.107469
C195  C     C_3   0.109463 0.295739 0.127144 -0.789895
C196  C     C_3   0.919996 0.317418 0.919407 0.107473
C197  C     C_3   0.890536 0.295739 0.872855 -0.789898
C198  C     C_1   0.006782 0.214393 0.084603 0.165764
C199  C     C_1   0.993218 0.214393 0.915395 0.165765
C200  C     C_1   0.506846 0.714395 0.084665 0.165748
C201  C     C_R   0.123656 0.488304 0.088968 0.471289
C202  C     C_1   0.493154 0.714394 0.915343 0.165749
C203  C     C_1   0.970838 0.939934 0.263143 0.139107
C204  C     C_1   0.029178 0.939941 0.736873 0.139104
C205  C     C_1   0.470836 0.439935 0.263141 0.139106
C206  C     C_1   0.529161 0.439933 0.736856 0.139106
C207  C     C_3   0.422964 0.098244 0.949961 0.092318
C208  C     C_3   0.397620 0.079293 0.952505 -0.776602
C209  C     C_3   0.577036 0.098247 0.050037 0.092289
C210  C     C_3   0.602380 0.079299 0.047493 -0.776570
C211  C     C_3   0.922964 0.598244 0.949958 0.092328
C212  C     C_R   0.340592 0.990116 0.874529 -0.318678
C213  C     C_3   0.897621 0.579292 0.952501 -0.776623
C214  C     C_3   0.077036 0.598243 0.050041 0.092335
C215  C     C_3   0.102379 0.579291 0.047498 -0.776630
C216  C     C_3   0.043200 0.931694 0.218258 0.121618
C217  C     C_3   0.075740 0.948187 0.233653 -0.878984
C218  C     C_3   0.956817 0.931682 0.781760 0.121615
C219  C     C_3   0.924273 0.948167 0.766360 -0.878990
C220  C     C_3   0.543198 0.431692 0.218255 0.121613
C221  C     C_3   0.575738 0.448184 0.233651 -0.878986
C222  C     C_3   0.456799 0.431694 0.781742 0.121614
C223  C     C_R   0.567072 0.500021 0.566541 0.882818
C224  C     C_R   0.659409 0.990134 0.125467 -0.318787
C225  C     C_3   0.424260 0.448188 0.766347 -0.878982
C226  C     C_3   0.977946 0.901498 0.191234 0.120229
C227  C     C_3   0.970163 0.881933 0.142996 -0.880461
C228  C     C_3   0.022079 0.901503 0.808793 0.120233
C229  C     C_3   0.029868 0.881940 0.857036 -0.880467
C230  C     C_3   0.477943 0.401498 0.191230 0.120232
C231  C     C_3   0.470158 0.381934 0.142991 -0.880462
C232  C     C_3   0.522053 0.401497 0.808766 0.120229
C233  C     C_3   0.529836 0.381932 0.857004 -0.880462
C234  C     C_3   0.928767 0.056582 0.229881 0.116037
C235  C     C_R   0.840593 0.490108 0.874529 -0.318666
C236  C     C_3   0.926809 0.093803 0.242414 -0.822887
C237  C     C_3   0.071218 0.056600 0.770104 0.116045
C238  C     C_3   0.073166 0.093822 0.757561 -0.822886
C239  C     C_3   0.428769 0.556585 0.229884 0.116043
C240  C     C_3   0.426813 0.593806 0.242418 -0.822889
C241  C     C_3   0.571233 0.556581 0.770118 0.116043
C242  C     C_3   0.573191 0.593802 0.757585 -0.822891
C243  C     C_3   0.970706 0.072349 0.177298 0.231098
C244  C     C_3   0.982586 0.085543 0.146657 -0.884634
C245  C     C_3   0.029274 0.072356 0.822682 0.231099
C246  C     C_R   0.159407 0.490105 0.125472 -0.318659
C247  C     C_3   0.017392 0.085547 0.853319 -0.884629
C248  C     C_3   0.470709 0.572350 0.177301 0.231099
C249  C     C_3   0.482589 0.585543 0.146660 -0.884640
C250  C     C_3   0.529295 0.572348 0.822702 0.231100
C251  C     C_3   0.517415 0.585542 0.853343 -0.884642
C252  C     C_R   0.323177 0.001065 0.820934 0.055224
C253  C     C_R   0.676823 0.001064 0.179069 0.055278
C254  C     C_R   0.823178 0.501066 0.820937 0.055208
C255  C     C_R   0.176822 0.501067 0.179061 0.055202
C256  C     C_R   0.341774 0.010213 0.803422 0.062361
C257  C     C_R   0.658226 0.010195 0.196587 0.062365
C258  C     C_R   0.841774 0.510221 0.803427 0.062358
C259  C     C_R   0.432928 0.500021 0.433459 0.882819
C260  C     C_R   0.158226 0.510226 0.196570 0.062359
C261  C     C_R   0.377557 0.009636 0.840436 -0.326870
C262  C     C_R   0.622443 0.009619 0.159572 -0.326882
C263  C     C_R   0.877557 0.509644 0.840440 -0.326890
C264  C     C_R   0.122443 0.509648 0.159558 -0.326898
C265  C     C_R   0.999968 0.999991 0.418897 0.897524
C266  C     C_R   0.000032 0.999991 0.581103 0.897518
C267  C     C_R   0.499968 0.499991 0.418897 0.897521
C268  C     C_R   0.500032 0.499991 0.581103 0.897521
C269  C     C_R   0.395051 0.999259 0.894413 -0.165480
C270  C     C_3   0.966590 0.012086 0.191534 0.244598
C271  C     C_R   0.604949 0.999261 0.105587 -0.165436
C272  C     C_R   0.895052 0.499259 0.894414 -0.165503
C273  C     C_R   0.104948 0.499259 0.105586 -0.165504
C274  C     C_R   0.267550 0.032867 0.758587 0.495079
C275  C     C_R   0.732449 0.032864 0.241436 0.495081
C276  C     C_R   0.767550 0.532869 0.758597 0.495078
C277  C     C_R   0.232450 0.532871 0.241398 0.495076
C278  C     C_R   0.231733 0.032426 0.721593 -0.321414
C279  C     C_R   0.768267 0.032423 0.278429 -0.321431
C280  C     C_R   0.731733 0.532427 0.721603 -0.321410
C281  C     C_3   0.033407 0.012094 0.808463 0.244598
C282  C     C_R   0.268267 0.532428 0.278392 -0.321406
C283  C     C_R   0.213893 0.001982 0.712237 -0.077202
C284  C     C_R   0.786107 0.001983 0.287767 -0.077192
C285  C     C_R   0.713893 0.501982 0.712243 -0.077207
C286  C     C_R   0.286106 0.501983 0.287756 -0.077207
C287  C     C_R   0.231813 0.971670 0.740228 0.502745
C288  C     C_R   0.768188 0.971675 0.259759 0.502753
C289  C     C_R   0.731814 0.471670 0.740228 0.502743
C290  C     C_R   0.268186 0.471670 0.259774 0.502741
C291  C     C_R   0.267609 0.971649 0.775039 -0.349041
C292  C     C_3   0.466590 0.512087 0.191535 0.244600
C293  C     C_R   0.732392 0.971653 0.224947 -0.349060
C294  C     C_R   0.767609 0.471648 0.775039 -0.349040
C295  C     C_R   0.232391 0.471649 0.224963 -0.349038
C296  C     C_R   0.285545 0.001975 0.783960 -0.060971
C297  C     C_R   0.714455 0.001974 0.216045 -0.060961
C298  C     C_R   0.785545 0.501975 0.783965 -0.060968
C299  C     C_R   0.214454 0.501977 0.216033 -0.060970
C300  C     C_R   0.158373 0.983093 0.624586 0.003004
C301  C     C_R   0.841627 0.983086 0.375411 0.002998
C302  C     C_R   0.658374 0.483094 0.624589 0.003005
C303  C     C_3   0.533410 0.512085 0.808466 0.244600
C304  C     C_R   0.341626 0.483096 0.375412 0.003007
C305  C     C_R   0.122282 0.981849 0.589100 -0.076317
C306  C     C_R   0.877718 0.981843 0.410896 -0.076312
C307  C     C_R   0.622283 0.481851 0.589102 -0.076318
C308  C     C_R   0.377717 0.481853 0.410899 -0.076319
C309  C     C_R   0.104415 0.000196 0.602376 -0.094153
C310  C     C_R   0.895584 0.000196 0.397625 -0.094162
C311  C     C_R   0.604415 0.500196 0.602378 -0.094151
C312  C     C_R   0.395585 0.500196 0.397622 -0.094149
C313  C     C_3   0.030660 0.019412 0.304671 0.335921
C314  C     C_3   0.965760 0.014659 0.239773 0.161766
C315  C     C_3   0.969335 0.019404 0.695323 0.335921
C316  C     C_3   0.530660 0.519411 0.304672 0.335921
C317  C     C_3   0.469340 0.519412 0.695329 0.335922
C318  C     C_R   0.122185 0.019681 0.650026 -0.251166
C319  C     C_R   0.877814 0.019689 0.349982 -0.251169
C320  C     C_R   0.622185 0.519679 0.650029 -0.251168
C321  C     C_R   0.377815 0.519678 0.349969 -0.251168
C322  C     C_R   0.157891 0.020456 0.685950 0.015275
C323  C     C_R   0.842108 0.020465 0.314060 0.015277
C324  C     C_R   0.657891 0.520455 0.685955 0.015274
H1    H     H_    0.057520 0.002295 0.274969 0.242421
H2    H     H_    0.963731 0.041167 0.752942 0.172082
H3    H     H_    0.334101 0.108634 0.829503 0.254074
H4    H     H_    0.293351 0.130983 0.786076 0.261956
H5    H     H_    0.692620 0.064457 0.150371 0.142371
H6    H     H_    0.733648 0.086562 0.196595 0.150440
H7    H     H_    0.706627 0.130977 0.213995 0.261963
H8    H     H_    0.665884 0.108618 0.170546 0.254068
H9    H     H_    0.684141 0.127112 0.141891 0.206636
H10   H     H_    0.807388 0.564438 0.849690 0.142389
H11   H     H_    0.766351 0.586531 0.803491 0.150440
H12   H     H_    0.815845 0.627096 0.858203 0.206639
H13   H     H_    0.536259 0.541175 0.247047 0.172084
H14   H     H_    0.834097 0.608640 0.829520 0.254075
H15   H     H_    0.793344 0.630985 0.786098 0.261955
H16   H     H_    0.192609 0.564435 0.150299 0.142391
H17   H     H_    0.233648 0.586527 0.196494 0.150439
H18   H     H_    0.206659 0.630987 0.213885 0.261954
H19   H     H_    0.165905 0.608645 0.170469 0.254076
H20   H     H_    0.184156 0.627094 0.141780 0.206639
H21   H     H_    0.198563 0.961398 0.773197 0.141505
H22   H     H_    0.236631 0.934191 0.812272 0.137137
H23   H     H_    0.200325 0.883554 0.757584 0.258141
H24   H     H_    0.463743 0.541177 0.752955 0.172083
H25   H     H_    0.185738 0.904321 0.790431 0.203221
H26   H     H_    0.162580 0.910834 0.718546 0.260917
H27   H     H_    0.801432 0.961428 0.226775 0.141503
H28   H     H_    0.763366 0.934218 0.187694 0.137129
H29   H     H_    0.799678 0.883577 0.242356 0.258141
H30   H     H_    0.814259 0.904362 0.209513 0.203219
H31   H     H_    0.837421 0.910860 0.281402 0.260918
H32   H     H_    0.698561 0.461392 0.773192 0.141505
H33   H     H_    0.736630 0.434186 0.812267 0.137139
H34   H     H_    0.700327 0.383549 0.757575 0.258141
H35   H     H_    0.947006 0.991992 0.164924 0.138372
H36   H     H_    0.685737 0.404312 0.790420 0.203222
H37   H     H_    0.662580 0.410828 0.718536 0.260917
H38   H     H_    0.301438 0.461386 0.226810 0.141505
H39   H     H_    0.263369 0.434180 0.187740 0.137139
H40   H     H_    0.299673 0.383545 0.242438 0.258141
H41   H     H_    0.314262 0.404304 0.209589 0.203223
H42   H     H_    0.337419 0.410824 0.281473 0.260918
H43   H     H_    0.075328 0.969328 0.345986 0.186831
H44   H     H_    0.063956 0.970540 0.390052 0.160034
H45   H     H_    0.117453 0.002071 0.459196 0.262881
H46   H     H_    0.052996 0.992006 0.835078 0.138373
H47   H     H_    0.125998 0.961557 0.442045 0.215128
H48   H     H_    0.128742 0.001264 0.415449 0.255239
H49   H     H_    0.924680 0.969308 0.654021 0.186831
H50   H     H_    0.936052 0.970523 0.609955 0.160027
H51   H     H_    0.882547 0.002040 0.540803 0.262881
H52   H     H_    0.874013 0.961524 0.557965 0.215125
H53   H     H_    0.871257 0.001230 0.584550 0.255239
H54   H     H_    0.575327 0.469325 0.345984 0.186831
H55   H     H_    0.563955 0.470537 0.390051 0.160035
H56   H     H_    0.617453 0.502066 0.459195 0.262884
H57   H     H_    0.447005 0.491994 0.164924 0.138373
H58   H     H_    0.625996 0.461552 0.442042 0.215126
H59   H     H_    0.628742 0.501259 0.415448 0.255238
H60   H     H_    0.424672 0.469329 0.654015 0.186831
H61   H     H_    0.436043 0.470540 0.609948 0.160037
H62   H     H_    0.382547 0.502072 0.540805 0.262883
H63   H     H_    0.374001 0.461558 0.557956 0.215127
H64   H     H_    0.371258 0.501266 0.584552 0.255238
H65   H     H_    0.590761 0.842056 0.079232 0.131207
H66   H     H_    0.567841 0.803057 0.041869 0.135630
H67   H     H_    0.599495 0.770765 0.128798 0.256606
H68   H     H_    0.552994 0.491991 0.835076 0.138373
H69   H     H_    0.628373 0.790727 0.120680 0.200189
H70   H     H_    0.622584 0.809522 0.166261 0.262701
H71   H     H_    0.409242 0.842060 0.920772 0.131199
H72   H     H_    0.432159 0.803060 0.958136 0.135631
H73   H     H_    0.400504 0.770766 0.871208 0.256607
H74   H     H_    0.371627 0.790732 0.879325 0.200191
H75   H     H_    0.377417 0.809525 0.833744 0.262700
H76   H     H_    0.090768 0.342058 0.079333 0.131197
H77   H     H_    0.067860 0.303058 0.041955 0.135627
H78   H     H_    0.099476 0.270765 0.128878 0.256605
H79   H     H_    0.326358 0.982684 0.887998 0.161641
H80   H     H_    0.128379 0.290730 0.120817 0.200191
H81   H     H_    0.122553 0.309523 0.166355 0.262700
H82   H     H_    0.909232 0.342058 0.920665 0.131198
H83   H     H_    0.932140 0.303058 0.958043 0.135625
H84   H     H_    0.900524 0.270765 0.871121 0.256605
H85   H     H_    0.871621 0.290730 0.879181 0.200191
H86   H     H_    0.877446 0.309523 0.833643 0.262700
H87   H     H_    0.428552 0.081602 0.927949 0.124380
H88   H     H_    0.410624 0.122547 0.926664 0.136457
H89   H     H_    0.389356 0.096231 0.970368 0.248237
H90   H     H_    0.673644 0.982717 0.111992 0.161611
H91   H     H_    0.374687 0.071553 0.910945 0.205434
H92   H     H_    0.409825 0.055829 0.977962 0.285251
H93   H     H_    0.571449 0.081604 0.072050 0.124383
H94   H     H_    0.589373 0.122552 0.073332 0.136459
H95   H     H_    0.610641 0.096238 0.029627 0.248235
H96   H     H_    0.625315 0.071562 0.089053 0.205418
H97   H     H_    0.590178 0.055835 0.022038 0.285273
H98   H     H_    0.928553 0.581602 0.927948 0.124379
H99   H     H_    0.910624 0.622547 0.926661 0.136457
H100  H     H_    0.889355 0.596229 0.970363 0.248240
H101  H     H_    0.826360 0.482670 0.887996 0.161648
H102  H     H_    0.874688 0.571551 0.910942 0.205442
H103  H     H_    0.909825 0.555829 0.977960 0.285236
H104  H     H_    0.071447 0.581602 0.072052 0.124378
H105  H     H_    0.089376 0.622546 0.073338 0.136456
H106  H     H_    0.110645 0.596228 0.029637 0.248240
H107  H     H_    0.125311 0.571549 0.089058 0.205445
H108  H     H_    0.090174 0.555828 0.022040 0.285232
H109  H     H_    0.021759 0.936259 0.174520 0.172320
H110  H     H_    0.047604 0.903480 0.223686 0.159471
H111  H     H_    0.097505 0.944162 0.277618 0.265577
H112  H     H_    0.942479 0.002279 0.725029 0.242421
H113  H     H_    0.173640 0.482664 0.112005 0.161649
H114  H     H_    0.082270 0.936338 0.209538 0.224711
H115  H     H_    0.071874 0.976172 0.224898 0.251736
H116  H     H_    0.978257 0.936253 0.825496 0.172319
H117  H     H_    0.952421 0.903467 0.776340 0.159472
H118  H     H_    0.902509 0.944136 0.722397 0.265578
H119  H     H_    0.917746 0.936316 0.790478 0.224712
H120  H     H_    0.928132 0.976153 0.775107 0.251736
H121  H     H_    0.521756 0.436258 0.174518 0.172320
H122  H     H_    0.547600 0.403478 0.223682 0.159471
H123  H     H_    0.597503 0.444158 0.277615 0.265577
H124  H     H_    0.391788 0.017383 0.827070 0.183728
H125  H     H_    0.582267 0.436335 0.209535 0.224712
H126  H     H_    0.571873 0.476169 0.224897 0.251738
H127  H     H_    0.478241 0.436259 0.825480 0.172320
H128  H     H_    0.452395 0.403481 0.776314 0.159471
H129  H     H_    0.402494 0.444163 0.722383 0.265577
H130  H     H_    0.417730 0.436339 0.790462 0.224711
H131  H     H_    0.428126 0.476173 0.775102 0.251736
H132  H     H_    0.957143 0.894460 0.192408 0.176816
H133  H     H_    0.002583 0.892242 0.229711 0.156367
H134  H     H_    0.990532 0.885960 0.139733 0.233655
H135  H     H_    0.608212 0.017352 0.172944 0.183743
H136  H     H_    0.968490 0.853954 0.148090 0.216438
H137  H     H_    0.945192 0.890633 0.104638 0.271638
H138  H     H_    0.042885 0.894471 0.807621 0.176816
H139  H     H_    0.997446 0.892241 0.770318 0.156365
H140  H     H_    0.009497 0.885962 0.860297 0.233655
H141  H     H_    0.031548 0.853962 0.851950 0.216438
H142  H     H_    0.054836 0.890646 0.895392 0.271640
H143  H     H_    0.457139 0.394462 0.192404 0.176816
H144  H     H_    0.502579 0.392242 0.229707 0.156365
H145  H     H_    0.490528 0.385960 0.139729 0.233654
H146  H     H_    0.891788 0.517397 0.827076 0.183726
H147  H     H_    0.468484 0.353956 0.148084 0.216438
H148  H     H_    0.445188 0.390635 0.104634 0.271639
H149  H     H_    0.542856 0.394460 0.807592 0.176817
H150  H     H_    0.497416 0.392242 0.770289 0.156366
H151  H     H_    0.509467 0.385960 0.860267 0.233654
H152  H     H_    0.531509 0.353954 0.851910 0.216438
H153  H     H_    0.554807 0.390632 0.895362 0.271639
H154  H     H_    0.921060 0.039874 0.248914 0.141466
H155  H     H_    0.910535 0.052919 0.184934 0.161893
H156  H     H_    0.934084 0.111369 0.223749 0.243239
H157  H     H_    0.108212 0.517404 0.172921 0.183724
H158  H     H_    0.900172 0.099886 0.225724 0.213149
H159  H     H_    0.944556 0.097946 0.287140 0.264357
H160  H     H_    0.078930 0.039894 0.751076 0.141468
H161  H     H_    0.089451 0.052942 0.815052 0.161894
H162  H     H_    0.065887 0.111386 0.776222 0.243238
H163  H     H_    0.099802 0.099912 0.774250 0.213147
H164  H     H_    0.055418 0.097960 0.712834 0.264357
H165  H     H_    0.421061 0.539876 0.248916 0.141467
H166  H     H_    0.410537 0.552922 0.184936 0.161895
H167  H     H_    0.434088 0.611372 0.223753 0.243237
H168  H     H_    0.217818 0.055867 0.700435 0.183651
H169  H     H_    0.400175 0.599890 0.225728 0.213150
H170  H     H_    0.444561 0.597948 0.287144 0.264357
H171  H     H_    0.578940 0.539872 0.751085 0.141467
H172  H     H_    0.589465 0.552917 0.815065 0.161895
H173  H     H_    0.565917 0.611368 0.776251 0.243237
H174  H     H_    0.599829 0.599884 0.774275 0.213150
H175  H     H_    0.555444 0.597945 0.712859 0.264357
H176  H     H_    0.992641 0.072016 0.221192 0.148175
H177  H     H_    0.952094 0.091312 0.171273 0.165072
H178  H     H_    0.960773 0.085626 0.102172 0.273549
H179  H     H_    0.782181 0.055862 0.299601 0.183647
H180  H     H_    0.992509 0.112203 0.159901 0.222706
H181  H     H_    0.003520 0.069156 0.155205 0.246051
H182  H     H_    0.007339 0.072017 0.778788 0.148175
H183  H     H_    0.047882 0.091324 0.828702 0.165072
H184  H     H_    0.039204 0.085636 0.897804 0.273548
H185  H     H_    0.007461 0.112205 0.840069 0.222706
H186  H     H_    0.996461 0.069155 0.844776 0.246049
H187  H     H_    0.492644 0.572016 0.221195 0.148177
H188  H     H_    0.452097 0.591314 0.171277 0.165069
H189  H     H_    0.460776 0.585628 0.102176 0.273545
H190  H     H_    0.717818 0.555869 0.700449 0.183652
H191  H     H_    0.492513 0.612204 0.159905 0.222702
H192  H     H_    0.503523 0.569156 0.155208 0.246054
H193  H     H_    0.507359 0.572015 0.778808 0.148176
H194  H     H_    0.547907 0.591311 0.828727 0.165068
H195  H     H_    0.539228 0.585626 0.897828 0.273545
H196  H     H_    0.507492 0.612203 0.840100 0.222701
H197  H     H_    0.496480 0.569156 0.844795 0.246055
H198  H     H_    0.282182 0.555871 0.299544 0.183653
H199  H     H_    0.281407 0.947927 0.794973 0.177781
H200  H     H_    0.557520 0.502293 0.274969 0.242421
H201  H     H_    0.718594 0.947933 0.204999 0.177770
H202  H     H_    0.781408 0.447926 0.794968 0.177778
H203  H     H_    0.218592 0.447926 0.205036 0.177779
H204  H     H_    0.108079 0.033733 0.659694 0.153488
H205  H     H_    0.891920 0.033746 0.340319 0.153501
H206  H     H_    0.608078 0.533730 0.659697 0.153487
H207  H     H_    0.391923 0.533727 0.340300 0.153484
H208  H     H_    0.505755 0.781985 0.072931 0.165222
H209  H     H_    0.494247 0.781984 0.927076 0.165221
H210  H     H_    0.005698 0.281984 0.072877 0.165206
H211  H     H_    0.442480 0.502295 0.725031 0.242420
H212  H     H_    0.994301 0.281984 0.927121 0.165206
H213  H     H_    0.944948 0.172492 0.936786 0.136487
H214  H     H_    0.055051 0.172492 0.063213 0.136488
H215  H     H_    0.444948 0.672492 0.936799 0.136491
H216  H     H_    0.555052 0.672491 0.063208 0.136490
H217  H     H_    0.944687 0.109505 0.936555 0.159550
H218  H     H_    0.055313 0.109505 0.063444 0.159550
H219  H     H_    0.444686 0.609506 0.936566 0.159553
H220  H     H_    0.555314 0.609505 0.063437 0.159553
H221  H     H_    0.457883 0.171849 0.001738 0.161099
H222  H     H_    0.023532 0.046714 0.302557 0.184050
H223  H     H_    0.542113 0.171851 0.998258 0.161098
H224  H     H_    0.957884 0.671850 0.001738 0.161099
H225  H     H_    0.042116 0.671850 0.998263 0.161099
H226  H     H_    0.508174 0.218906 0.941088 0.139021
H227  H     H_    0.491822 0.218905 0.058908 0.139021
H228  H     H_    0.008178 0.718905 0.941092 0.139021
H229  H     H_    0.991823 0.718905 0.058909 0.139022
H230  H     H_    0.008912 0.781758 0.942163 0.137754
H231  H     H_    0.991089 0.781758 0.057838 0.137755
H232  H     H_    0.508909 0.281759 0.942159 0.137755
H233  H     H_    0.976456 0.046708 0.697430 0.184050
H234  H     H_    0.491089 0.281758 0.057838 0.137755
H235  H     H_    0.950287 0.827771 0.980036 0.136425
H236  H     H_    0.049714 0.827772 0.019964 0.136426
H237  H     H_    0.450286 0.327772 0.980038 0.136427
H238  H     H_    0.549713 0.327771 0.019963 0.136426
H239  H     H_    0.950106 0.890760 0.979635 0.155505
H240  H     H_    0.049894 0.890760 0.020364 0.155505
H241  H     H_    0.450106 0.390761 0.979637 0.155504
H242  H     H_    0.549894 0.390760 0.020364 0.155503
H243  H     H_    0.022723 0.945793 0.311585 0.158211
H244  H     H_    0.523533 0.546713 0.302559 0.184051
H245  H     H_    0.977291 0.945787 0.688429 0.158210
H246  H     H_    0.522721 0.445792 0.311583 0.158210
H247  H     H_    0.477276 0.445793 0.688414 0.158210
H248  H     H_    0.943718 0.998680 0.228937 0.077240
H249  H     H_    0.056282 0.998695 0.771064 0.077242
H250  H     H_    0.443718 0.498683 0.228937 0.077242
H251  H     H_    0.556281 0.498679 0.771062 0.077242
H252  H     H_    0.410005 0.933358 0.947398 0.126987
H253  H     H_    0.371412 0.927523 0.939923 0.131759
H254  H     H_    0.406435 0.933954 0.040171 0.252366
H255  H     H_    0.476469 0.546714 0.697443 0.184050
H256  H     H_    0.422320 0.899494 0.023328 0.192400
H257  H     H_    0.444663 0.940249 0.047136 0.268082
H258  H     H_    0.590101 0.933336 0.052661 0.126938
H259  H     H_    0.628639 0.927584 0.059957 0.131825
H260  H     H_    0.577704 0.899543 0.976613 0.192409
H261  H     H_    0.555306 0.940271 0.952907 0.268103
H262  H     H_    0.593476 0.934071 0.959682 0.252403
H263  H     H_    0.910013 0.433354 0.947371 0.126951
H264  H     H_    0.871422 0.427500 0.939894 0.131760
H265  H     H_    0.906444 0.433906 0.040144 0.252357
H266  H     H_    0.036258 0.041177 0.247046 0.172082
H267  H     H_    0.922338 0.399467 0.023287 0.192399
H268  H     H_    0.944671 0.440227 0.047113 0.268101
H269  H     H_    0.089982 0.433352 0.052639 0.126953
H270  H     H_    0.128575 0.427490 0.060121 0.131760
H271  H     H_    0.077658 0.399455 0.976731 0.192394
H272  H     H_    0.055328 0.440217 0.952896 0.268105
H273  H     H_    0.093557 0.433888 0.959870 0.252355
H274  H     H_    0.307387 0.064441 0.849674 0.142384
H275  H     H_    0.266352 0.086537 0.803470 0.150440
H276  H     H_    0.315849 0.127098 0.858181 0.206638
N1    N     N_1   0.311171 0.026562 0.702764 -0.181470
N2    N     N_1   0.911292 0.947607 0.501987 -0.208650
N3    N     N_1   0.588710 0.447628 0.497999 -0.208669
N4    N     N_1   0.411290 0.447632 0.502004 -0.208672
N5    N     N_1   0.189221 0.054875 0.776240 -0.223293
N6    N     N_1   0.810778 0.054900 0.223784 -0.223294
N7    N     N_1   0.689219 0.554869 0.776247 -0.223296
N8    N     N_1   0.310782 0.554865 0.223748 -0.223295
N9    N     N_1   0.579852 0.910178 0.130913 -0.211302
N10   N     N_1   0.420153 0.910175 0.869080 -0.211306
N11   N     N_1   0.079814 0.410173 0.130966 -0.211267
N12   N     N_1   0.688829 0.026509 0.297257 -0.181469
N13   N     N_1   0.920185 0.410175 0.869035 -0.211265
N14   N     N_1   0.009401 0.200162 0.118983 -0.202253
N15   N     N_1   0.990598 0.200163 0.881015 -0.202255
N16   N     N_1   0.509492 0.700165 0.119068 -0.202245
N17   N     N_1   0.490509 0.700164 0.880940 -0.202244
N18   N     N_1   0.947801 0.925185 0.254299 -0.214860
N19   N     N_1   0.052219 0.925198 0.745721 -0.214861
N20   N     N_1   0.447798 0.425187 0.254297 -0.214860
N21   N     N_1   0.552198 0.425184 0.745699 -0.214859
N22   N     N_1   0.811170 0.526584 0.702774 -0.181470
N23   N     N_1   0.188830 0.526596 0.297221 -0.181470
N24   N     N_1   0.192042 0.951551 0.599065 -0.184103
N25   N     N_1   0.807958 0.951527 0.400918 -0.184101
N26   N     N_1   0.692044 0.451556 0.599067 -0.184106
N27   N     N_1   0.307956 0.451561 0.400936 -0.184107
N28   N     N_1   0.088708 0.947625 0.497999 -0.208665
O1    O     O_R   0.050910 0.028750 0.550890 -0.619043
O2    O     O_R   0.550900 0.000010 0.016230 -0.575196
O3    O     O_R   0.949100 0.500010 0.983770 -0.575229
O4    O     O_R   0.050900 0.500010 0.016230 -0.575231
O5    O     O_R   0.500000 0.050850 0.965250 -0.593022
O6    O     O_R   0.500000 0.050850 0.034750 -0.593024
O7    O     O_R   0.000000 0.550850 0.965250 -0.593027
O8    O     O_R   1.000000 0.550850 0.034750 -0.593025
O9    O     O_R   0.050920 0.971260 0.550870 -0.611456
O10   O     O_R   0.949080 0.971260 0.449130 -0.611455
O11   O     O_R   0.550920 0.471260 0.550870 -0.611457
O12   O     O_R   0.949090 0.028750 0.449110 -0.619046
O13   O     O_R   0.449080 0.471260 0.449130 -0.611456
O14   O     O_R   0.000000 0.028750 0.438570 -0.612064
O15   O     O_R   0.000000 0.028750 0.561430 -0.612064
O16   O     O_R   0.500000 0.528750 0.438570 -0.612064
O17   O     O_R   0.500000 0.528750 0.561430 -0.612063
O18   O     O_R   0.000010 0.971260 0.438550 -0.610927
O19   O     O_R   0.999990 0.971260 0.561450 -0.610927
O20   O     O_R   0.500010 0.471260 0.438550 -0.610928
O21   O     O_R   0.499990 0.471260 0.561450 -0.610927
O22   O     O_R   0.028750 0.050810 0.028750 -0.623994
O23   O     O_R   0.550910 0.528750 0.550890 -0.619042
O24   O     O_R   0.971250 0.050810 0.971250 -0.623995
O25   O     O_R   0.528750 0.550810 0.028750 -0.623995
O26   O     O_R   0.471250 0.550810 0.971250 -0.623995
O27   O     O_R   0.028750 0.999900 0.090150 -0.621829
O28   O     O_R   0.971250 0.999900 0.909850 -0.621827
O29   O     O_R   0.528750 0.499900 0.090150 -0.621828
O30   O     O_R   0.471250 0.499900 0.909850 -0.621827
O31   O     O_R   0.971270 0.999910 0.032690 -0.600744
O32   O     O_R   0.028730 0.999910 0.967310 -0.600744
O33   O     O_R   0.471270 0.499910 0.032690 -0.600746
O34   O     O_R   0.449090 0.528750 0.449110 -0.619042
O35   O     O_R   0.528730 0.499910 0.967310 -0.600745
O36   O     O_R   0.028740 0.948980 0.028680 -0.623381
O37   O     O_R   0.971260 0.948980 0.971320 -0.623379
O38   O     O_R   0.528740 0.448980 0.028680 -0.623380
O39   O     O_R   0.471260 0.448980 0.971320 -0.623380
O40   O     O_R   0.500020 0.949020 0.965360 -0.622669
O41   O     O_R   0.499980 0.949020 0.034640 -0.622628
O42   O     O_R   0.000020 0.449020 0.965360 -0.622625
O43   O     O_R   0.999980 0.449020 0.034640 -0.622624
O44   O     O_3   0.392791 0.976615 0.963303 -0.596373
O45   O     O_R   0.449100 0.999940 0.914410 -0.632307
O46   O     O_3   0.607208 0.976655 0.036680 -0.596369
O47   O     O_3   0.892792 0.476594 0.963295 -0.596364
O48   O     O_3   0.107207 0.476586 0.036709 -0.596363
O49   O     O_3   0.284779 0.063176 0.767499 -0.603959
O50   O     O_3   0.715220 0.063168 0.232543 -0.603958
O51   O     O_3   0.784778 0.563178 0.767514 -0.603962
O52   O     O_3   0.215222 0.563181 0.232477 -0.603962
O53   O     O_3   0.214274 0.941551 0.731048 -0.600765
O54   O     O_3   0.785727 0.941560 0.268923 -0.600764
O55   O     O_3   0.714275 0.441549 0.731044 -0.600769
O56   O     O_R   0.550900 0.999940 0.085590 -0.632327
O57   O     O_3   0.285724 0.441549 0.268961 -0.600769
O58   O     O_3   0.062781 0.017650 0.358608 -0.599052
O59   O     O_3   0.937214 0.017633 0.641387 -0.599053
O60   O     O_3   0.562782 0.517648 0.358608 -0.599051
O61   O     O_3   0.437219 0.517651 0.641392 -0.599052
O62   O     O_3   0.556296 0.823631 0.089334 -0.596299
O63   O     O_3   0.443705 0.823630 0.910671 -0.596295
O64   O     O_3   0.056272 0.323628 0.089367 -0.596290
O65   O     O_3   0.943727 0.323629 0.910632 -0.596291
O66   O     O_3   0.453215 0.105175 0.003458 -0.585993
O67   O     O_R   0.949100 0.499940 0.914410 -0.632302
O68   O     O_3   0.546783 0.105176 0.996539 -0.585991
O69   O     O_3   0.953215 0.605176 0.003456 -0.585994
O70   O     O_3   0.046786 0.605175 0.996543 -0.585994
O71   O     O_3   0.037288 0.943214 0.253945 -0.679954
O72   O     O_3   0.962726 0.943204 0.746070 -0.679953
O73   O     O_3   0.537286 0.443213 0.253943 -0.679955
O74   O     O_3   0.462711 0.443215 0.746055 -0.679955
O75   O     O_3   0.976669 0.937567 0.182359 -0.665082
O76   O     O_3   0.023347 0.937573 0.817658 -0.665080
O77   O     O_3   0.476666 0.437568 0.182356 -0.665082
O78   O     O_R   0.050900 0.499940 0.085590 -0.632300
O79   O     O_3   0.523331 0.437567 0.817641 -0.665082
O80   O     O_3   0.962782 0.049099 0.251496 -0.622134
O81   O     O_3   0.037205 0.049109 0.748490 -0.622136
O82   O     O_3   0.462784 0.549101 0.251499 -0.622136
O83   O     O_3   0.537218 0.549098 0.748503 -0.622136
O84   O     O_3   0.953243 0.040651 0.154964 -0.601306
O85   O     O_3   0.046746 0.040663 0.845025 -0.601306
O86   O     O_3   0.453244 0.540653 0.154966 -0.601306
O87   O     O_3   0.546757 0.540650 0.845036 -0.601306
O88   O     O_R   0.449100 0.000010 0.983770 -0.575227
Zn1   Zn    Zn3+2 0.000000 0.038390 0.500000 0.980854
Zn2   Zn    Zn3+2 0.499990 0.999930 0.046330 0.999102
Zn3   Zn    Zn3+2 0.000010 0.499930 0.953670 0.999117
Zn4   Zn    Zn3+2 0.999990 0.499930 0.046330 0.999116
Zn5   Zn    Zn3+2 0.500000 0.538390 0.500000 0.980859
Zn6   Zn    Zn3+2 0.000000 0.961620 0.500000 0.997159
Zn7   Zn    Zn3+2 0.500000 0.461620 0.500000 0.997154
Zn8   Zn    Zn3+2 0.038390 0.999890 0.038360 0.965019
Zn9   Zn    Zn3+2 0.961610 0.999890 0.961640 0.965019
Zn10  Zn    Zn3+2 0.538390 0.499890 0.038360 0.965019
Zn11  Zn    Zn3+2 0.461610 0.499890 0.961640 0.965018
Zn12  Zn    Zn3+2 0.500010 0.999930 0.953670 0.999091

loop_
_geom_bond_atom_site_label_1
_geom_bond_atom_site_label_2
_ccdc_geom_bond_type
C29   C42   A    
C258  C263  A    
O6    Zn2   S    
C30   H243  S    
C260  C264  A    
C162  H40   S    
C46   C129  S    
O37   Zn9   S    
C242  H175  S    
C152  H16   S    
O23   Zn5   S    
C306  C310  A    
C89   C99   A    
C182  N6    T    
C153  H18   S    
C138  H265  S    
C1    O9    A    
O26   Zn11  S    
C294  C298  A    
C261  C269  A    
C268  O17   A    
C221  H123  S    
C139  H270  S    
C180  C308  S    
C26   C185  S    
C67   O75   S    
C11   O32   A    
C166  H53   S    
C246  C255  A    
C174  N26   T    
C181  N5    T    
C312  C321  A    
C87   C94   A    
C4    C283  S    
C165  H49   S    
C183  N7    T    
C276  O51   S    
C288  O54   S    
C280  C285  A    
C262  C271  A    
C277  C299  A    
C211  H99   S    
C197  H85   S    
C113  C122  S    
C276  C280  A    
C24   O83   S    
C249  H189  S    
C56   C72   A    
C191  H67   S    
C174  C302  S    
C80   H223  S    
C148  H5    S    
C182  C323  S    
C229  H140  S    
C193  H73   S    
C3    C184  S    
C59   C73   A    
C237  O81   S    
C156  H28   S    
C10   O31   A    
C233  H152  S    
C100  H235  S    
O36   Zn8   S    
C88   C95   A    
C100  C109  A    
C239  O82   S    
O8    Zn4   S    
C318  C322  A    
C77   O70   S    
C143  C258  S    
C234  C236  S    
C125  H112  S    
C80   C83   A    
C75   O68   S    
C159  H33   S    
C126  C316  S    
C228  C229  S    
C244  H178  S    
C201  O48   S    
C33   C206  S    
C191  H70   S    
C319  C323  A    
C50   C53   A    
C13   O82   S    
C188  N13   T    
C231  H147  S    
C111  H241  S    
C235  C254  A    
C45   H210  S    
C28   C187  S    
C219  H119  S    
C268  O21   A    
C295  C299  A    
C94   C97   A    
C320  H206  S    
C225  H130  S    
C205  N20   T    
C221  H125  S    
C290  C295  A    
C64   C66   A    
C12   O29   A    
C68   C131  S    
O34   Zn5   S    
C155  H23   S    
C52   C72   S    
C152  H17   S    
C57   C130  S    
C43   C54   A    
C71   O79   S    
C213  H102  S    
C170  H60   S    
C264  H157  S    
C40   C55   S    
C267  O16   A    
C132  O44   S    
C265  O14   A    
C216  C217  S    
C25   O7    A    
C69   O72   S    
C230  H144  S    
C208  H89   S    
C234  H154  S    
C278  H168  S    
C239  H165  S    
O45   Zn12  S    
C82   C84   A    
C217  H111  S    
C192  H72   S    
C227  H136  S    
C15   C115  S    
C314  H248  S    
C243  H176  S    
C178  N3    T    
C241  H171  S    
C242  H173  S    
C150  H10   S    
C184  N8    T    
C195  H80   S    
C225  H131  S    
C266  O15   A    
C250  H194  S    
C234  O80   S    
O4    Zn3   S    
C128  C270  S    
C32   C121  S    
C228  H139  S    
C153  H20   S    
O16   Zn5   S    
C190  O47   S    
C261  H124  S    
C190  C272  A    
C196  C197  S    
C250  O87   S    
C189  H66   S    
C9    O26   A    
C95   C97   A    
C61   H217  S    
C226  H133  S    
C59   C63   A    
C29   C188  S    
C60   C64   A    
C64   H220  S    
O56   Zn2   S    
C241  O83   S    
C216  H109  S    
C7    C286  S    
C159  H32   S    
C215  H108  S    
C126  H200  S    
C77   C82   A    
C249  H191  S    
C156  C158  S    
C171  H64   S    
C274  O49   S    
C291  C296  A    
C10   O27   A    
C245  H183  S    
C146  C267  S    
C193  H75   S    
C127  C131  S    
C31   C120  S    
C160  H34   S    
C194  H76   S    
C33   C71   S    
C158  H30   S    
C164  H48   S    
C125  C129  S    
C48   C52   A    
O19   Zn6   S    
C140  H272  S    
C69   C129  S    
C22   O78   A    
C190  C235  A    
C287  O53   S    
C113  C157  T    
C168  C269  A    
C251  H196  S    
C5    C301  A    
C104  H238  S    
C161  H38   S    
C244  H180  S    
C21   C272  S    
C201  C273  A    
C167  O60   S    
C67   O71   S    
C300  C305  A    
C38   C40   A    
C277  C282  A    
C137  H264  S    
C303  H68   S    
C154  H22   S    
C2    O81   S    
C149  H7    S    
C292  H57   S    
C207  O66   S    
C32   H246  S    
C158  H29   S    
C20   O2    A    
C303  O87   S    
O43   Zn4   S    
C19   C269  S    
C145  O49   S    
C22   O4    A    
C38   O65   S    
C159  O55   S    
C35   C105  T    
C247  H185  S    
C131  C303  S    
C139  O48   S    
C236  H159  S    
C232  O79   S    
C127  H24   S    
C37   C40   A    
C18   C42   S    
C134  H259  S    
C316  O60   S    
C39   C54   S    
C170  C171  S    
O20   Zn7   S    
C285  C289  A    
C92   C96   A    
C161  O57   S    
C47   H212  S    
C8    O22   A    
C241  C242  S    
C309  C318  A    
C162  H41   S    
C138  H268  S    
C232  C233  S    
C208  H91   S    
C200  N16   T    
C259  O13   A    
C24   C303  S    
C319  H205  S    
C163  H44   S    
C83   C98   S    
C29   C38   A    
C248  H188  S    
C151  H14   S    
C253  C297  S    
C169  H59   S    
C112  O10   A    
C30   C67   S    
C51   C202  S    
C110  H240  S    
C195  H78   S    
C136  H262  S    
C183  C324  S    
C8    C65   S    
C33   H247  S    
C290  O57   S    
C237  C238  S    
C279  H179  S    
C230  C231  S    
C167  H54   S    
C238  H164  S    
C172  N24   T    
C220  C221  S    
C152  O52   S    
C95   H234  S    
C218  H116  S    
C204  N19   T    
C240  H170  S    
C139  C140  S    
C180  N4    T    
C208  H92   S    
C170  O61   S    
C102  H236  S    
C34   C39   A    
C263  H146  S    
O5    Zn12  S    
C96   C117  S    
C6    C285  S    
C235  H101  S    
C215  H106  S    
C2    C120  S    
C32   C70   S    
C222  C225  S    
C145  H275  S    
C213  H100  S    
C171  H62   S    
C154  O53   S    
C48   C198  S    
C51   C53   A    
C90   C120  S    
C198  N14   T    
O40   Zn12  S    
C18   O42   A    
C218  H117  S    
C61   C65   A    
C229  H142  S    
C240  H167  S    
C13   C121  S    
C259  C312  S    
C132  H252  S    
C226  H132  S    
C166  H52   S    
C209  C210  S    
C119  C314  S    
O7    Zn3   S    
C247  H184  S    
C277  O52   S    
C20   C271  S    
C31   C204  S    
C228  O76   S    
C102  C117  A    
O38   Zn10  S    
C245  O85   S    
O11   Zn7   S    
C20   O56   A    
O88   Zn2   S    
C24   H251  S    
C315  O59   S    
C278  C283  A    
C74   C78   A    
C33   C122  S    
C232  H149  S    
C34   O62   S    
C207  H87   S    
C173  N25   T    
C248  O86   S    
C203  N18   T    
C49   C199  S    
C157  C268  S    
C255  C260  A    
C136  H261  S    
C150  H11   S    
C211  C213  S    
C141  C256  S    
C147  H3    S    
C12   O33   A    
C36   C39   A    
C234  H155  S    
C243  H177  S    
C192  H71   S    
O25   Zn10  S    
C114  C116  A    
O9    Zn6   S    
C43   C50   A    
C100  C117  A    
C179  C271  A    
C195  H81   S    
C4    C300  A    
C79   C124  T    
C186  N10   T    
C179  C224  A    
C8    O24   A    
C265  O18   A    
C88   H227  S    
C6    C324  A    
C189  H65   S    
C262  H135  S    
C247  H186  S    
C67   C128  S    
C139  H269  S    
C90   C135  T    
C3    C321  A    
C292  O86   S    
C28   C37   A    
C222  H128  S    
C150  O51   S    
C46   C106  T    
O67   Zn3   S    
C160  H37   S    
C74   C85   A    
C132  H253  S    
C162  H42   S    
C112  O12   A    
C210  H95   S    
C76   O69   S    
C71   C131  S    
C275  C297  A    
C31   C69   S    
C152  C153  S    
C45   C55   A    
C13   C292  S    
C226  C227  S    
O31   Zn9   S    
C150  C151  S    
C226  O75   S    
C194  H77   S    
C43   H208  S    
C238  H162  S    
C91   C99   A    
C168  O44   S    
C88   C98   A    
C308  C312  A    
C70   O73   S    
C318  H204  S    
C233  H151  S    
C58   C62   A    
C62   H218  S    
O18   Zn6   S    
C223  O11   A    
C321  H207  S    
C5    C284  S    
C217  H115  S    
C223  O23   A    
C239  C240  S    
C253  C257  A    
C161  C162  S    
C121  C316  S    
C30   C203  S    
C191  H69   S    
C82   H225  S    
O42   Zn3   S    
C320  C324  A    
C93   C96   A    
C3    C7    A    
O1    Zn1   S    
C231  H148  S    
C126  C130  S    
C243  C244  S    
C225  H129  S    
C124  C265  S    
C70   C130  S    
O17   Zn5   S    
C78   H221  S    
C103  C111  A    
C177  C306  S    
C274  C296  A    
C220  H122  S    
C155  H26   S    
C6    C302  A    
C209  O68   S    
C145  C147  S    
C114  H242  S    
C78   C83   A    
C75   C85   A    
C163  C164  S    
C79   C119  S    
C123  C313  S    
C135  C266  S    
C89   H228  S    
C111  C116  A    
C212  C252  A    
C17   O41   A    
C11   O28   A    
O30   Zn11  S    
C87   C98   A    
C14   C108  S    
C194  C195  S    
C63   C66   A    
C252  C296  S    
C256  C261  A    
C2    H249  S    
C151  H15   S    
C176  N28   T    
C156  H27   S    
C16   C116  S    
C169  H56   S    
C314  O80   S    
C242  H174  S    
C224  C253  A    
C104  C118  A    
C125  C315  S    
C286  C290  A    
C283  C287  A    
C207  C208  S    
C153  H19   S    
C167  H55   S    
C220  H121  S    
C23   O5    A    
C222  H127  S    
C212  H79   S    
C137  O47   S    
C9    O25   A    
C93   H231  S    
C141  N1    T    
C250  C251  S    
C302  C307  A    
C216  O71   S    
C101  C121  S    
C165  H50   S    
C257  C262  A    
C133  H254  S    
C142  C257  S    
C275  C279  A    
C245  H182  S    
C317  O61   S    
C254  C298  S    
C151  H12   S    
C91   C93   A    
C215  H107  S    
C276  C298  A    
C197  H86   S    
C284  C288  A    
C5    C323  A    
C49   C52   A    
C123  H266  S    
C11   C106  S    
C24   C122  S    
C196  H83   S    
C1    O1    A    
C288  C293  A    
C202  N17   T    
O39   Zn11  S    
C193  H74   S    
C294  H202  S    
C147  H4    S    
C213  H103  S    
C236  H158  S    
C233  H153  S    
C164  H45   S    
C206  N21   T    
C245  C247  S    
C196  O65   S    
C246  H113  S    
C103  C118  A    
O12   Zn1   S    
C76   C86   A    
C187  N11   T    
C248  C249  S    
C209  H94   S    
C45   C48   A    
C21   O67   A    
C192  O63   S    
C1    C309  S    
C112  C310  S    
C201  C246  A    
C137  H263  S    
C84   C99   S    
C158  H31   S    
O41   Zn2   S    
C12   C107  S    
C219  H120  S    
C60   H216  S    
C74   O66   S    
C27   C36   A    
C165  O59   S    
O78   Zn4   S    
C14   O30   A    
C289  C294  A    
C63   H219  S    
C177  N2    T    
C94   H232  S    
O32   Zn8   S    
C178  C307  S    
C281  H46   S    
C175  N27   T    
C181  C322  S    
C31   H245  S    
C270  H35   S    
C127  C317  S    
C301  C306  A    
C214  H104  S    
O22   Zn8   S    
C176  C305  S    
C307  C311  A    
C317  H255  S    
C293  C297  A    
C35   C128  S    
C236  H156  S    
C25   O8    A    
C230  H143  S    
C15   O37   A    
C87   H226  S    
C148  H6    S    
O29   Zn10  S    
C134  O46   S    
C239  H166  S    
C163  H43   S    
C220  O73   S    
C310  C319  A    
C130  C292  S    
C56   C61   A    
C133  H257  S    
C32   C205  S    
C163  O58   S    
C270  O84   S    
C169  H58   S    
C241  H172  S    
C313  H222  S    
C56   H213  S    
C315  H233  S    
C172  C300  S    
C250  H193  S    
C165  C166  S    
C173  C301  S    
C148  O50   S    
C243  O84   S    
C168  C212  A    
C44   H209  S    
C160  H36   S    
C218  C219  S    
C47   C49   A    
C216  H110  S    
C143  N22   T    
C218  O72   S    
O21   Zn7   S    
C133  H256  S    
O28   Zn9   S    
C211  H98   S    
C305  C309  A    
C136  H260  S    
C30   C119  S    
C254  C258  A    
C249  H192  S    
C145  H274  S    
C289  O55   S    
C280  H190  S    
C237  H160  S    
C189  C191  S    
C147  H276  S    
C19   O45   A    
C149  H9    S    
C97   C118  S    
C59   H215  S    
C9    C66   S    
C19   O88   A    
C259  O34   A    
C228  H138  S    
C18   O43   A    
C156  O54   S    
C229  H141  S    
C164  H47   S    
C26   C34   A    
C211  O69   S    
C13   H250  S    
C159  C160  S    
C140  H271  S    
C132  C133  S    
O35   Zn10  S    
C14   O35   A    
C119  C313  S    
O13   Zn7   S    
C75   C80   A    
C109  H239  S    
C161  H39   S    
C222  O74   S    
C252  C256  A    
C185  N9    T    
C7    C304  A    
C214  H105  S    
C267  O20   A    
C311  C320  A    
C154  H21   S    
C4    C322  A    
C167  C169  S    
C149  H8    S    
C232  H150  S    
C36   O63   S    
C293  H201  S    
C60   C73   A    
C69   O76   S    
C171  H63   S    
C15   O36   A    
C219  H118  S    
C295  H203  S    
C23   O6    A    
C17   C41   S    
C227  H134  S    
C223  C311  S    
C2    C281  S    
C270  C314  S    
C81   H224  S    
C101  C146  T    
C313  O58   S    
C120  C315  S    
C148  C149  S    
C179  O46   S    
O10   Zn6   S    
C134  H258  S    
C50   C200  S    
C214  C215  S    
C134  C136  S    
C127  H211  S    
C279  C284  A    
C197  H84   S    
C209  H93   S    
C123  H1    S    
C251  H195  S    
C27   C186  S    
C138  H267  S    
O33   Zn11  S    
C142  N12   T    
C44   C54   A    
C27   C41   A    
C304  C308  A    
C217  H114  S    
C16   O39   A    
C154  C155  S    
C248  H187  S    
C189  O62   S    
C266  O19   A    
C89   C92   A    
C129  C281  S    
C210  H96   S    
O24   Zn9   S    
C104  C114  A    
C44   C51   A    
C263  C272  A    
C57   C107  T    
C77   C86   A    
C282  C286  A    
C170  H61   S    
C281  O85   S    
C264  C273  A    
C287  C291  A    
C196  H82   S    
C238  H163  S    
C91   H229  S    
C255  C299  S    
O15   Zn1   S    
C81   C84   A    
C47   C55   A    
C240  H169  S    
C37   O64   S    
C62   C65   A    
C274  C278  A    
C194  O64   S    
C53   C73   S    
C144  N23   T    
C103  H237  S    
C210  H97   S    
C199  N15   T    
C76   C81   A    
C316  H244  S    
C224  H90   S    
C22   C273  S    
O27   Zn8   S    
O3    Zn4   S    
C275  O50   S    
C58   H214  S    
C137  C138  S    
C251  H197  S    
C175  C304  S    
C192  C193  S    
C21   O3    A    
O14   Zn1   S    
C16   O38   A    
C58   C72   A    
C123  C128  S    
C25   C86   S    
C140  H273  S    
C227  H137  S    
C70   O77   S    
C166  H51   S    
C28   C42   A    
C110  C115  A    
C125  H2    S    
C214  O70   S    
C71   O74   S    
C144  C260  S    
C221  H126  S    
C231  H145  S    
C155  H25   S    
C102  C110  A    
C244  H181  S    
C109  C115  A    
C230  O77   S    
C122  C317  S    
C23   C85   S    
C92   H230  S    
C10   C105  S    
O2    Zn12  S    
C68   C108  T    
C291  H199  S    
C207  H88   S    
C17   O40   A    
C237  H161  S    
C26   C41   A    
C282  H198  S    
C126  H13   S    
