data_mof_unit_47151.cif
_audit_creation_date              2012-10-26T21:24:45-0400
_audit_creation_method            fapswitch 2.2
_symmetry_space_group_name_H-M    P1
_symmetry_Int_Tables_number       1
_space_group_crystal_system       triclinic
_cell_length_a                    9.585371
_cell_length_b                    10.794757
_cell_length_c                    15.387028
_cell_angle_alpha                 89.874201
_cell_angle_beta                  74.393109
_cell_angle_gamma                 89.823716
_cell_volume                      1533.41270093

loop_
_atom_site_label
_atom_site_type_symbol
_atom_type_description
_atom_site_fract_x
_atom_site_fract_y
_atom_site_fract_z
_atom_type_partial_charge
C1    C     C_R   0.000824 0.262574 0.498812 0.544913
C2    C     C_R   0.239393 0.412137 0.049513 0.038331
C3    C     C_R   0.331558 0.469635 0.095718 0.040762
C4    C     C_R   0.918355 0.500296 0.672419 0.537915
C5    C     C_R   0.094522 0.386087 0.094572 -0.146263
C6    C     C_R   0.040601 0.415295 0.185535 -0.149575
C7    C     C_R   0.266802 0.514852 0.182860 -0.096402
C8    C     C_R   0.106159 0.063603 0.525367 0.011817
C9    C     C_R   0.005882 0.129413 0.492384 0.013795
C10   C     C_R   0.916507 0.065276 0.449012 -0.162440
C11   C     C_R   0.917344 0.935932 0.448480 -0.164893
C12   C     C_R   0.679644 0.480920 0.911612 0.016915
C13   C     C_R   0.005099 0.870911 0.492941 0.008876
C14   C     C_R   0.105007 0.936058 0.526273 0.004684
C15   C     C_3   0.130758 0.930341 0.617813 -0.273167
C16   C     C_R   0.000489 0.737529 0.498938 0.545241
C17   C     C_3   0.133512 0.070847 0.616288 -0.269912
C18   C     C_R   0.568653 0.607653 0.510380 0.117492
C19   C     C_R   0.576022 0.392352 0.496229 -0.033182
C20   C     C_R   0.427830 0.392315 0.496504 -0.024536
C21   C     C_R   0.422076 0.607762 0.509389 0.172560
C22   C     C_3   0.443160 0.718474 0.448831 0.143271
C23   C     C_R   0.779843 0.512845 0.960470 0.003724
C24   C     C_3   0.600696 0.718895 0.450955 -0.235488
C25   C     C_R   0.081533 0.497843 0.327837 0.540244
C26   C     C_R   0.873926 0.500985 0.771669 -0.005209
C27   C     C_R   0.126763 0.480467 0.229886 -0.020227
C28   C     C_R   0.926103 0.533056 0.915274 -0.139582
C29   C     C_R   0.973191 0.525802 0.821512 -0.138567
C30   C     C_R   0.728668 0.479147 0.816805 -0.125828
C31   C     C_3   0.424735 0.798281 0.313723 -0.106609
C32   C     C_3   0.638178 0.442700 0.235041 -0.089989
C33   C     C_R   0.533035 0.456100 0.958448 -0.011332
C34   C     C_R   0.483431 0.480441 0.052894 0.037178
C35   C     C_R   0.588422 0.505244 0.101428 0.254317
C36   C     C_R   0.733977 0.524010 0.053856 -0.127997
C37   C     C_R   0.435872 0.403227 0.914071 -0.139133
C38   C     C_R   0.292926 0.379295 0.959459 -0.140427
Cu1   Cu    Cu3+1 0.140670 0.499980 0.500000 0.981806
Cu2   Cu    Cu3+1 0.859330 0.500020 0.500000 0.919523
H1    H     H_    0.812112 0.548734 0.090286 0.111570
H2    H     H_    0.376150 0.304726 0.492133 0.116539
H3    H     H_    0.321522 0.578429 0.216026 0.201708
H4    H     H_    0.379243 0.799622 0.482441 0.087763
H5    H     H_    0.679459 0.699268 0.384771 0.162862
H6    H     H_    0.626572 0.800371 0.487628 0.078410
H7    H     H_    0.933903 0.383848 0.221696 0.107463
H8    H     H_    0.223457 0.335387 0.923476 0.109112
H9    H     H_    0.003969 0.555466 0.952481 0.115085
H10   H     H_    0.086196 0.542849 0.788044 0.126830
H11   H     H_    0.654419 0.465320 0.776233 0.124748
H12   H     H_    0.024964 0.338517 0.060468 0.108817
H13   H     H_    0.469077 0.372525 0.844951 0.106443
H14   H     H_    0.522195 0.856104 0.309931 0.095757
H15   H     H_    0.324255 0.852204 0.343643 0.114749
H16   H     H_    0.425383 0.773931 0.243664 0.145898
H17   H     H_    0.726105 0.502826 0.245192 0.133469
H18   H     H_    0.682552 0.357793 0.196117 0.085950
H19   H     H_    0.573757 0.411991 0.302658 0.163308
H20   H     H_    0.844246 0.114685 0.417643 0.115758
H21   H     H_    0.847953 0.887332 0.415143 0.115773
H22   H     H_    0.036967 0.891437 0.669743 0.137311
H23   H     H_    0.237206 0.888648 0.616862 0.120339
H24   H     H_    0.042075 0.113827 0.667824 0.136166
H25   H     H_    0.242073 0.109875 0.612847 0.127751
H26   H     H_    0.632103 0.304759 0.491509 0.116779
N1    N     N_R   0.648210 0.500930 0.499430 -0.231094
N2    N     N_R   0.352300 0.500890 0.499430 -0.204868
O1    O     O_R   0.118810 0.319640 0.500000 -0.512919
O2    O     O_3   0.547067 0.512285 0.195067 -0.566967
O3    O     O_R   0.881230 0.319680 0.499990 -0.518374
O4    O     O_R   0.055580 0.499970 0.629840 -0.508212
O5    O     O_R   0.818000 0.500010 0.629830 -0.497826
O6    O     O_R   0.118770 0.680320 0.500010 -0.487768
O7    O     O_R   0.881190 0.680360 0.500000 -0.507871
O8    O     O_R   0.182000 0.499990 0.370170 -0.444822
O9    O     O_R   0.944420 0.500030 0.370160 -0.513743
O10   O     O_3   0.426925 0.688193 0.362799 -0.504501

loop_
_geom_bond_atom_site_label_1
_geom_bond_atom_site_label_2
_ccdc_geom_bond_type
C30   H11   S    
Cu2   O3    S    
C18   C21   A    
Cu1   N2    S    
C35   C36   A    
C32   H18   S    
C12   C23   A    
C1    O3    A    
C18   C24   S    
C24   H5    S    
C28   C29   A    
C3    C7    A    
C17   H24   S    
C5    C6    A    
C16   O7    A    
C7    C27   A    
Cu2   O5    S    
C19   H26   S    
C34   C35   A    
Cu1   O6    S    
C25   O9    A    
C22   H4    S    
C19   C20   A    
C35   O2    S    
C8    C9    A    
Cu2   N1    S    
Cu1   O4    S    
C5    H12   S    
C19   N1    A    
C7    H3    S    
C31   H16   S    
C9    C10   A    
C38   H8    S    
C37   H13   S    
C13   C14   A    
C36   H1    S    
C32   H17   S    
C29   H10   S    
C6    H7    S    
C1    C9    S    
C22   O10   S    
Cu1   Cu2   S    
C32   O2    S    
C3    C34   A    
C18   N1    A    
C23   C28   A    
C1    O1    A    
C10   H20   S    
C37   C38   A    
C28   H9    S    
C2    C38   A    
C4    C26   S    
C6    C27   A    
C33   C34   A    
Cu1   O1    S    
Cu1   O8    S    
C4    O5    A    
C26   C30   A    
C21   N2    A    
C16   O6    A    
C2    C5    A    
C4    O4    A    
C31   O10   S    
C15   C17   S    
C8    C14   A    
C12   C30   A    
C14   C15   S    
C20   N2    A    
C11   H21   S    
C20   H2    S    
C25   C27   S    
C17   H25   S    
C8    C17   S    
Cu2   O7    S    
C25   O8    A    
C24   H6    S    
C2    C3    A    
C11   C13   A    
C15   H22   S    
C22   C24   S    
C31   H14   S    
C33   C37   A    
C10   C11   A    
C26   C29   A    
C23   C36   A    
C13   C16   S    
C15   H23   S    
Cu2   O9    S    
C32   H19   S    
C31   H15   S    
C12   C33   A    
C21   C22   S    
