data_mof_unit_58718.cif
_audit_creation_date              2012-12-10T20:02:18-0500
_audit_creation_method            fapswitch 2.2
_symmetry_space_group_name_H-M    P1
_symmetry_Int_Tables_number       1
_space_group_crystal_system       triclinic
_cell_length_a                    10.682524
_cell_length_b                    14.894862
_cell_length_c                    14.159019
_cell_angle_alpha                 90.564978
_cell_angle_beta                  89.931738
_cell_angle_gamma                 89.727019
_cell_volume                      2252.77152974

loop_
_atom_site_label
_atom_site_type_symbol
_atom_type_description
_atom_site_fract_x
_atom_site_fract_y
_atom_site_fract_z
_atom_type_partial_charge
C1    C     C_R   0.501103 0.327736 0.499537 0.867335
C2    C     C_R   0.503497 0.672590 0.500475 0.877012
C3    C     C_R   0.872307 0.494945 0.499750 -0.078471
C4    C     C_R   0.127561 0.503063 0.499690 -0.074898
C5    C     C_R   0.938815 0.447484 0.569174 -0.003312
C6    C     C_R   0.060875 0.549915 0.430051 -0.011709
C7    C     C_R   0.463678 0.089766 0.562908 -0.212026
C8    C     C_R   0.510045 0.909487 0.422677 -0.214922
C9    C     C_R   0.446517 0.181370 0.561653 -0.219916
C10   C     C_R   0.494655 0.817821 0.421058 -0.218169
C11   C     C_R   0.515480 0.232282 0.498661 -0.041051
C12   C     C_R   0.521071 0.768495 0.501759 -0.050171
C13   C     C_R   0.603515 0.192767 0.437961 -0.254238
C14   C     C_R   0.569017 0.810401 0.582895 -0.233823
C15   C     C_R   0.625118 0.100527 0.440168 0.112098
C16   C     C_R   0.588226 0.902814 0.585180 0.111335
C17   C     C_R   0.553755 0.049200 0.504315 0.085692
C18   C     C_R   0.557253 0.952232 0.503431 0.095669
C19   C     C_R   0.442547 0.430532 0.104605 -0.296418
C20   C     C_R   0.599745 0.536976 0.895199 -0.292105
C21   C     C_R   0.443591 0.431931 0.203911 0.013216
C22   C     C_R   0.597750 0.536654 0.795899 0.033552
C23   C     C_R   0.260037 0.502356 0.499943 0.883929
C24   C     C_R   0.739895 0.497273 0.499988 0.872617
C25   C     C_R   0.555506 0.568357 0.205108 0.028140
C26   C     C_R   0.402324 0.463075 0.795141 0.023022
C27   C     C_R   0.556015 0.569834 0.105831 -0.293599
C28   C     C_R   0.400105 0.462608 0.894428 -0.290081
C29   C     C_R   0.499420 0.500088 0.053377 0.135481
C30   C     C_R   0.499761 0.499887 0.946656 0.140763
C31   C     C_R   0.205501 0.751939 0.313897 -0.150307
C32   C     C_R   0.749432 0.261294 0.679407 -0.113472
C33   C     C_R   0.149233 0.697237 0.381289 -0.158161
C34   C     C_R   0.809256 0.314134 0.612055 -0.130423
C35   C     C_R   0.121402 0.607546 0.359086 0.132643
C36   C     C_R   0.877594 0.390065 0.640410 0.138913
C37   C     C_R   0.150268 0.573132 0.268947 -0.103169
C38   C     C_R   0.886703 0.411649 0.736929 -0.165946
C39   C     C_R   0.208524 0.627630 0.202294 -0.129435
C40   C     C_R   0.826146 0.358898 0.803985 -0.138802
C41   C     C_R   0.236064 0.716990 0.224743 -0.121943
C42   C     C_R   0.757291 0.283933 0.775223 -0.104652
C43   C     C_R   0.932584 0.545135 0.430773 -0.250168
C44   C     C_R   0.067330 0.452977 0.568852 -0.258531
H1    H     H_    0.280855 0.759186 0.173026 0.120310
H2    H     H_    0.710197 0.243335 0.827196 0.118314
H3    H     H_    0.399034 0.374462 0.068521 0.133517
H4    H     H_    0.680113 0.565066 0.931084 0.130002
H5    H     H_    0.399402 0.378191 0.242249 0.126255
H6    H     H_    0.675045 0.565515 0.757465 0.124445
H7    H     H_    0.599422 0.622298 0.244357 0.122523
H8    H     H_    0.325270 0.434044 0.756104 0.118998
H9    H     H_    0.599128 0.626005 0.070724 0.131789
H10   H     H_    0.319737 0.434346 0.929722 0.129181
H11   H     H_    0.226046 0.821311 0.330973 0.129908
H12   H     H_    0.696624 0.202989 0.657377 0.147448
H13   H     H_    0.126913 0.724695 0.450433 0.123245
H14   H     H_    0.802244 0.296200 0.537967 0.104403
H15   H     H_    0.129163 0.504001 0.250949 0.117203
H16   H     H_    0.938957 0.470010 0.759970 0.121554
H17   H     H_    0.232236 0.600628 0.133267 0.132566
H18   H     H_    0.832127 0.376382 0.878215 0.129224
H19   H     H_    0.879464 0.582689 0.378967 0.158473
H20   H     H_    0.120695 0.415817 0.620811 0.149316
H21   H     H_    0.404702 0.049968 0.608478 0.139153
H22   H     H_    0.481052 0.947691 0.361663 0.134770
H23   H     H_    0.377897 0.212351 0.608231 0.144868
H24   H     H_    0.459363 0.785871 0.357540 0.163386
H25   H     H_    0.656953 0.234489 0.390408 0.142635
H26   H     H_    0.591643 0.770876 0.644493 0.150125
N1    N     N_R   0.500000 0.499980 0.252470 -0.087201
N2    N     N_R   0.500000 0.500020 0.747530 -0.088150
O1    O     O_R   0.500010 0.369070 0.579480 -0.611191
O2    O     O_R   0.499990 0.630930 0.420520 -0.622958
O3    O     O_R   0.500010 0.369060 0.420520 -0.630468
O4    O     O_R   0.499990 0.630940 0.579480 -0.625528
O5    O     O_R   0.316760 0.500010 0.579480 -0.634602
O6    O     O_R   0.683240 0.499990 0.420520 -0.627213
O7    O     O_R   0.316760 0.500000 0.420520 -0.611359
O8    O     O_R   0.683240 0.500000 0.579480 -0.617857
Zn1   Zn    Zn3+2 0.500000 0.500010 0.606140 0.946577
Zn2   Zn    Zn3+2 0.500000 0.499990 0.393860 0.944435
C45   C     C_3   0.720575 0.060028 0.371973 -0.434266
C46   C     C_3   0.835344 0.021804 0.422851 -0.348654
C47   C     C_3   0.934950 0.989840 0.352657 -0.881713
H27   H     H_    0.896451 0.936742 0.305473 0.263685
H28   H     H_    0.968113 0.046778 0.309319 0.258214
H29   H     H_    0.016012 0.961563 0.391602 0.246502
H30   H     H_    0.876547 0.074244 0.469623 0.218465
H31   H     H_    0.807560 0.963592 0.466156 0.227893
H32   H     H_    0.676805 0.007073 0.327736 0.200000
H33   H     H_    0.753269 0.112064 0.321918 0.200363
C48   C     C_3   0.635692 0.945731 0.676284 -0.438719
C49   C     C_3   0.766215 0.986539 0.665065 -0.349593
C50   C     C_3   0.816507 0.020879 0.759492 -0.890743
H34   H     H_    0.751614 0.071667 0.790505 0.257347
H35   H     H_    0.827791 0.964484 0.809565 0.259015
H36   H     H_    0.909164 0.052661 0.748600 0.251629
H37   H     H_    0.832001 0.935110 0.636201 0.220986
H38   H     H_    0.761983 0.043930 0.615981 0.221458
H39   H     H_    0.569082 0.997756 0.701969 0.198579
H40   H     H_    0.640382 0.894728 0.733066 0.199959

loop_
_geom_bond_atom_site_label_1
_geom_bond_atom_site_label_2
_ccdc_geom_bond_type
C8    H22   S    
C48   C49   S    
C27   C29   A    
C26   N2    A    
C50   H34   S    
C1    C11   S    
C2    C12   S    
C21   H5    S    
C50   H36   S    
C43   H19   S    
C39   C41   A    
C20   C30   A    
C47   H27   S    
C44   H20   S    
C45   H33   S    
C3    C43   A    
C16   C48   S    
C21   N1    A    
C35   C37   A    
C19   H3    S    
C5    C36   S    
C40   H18   S    
C6    C35   S    
C15   C17   A    
C42   H2    S    
O1    Zn1   S    
C24   O8    A    
C7    C17   A    
C31   C33   A    
C25   N1    A    
O5    Zn1   S    
N2    Zn1   S    
C2    O2    A    
C22   H6    S    
N1    Zn2   S    
C40   C42   A    
C14   H26   S    
C3    C24   S    
C46   H31   S    
O2    Zn2   S    
C22   N2    A    
C47   H28   S    
C32   C42   A    
C39   H17   S    
C1    O3    A    
C46   C47   S    
C4    C6    A    
C48   H39   S    
C4    C23   S    
C28   H10   S    
C15   C45   S    
C4    C44   A    
C8    C18   A    
C32   C34   A    
C48   H40   S    
C9    H23   S    
C29   C30   S    
C26   H8    S    
C7    H21   S    
O6    Zn2   S    
C45   C46   S    
C49   H38   S    
C50   H35   S    
C17   C18   S    
C16   C18   A    
C37   H15   S    
C23   O5    A    
C9    C11   A    
C20   H4    S    
C10   C12   A    
C38   H16   S    
C24   O6    A    
C5    C44   A    
C20   C22   A    
C6    C43   A    
C13   C15   A    
C14   C16   A    
C46   H30   S    
C19   C29   A    
C2    O4    A    
C47   H29   S    
C7    C9    A    
C33   H13   S    
C31   C41   A    
C19   C21   A    
C12   C14   A    
O8    Zn1   S    
C3    C5    A    
O4    Zn1   S    
O7    Zn2   S    
C27   H9    S    
O3    Zn2   S    
C10   H24   S    
C25   C27   A    
C45   H32   S    
C26   C28   A    
C25   H7    S    
C1    O1    A    
C31   H11   S    
C28   C30   A    
C37   C39   A    
C38   C40   A    
C11   C13   A    
C13   H25   S    
C49   H37   S    
C36   C38   A    
C33   C35   A    
C34   C36   A    
C49   C50   S    
C8    C10   A    
C34   H14   S    
C41   H1    S    
C23   O7    A    
C32   H12   S    
