data_mof_unit_30108.cif
_audit_creation_date              2013-03-05T15:54:01-0500
_audit_creation_method            fapswitch 2.2
_symmetry_space_group_name_H-M    P1
_symmetry_Int_Tables_number       1
_space_group_crystal_system       triclinic
_cell_length_a                    15.720989
_cell_length_b                    10.700483
_cell_length_c                    9.932739
_cell_angle_alpha                 90.249763
_cell_angle_beta                  91.423716
_cell_angle_gamma                 92.068331
_cell_volume                      1669.27977058

loop_
_atom_site_label
_atom_site_type_symbol
_atom_site_description
_atom_site_fract_x
_atom_site_fract_y
_atom_site_fract_z
_atom_type_partial_charge
O1    O     O_R   0.500000 0.316780 0.614690 -0.655223
O2    O     O_R   0.499990 0.316750 0.385360 -0.617092
C1    C     C_R   0.507676 0.260836 0.500259 0.898309
O3    O     O_R   0.377150 0.500020 0.614720 -0.647869
O4    O     O_R   0.377140 0.499990 0.385380 -0.550680
C2    C     C_R   0.338409 0.499948 0.498714 0.924949
Zn1   Zn    Zn3+2 0.500010 0.500020 0.653130 0.956519
Zn2   Zn    Zn3+2 0.499990 0.499980 0.346870 0.982755
O5    O     O_R   0.500010 0.683250 0.614640 -0.574348
O6    O     O_R   0.500000 0.683220 0.385310 -0.633664
O7    O     O_R   0.622860 0.500010 0.614620 -0.624399
O8    O     O_R   0.622850 0.499980 0.385280 -0.616626
C3    C     C_R   0.492763 0.739466 0.501293 0.870553
C4    C     C_R   0.661575 0.499827 0.501382 0.888031
C5    C     C_3   0.052768 0.489044 0.643355 -0.464438
C6    C     C_3   0.043327 0.371865 0.423305 0.198990
C7    C     C_3   0.944718 0.374845 0.423198 -0.461197
H1    H     H_    0.930155 0.404813 0.699661 0.182819
H2    H     H_    0.075711 0.404371 0.695709 0.191401
H3    H     H_    0.062405 0.289243 0.483548 0.098788
H4    H     H_    0.918635 0.288628 0.471932 0.150205
H5    H     H_    0.917580 0.375459 0.318640 0.209372
C8    C     C_1   0.750448 0.496636 0.504072 -0.177648
C9    C     C_3   0.082346 0.491349 0.495594 0.205468
C10   C     C_3   0.954641 0.489500 0.646302 -0.384162
C11   C     C_3   0.917076 0.491952 0.500760 0.291637
C12   C     C_3   0.951741 0.610402 0.428560 -0.380597
C13   C     C_3   0.049779 0.611997 0.429057 -0.359206
C14   C     C_1   0.825725 0.493847 0.503691 -0.095118
C15   C     C_1   0.173931 0.493338 0.494816 -0.048484
C16   C     C_1   0.249366 0.496544 0.495846 -0.088493
H6    H     H_    0.075054 0.695503 0.486235 0.160598
H7    H     H_    0.072981 0.622782 0.324947 0.224919
H8    H     H_    0.930293 0.696011 0.479938 0.170189
H9    H     H_    0.080010 0.571618 0.699656 0.203845
H10   H     H_    0.934804 0.572769 0.703617 0.185659
H11   H     H_    0.926681 0.612187 0.322783 0.191992
H12   H     H_    0.489254 0.109809 0.285754 0.165074
C17   C     C_R   0.568464 0.117773 0.738565 -0.151754
H13   H     H_    0.604809 0.205332 0.733030 0.165746
C18   C     C_R   0.564561 0.058531 0.862895 -0.219385
H14   H     H_    0.595223 0.101782 0.951002 0.161389
C19   C     C_R   0.515638 0.948605 0.875346 -0.230137
H15   H     H_    0.505764 0.909182 0.974223 0.151915
C20   C     C_R   0.476929 0.891515 0.761462 0.498512
C21   C     C_R   0.494639 0.940307 0.630606 -0.033296
C22   C     C_R   0.527105 0.063224 0.623405 0.032453
C23   C     C_R   0.515423 0.127501 0.500997 -0.100467
C24   C     C_R   0.495450 0.062674 0.381445 -0.157005
H16   H     H_    0.472871 0.886476 0.288690 0.166971
C25   C     C_R   0.483058 0.935585 0.383725 -0.214941
C26   C     C_R   0.484363 0.872976 0.506732 -0.127457
H17   H     H_    0.576915 0.663928 0.128772 0.140060
C27   C     C_R   0.407970 0.302948 0.128600 0.320342
C28   C     C_R   0.388558 0.194538 0.052883 -0.249609
H18   H     H_    0.357507 0.114255 0.099406 0.189861
C29   C     C_R   0.383611 0.202269 0.914384 -0.216174
H19   H     H_    0.353263 0.126952 0.855898 0.162114
C30   C     C_R   0.409435 0.312124 0.852343 -0.118753
H20   H     H_    0.390426 0.321597 0.749311 0.211922
C31   C     C_R   0.455827 0.406189 0.924345 0.132486
C32   C     C_R   0.455369 0.404527 0.068678 0.038094
N1    N     N_R   0.499210 0.498800 0.142780 -0.119639
C33   C     C_R   0.542243 0.590193 0.073621 -0.116039
H21   H     H_    0.577387 0.663308 0.879002 0.143980
C34   C     C_R   0.542440 0.589878 0.930758 -0.048170
N2    N     N_R   0.499180 0.498720 0.857170 -0.107888
O9    O     O_3   0.418028 0.794750 0.783623 -0.628378
C35   C     C_3   0.336470 0.827770 0.735732 0.087088
H22   H     H_    0.328366 0.801532 0.627588 0.137416
H23   H     H_    0.325848 0.929844 0.747082 0.121461
C36   C     C_3   0.269189 0.756229 0.816206 -0.293993
H24   H     H_    0.273346 0.654210 0.796729 0.236772
H25   H     H_    0.281356 0.773759 0.925576 0.235541
C37   C     C_3   0.179839 0.797366 0.778546 -0.973797
H26   H     H_    0.174165 0.898883 0.798961 0.275421
H27   H     H_    0.132533 0.745026 0.839791 0.273735
H28   H     H_    0.165629 0.778469 0.670172 0.255228
N3    N     N_R   0.345988 0.325391 0.226755 0.245890
O10   O     O_R   0.284664 0.398606 0.192904 -0.337308
O11   O     O_R   0.331931 0.242504 0.319970 -0.412638
N4    N     N_R   0.074651 0.355968 0.286383 0.232077
O12   O     O_R   0.119266 0.259593 0.258316 -0.330417
O13   O     O_R   0.053258 0.431252 0.189754 -0.402055

loop_
_geom_bond_atom_site_label_1
_geom_bond_atom_site_label_2
_geom_bond_distance
_ccdc_geom_bond_type
C28   H18   1.083624 S    
C18   H14   1.082503 S    
C19   H15   1.083089 S    
C17   C18   1.392287 A    
H12   C24   1.081851 S    
C20   C21   1.432799 A    
C5    H2    1.113458 S    
C11   C12   1.547664 S    
C7    C11   1.549241 S    
C8    C14   1.184987 T    
O3    Zn1   1.959480 S    
O4    C2    1.293072 A    
H17   C33   1.081696 S    
C5    C10   1.543841 S    
C21   C26   1.425863 A    
C1    C23   1.436343 S    
C35   H23   1.116525 S    
O5    C3    1.283287 A    
C21   C22   1.396327 A    
C6    C7    1.551685 S    
C24   C25   1.367181 A    
C6    H3    1.115558 S    
C2    C16   1.398579 S    
C30   H20   1.065274 S    
C6    C9    1.562050 S    
C18   C19   1.389644 A    
C35   H22   1.112154 S    
H1    C10   1.113286 S    
C36   C37   1.525369 S    
C5    H9    1.110561 S    
C12   H8    1.113577 S    
C30   C31   1.404039 A    
C25   C26   1.396036 A    
C13   H6    1.112476 S    
C36   H25   1.112307 S    
C17   H13   1.081994 S    
N3    O11   1.302272 A    
O9    C35   1.413836 S    
C27   C32   1.435330 A    
C10   C11   1.548650 S    
C7    H4    1.113570 S    
N1    C33   1.366436 A    
O1    C1    1.292630 A    
C33   C34   1.419089 A    
C4    C8    1.398411 S    
C35   C36   1.527284 S    
Zn1   O7    1.978143 S    
C37   H26   1.111331 S    
C32   N1    1.397326 A    
C3    C26   1.440351 S    
C19   C20   1.398575 A    
C31   N2    1.367374 A    
C22   C23   1.410814 A    
Zn2   O8    1.959478 S    
C20   O9    1.385973 S    
C6    N4    1.469143 S    
H16   C25   1.083941 S    
C37   H27   1.110049 S    
O3    C2    1.289850 A    
C5    C9    1.550569 S    
O8    C4    1.290637 A    
C13   H7    1.110163 S    
H21   C34   1.081621 S    
N4    O13   1.301353 A    
C28   C29   1.378954 A    
C17   C22   1.414814 A    
C27   N3    1.421174 S    
Zn1   O5    1.999210 S    
C27   C28   1.399954 A    
C23   C24   1.395877 A    
C10   H10   1.113431 S    
O1    Zn1   1.995945 S    
O2    Zn2   1.999211 S    
C9    C13   1.550452 S    
C36   H24   1.112356 S    
O6    C3    1.306817 A    
O4    Zn2   1.978143 S    
C7    H5    1.113045 S    
O2    C1    1.295908 A    
C29   H19   1.081201 S    
C15   C16   1.184959 T    
C12   H11   1.113382 S    
O7    C4    1.292138 A    
C34   N2    1.367277 A    
C31   C32   1.434004 A    
C37   H28   1.110154 S    
C9    C15   1.439416 S    
C29   C30   1.382275 A    
Zn2   N1    2.026887 S    
Zn1   N2    2.027148 S    
N3    O10   1.302683 A    
C11   C14   1.438015 S    
Zn2   O6    1.995945 S    
N4    O12   1.300996 A    
C12   C13   1.540627 S    
