data_mof_unit_54590.cif
_audit_creation_date              2012-12-10T18:57:39-0500
_audit_creation_method            fapswitch 2.2
_symmetry_space_group_name_H-M    P1
_symmetry_Int_Tables_number       1
_space_group_crystal_system       triclinic
_cell_length_a                    10.937774
_cell_length_b                    10.872034
_cell_length_c                    9.628249
_cell_angle_alpha                 90.51898
_cell_angle_beta                  88.293573
_cell_angle_gamma                 91.491639
_cell_volume                      1144.01654853

loop_
_atom_site_label
_atom_site_type_symbol
_atom_type_description
_atom_site_fract_x
_atom_site_fract_y
_atom_site_fract_z
_atom_type_partial_charge
C1    C     C_R   0.500652 0.262380 0.499000 0.831363
C2    C     C_R   0.495291 0.128240 0.496615 -0.135401
C3    C     C_R   0.484203 0.059782 0.371259 0.133696
C4    C     C_R   0.480897 0.931566 0.375095 -0.188810
C5    C     C_R   0.491668 0.869749 0.500907 -0.160001
C6    C     C_R   0.493092 0.937475 0.624610 0.055144
C7    C     C_3   0.581671 0.932859 0.739411 0.211446
C8    C     C_3   0.587302 0.073228 0.734742 0.194798
C9    C     C_R   0.577972 0.576622 0.071854 0.146429
C10   C     C_R   0.416349 0.431987 0.076501 0.501692
C11   C     C_R   0.412916 0.435848 0.929572 0.224860
C12   C     C_R   0.265505 0.493494 0.501995 0.815164
C13   C     C_R   0.582105 0.571289 0.925424 0.201599
C14   C     C_3   0.719730 0.567907 0.921439 -0.124994
C15   C     C_3   0.713780 0.582113 0.078705 0.186820
C16   C     C_R   0.499369 0.737123 0.500569 0.856664
C17   C     C_R   0.734075 0.503925 0.497726 0.814367
C18   C     C_2   0.935595 0.461031 0.400173 0.084367
C19   C     C_2   0.864761 0.525686 0.490024 0.265644
C20   C     C_2   0.068038 0.482811 0.394272 -0.065184
C21   C     C_2   0.133671 0.470406 0.508249 0.034640
C22   C     C_R   0.495730 0.064669 0.622281 0.004255
Cu1   Cu    Cu3+1 0.499990 0.499980 0.640670 0.992161
Cu2   Cu    Cu3+1 0.500010 0.500020 0.359330 1.047749
H1    H     H_    0.677505 0.111225 0.696831 0.083156
H2    H     H_    0.764299 0.646795 0.865000 0.239595
H3    H     H_    0.751339 0.503800 0.134980 0.171533
H4    H     H_    0.111200 0.505820 0.294489 0.175004
H5    H     H_    0.475790 0.881089 0.277741 0.214921
H6    H     H_    0.669140 0.889619 0.706908 0.107096
N1    N     N_R   0.500780 0.500930 0.147930 -0.274489
N2    N     N_R   0.500780 0.500890 0.852020 -0.237141
O1    O     O_R   0.500000 0.319640 0.618810 -0.593225
O2    O     O_R   0.500010 0.319680 0.381230 -0.508155
O3    O     O_R   0.321940 0.499980 0.618760 -0.610148
O4    O     O_R   0.321950 0.500020 0.381180 -0.548311
O5    O     O_R   0.499990 0.680320 0.618770 -0.545924
O6    O     O_R   0.500000 0.680360 0.381190 -0.563557
O7    O     O_R   0.678050 0.499980 0.618820 -0.593493
O8    O     O_R   0.678060 0.500020 0.381240 -0.573219
N3    N     N_3   0.884465 0.364457 0.315445 -0.596210
H7    H     H_    0.912438 0.381012 0.212403 0.246581
H8    H     H_    0.923102 0.281960 0.344544 0.249832
Cl1   Cl    Cl    0.309779 0.333231 0.163371 -0.562970
N4    N     N_3   0.312256 0.372909 0.866844 -0.504307
H9    H     H_    0.340068 0.321046 0.781179 0.289232
H10   H     H_    0.248840 0.438146 0.841595 0.225524
N5    N     N_3   0.770049 0.447669 0.883764 -0.577209
H11   H     H_    0.840231 0.460780 0.808940 0.273273
H12   H     H_    0.704055 0.388323 0.841499 0.283702
Cl2   Cl    Cl    0.767054 0.729482 0.137737 -0.531971
Cl3   Cl    Cl    0.920597 0.654417 0.585151 -0.624713
N6    N     N_3   0.075908 0.425865 0.634860 -0.574414
H13   H     H_    0.118604 0.345239 0.662898 0.225039
H14   H     H_    0.088950 0.492107 0.712619 0.263529
N7    N     N_3   0.483873 0.118232 0.238725 -0.461471
H15   H     H_    0.561069 0.090065 0.181486 0.281801
H16   H     H_    0.406519 0.086239 0.186786 0.296062
Cl4   Cl    Cl    0.510975 0.866563 0.892235 -0.516080
Cl5   Cl    Cl    0.528638 0.151361 0.885478 -0.557342

loop_
_geom_bond_atom_site_label_1
_geom_bond_atom_site_label_2
_ccdc_geom_bond_type
C2    C22   A    
C8    C22   S    
Cu1   Cu2   S    
N6    H13   S    
C6    C7    S    
C15   Cl2   S    
C12   O4    A    
N3    H7    S    
C13   N2    A    
Cu2   O6    S    
C4    H5    S    
C16   O5    A    
C1    O2    A    
Cu1   N2    S    
N4    H10   S    
C2    C3    A    
C9    C15   S    
Cu2   N1    S    
C1    O1    A    
C7    C8    S    
C7    H6    S    
C13   C14   S    
C14   H2    S    
C12   O3    A    
C21   N6    S    
C8    H1    S    
N3    H8    S    
Cu2   O4    S    
C12   C21   S    
Cu1   O7    S    
C10   N1    A    
C7    Cl4   S    
N5    H11   S    
Cu2   O8    S    
N7    H16   S    
C11   N2    A    
C18   C19   D    
Cu1   O3    S    
N6    H14   S    
C17   O7    A    
C5    C6    A    
Cu2   O2    S    
C11   N4    S    
C10   C11   A    
C9    N1    A    
C10   Cl1   S    
C3    C4    A    
C6    C22   A    
N4    H9    S    
C20   C21   D    
C18   C20   S    
C1    C2    S    
C3    N7    S    
C18   N3    S    
N7    H15   S    
C9    C13   A    
C14   C15   S    
C5    C16   S    
C14   N5    S    
C20   H4    S    
C17   C19   S    
Cu1   O5    S    
C15   H3    S    
C19   Cl3   S    
N5    H12   S    
C8    Cl5   S    
C16   O6    A    
C4    C5    A    
Cu1   O1    S    
C17   O8    A    
