data_mof_unit_45834.cif
_audit_creation_date              2012-12-11T16:26:18-0500
_audit_creation_method            fapswitch 2.2
_symmetry_space_group_name_H-M    P1
_symmetry_Int_Tables_number       1
_space_group_crystal_system       triclinic
_cell_length_a                    14.063145
_cell_length_b                    14.063138
_cell_length_c                    31.884031
_cell_angle_alpha                 89.999543
_cell_angle_beta                  90.000239
_cell_angle_gamma                 120.000111
_cell_volume                      5460.94825903

loop_
_atom_site_label
_atom_site_type_symbol
_atom_type_description
_atom_site_fract_x
_atom_site_fract_y
_atom_site_fract_z
_atom_type_partial_charge
C1    C     C_R   0.567948 0.444032 0.810478 0.541580
C2    C     C_R   0.876084 0.432052 0.689522 0.541575
C3    C     C_R   0.555969 0.123917 0.810478 0.541578
C4    C     C_R   0.567949 0.444032 0.689521 0.541578
C5    C     C_R   0.876088 0.432053 0.810477 0.541579
C6    C     C_R   0.555969 0.123918 0.689521 0.541577
C7    C     C_R   0.444031 0.567949 0.310478 0.541578
C8    C     C_R   0.432049 0.876084 0.189522 0.541578
C9    C     C_R   0.123918 0.555969 0.310479 0.541578
C10   C     C_R   0.444031 0.567950 0.189521 0.541581
C11   C     C_R   0.432051 0.876084 0.310478 0.541576
C12   C     C_R   0.123925 0.555972 0.189520 0.541581
C13   C     C_1   0.002421 0.508495 0.018767 -0.019207
C14   C     C_1   0.506131 0.997697 0.481218 -0.019221
C15   C     C_1   0.491562 0.493903 0.018777 -0.019229
C16   C     C_1   0.002338 0.508453 0.481222 -0.019217
C17   C     C_1   0.506086 0.997654 0.018777 -0.019234
C18   C     C_1   0.491562 0.493880 0.481220 -0.019221
C19   C     C_1   0.508453 0.002340 0.518778 -0.019218
C20   C     C_1   0.997765 0.506172 0.981209 -0.019210
C21   C     C_1   0.493882 0.491560 0.518779 -0.019220
C22   C     C_1   0.508424 0.002304 0.981218 -0.019215
C23   C     C_1   0.997696 0.506131 0.518782 -0.019221
C24   C     C_1   0.493877 0.491576 0.981217 -0.019221
C25   C     C_R   0.931053 0.470060 0.851375 -0.010689
C26   C     C_R   0.539028 0.068976 0.648617 -0.010688
C27   C     C_R   0.529944 0.460976 0.851381 -0.010686
C28   C     C_R   0.931037 0.470056 0.648620 -0.010689
C29   C     C_R   0.539025 0.068967 0.851381 -0.010687
C30   C     C_R   0.529946 0.460974 0.648618 -0.010687
C31   C     C_R   0.470055 0.931036 0.351380 -0.010689
C32   C     C_R   0.069010 0.539044 0.148611 -0.010678
C33   C     C_R   0.460975 0.529945 0.351382 -0.010687
C34   C     C_R   0.470036 0.931027 0.148618 -0.010686
C35   C     C_R   0.068975 0.539028 0.351383 -0.010689
C36   C     C_R   0.460974 0.529954 0.148617 -0.010681
C37   C     C_R   0.917161 0.547365 0.874378 -0.111749
C38   C     C_R   0.630240 0.082926 0.625609 -0.111769
C39   C     C_R   0.452689 0.369766 0.874392 -0.111765
C40   C     C_R   0.917113 0.547338 0.625613 -0.111758
C41   C     C_R   0.630235 0.082920 0.874391 -0.111779
C42   C     C_R   0.452686 0.369763 0.625609 -0.111764
C43   C     C_R   0.547337 0.917112 0.374387 -0.111758
C44   C     C_R   0.082986 0.630263 0.125602 -0.111805
C45   C     C_R   0.369764 0.452683 0.374391 -0.111764
C46   C     C_R   0.547340 0.917137 0.125615 -0.111760
C47   C     C_R   0.082925 0.630241 0.374391 -0.111769
C48   C     C_R   0.369764 0.452702 0.125605 -0.111777
C49   C     C_R   0.946162 0.566427 0.916981 0.003639
C50   C     C_R   0.620307 0.053937 0.583005 0.003635
C51   C     C_R   0.433625 0.379707 0.916994 0.003629
C52   C     C_R   0.946106 0.566394 0.583009 0.003638
C53   C     C_R   0.620294 0.053918 0.916994 0.003639
C54   C     C_R   0.433628 0.379700 0.583005 0.003633
C55   C     C_R   0.566393 0.946105 0.416991 0.003637
C56   C     C_R   0.054007 0.620337 0.082998 0.003619
C57   C     C_R   0.379702 0.433625 0.416994 0.003634
C58   C     C_R   0.566375 0.946107 0.083008 0.003629
C59   C     C_R   0.053935 0.620307 0.416995 0.003636
C60   C     C_R   0.379704 0.433645 0.083002 0.003612
C61   C     C_R   0.988747 0.505172 0.936277 0.030544
C62   C     C_R   0.516463 0.011329 0.563710 0.030558
C63   C     C_R   0.494850 0.483557 0.936285 0.030554
C64   C     C_R   0.988700 0.505147 0.563714 0.030549
C65   C     C_R   0.516446 0.011301 0.936286 0.030567
C66   C     C_R   0.494861 0.483547 0.563712 0.030554
C67   C     C_R   0.505146 0.988700 0.436286 0.030549
C68   C     C_R   0.011410 0.516500 0.063699 0.030572
C69   C     C_R   0.483548 0.494858 0.436287 0.030553
C70   C     C_R   0.505089 0.988654 0.063708 0.030520
C71   C     C_R   0.011327 0.516463 0.436290 0.030559
C72   C     C_R   0.483550 0.494880 0.063710 0.030543
C73   C     C_R   0.014925 0.437655 0.912133 -0.003602
C74   C     C_R   0.422759 0.985089 0.587859 -0.003605
C75   C     C_R   0.562307 0.577257 0.912134 -0.003609
C76   C     C_R   0.014914 0.437660 0.587861 -0.003603
C77   C     C_R   0.422745 0.985064 0.912135 -0.003612
C78   C     C_R   0.562323 0.577251 0.587861 -0.003607
C79   C     C_R   0.437658 0.014913 0.412139 -0.003602
C80   C     C_R   0.985164 0.422791 0.087846 -0.003610
C81   C     C_R   0.577251 0.562322 0.412138 -0.003607
C82   C     C_R   0.437565 0.014826 0.087851 -0.003596
C83   C     C_R   0.985085 0.422758 0.412141 -0.003604
C84   C     C_R   0.577252 0.562339 0.087860 -0.003615
C85   C     C_R   0.984737 0.419353 0.869926 -0.145739
C86   C     C_R   0.434635 0.015253 0.630068 -0.145757
C87   C     C_R   0.580601 0.565373 0.869925 -0.145764
C88   C     C_R   0.984740 0.419367 0.630070 -0.145745
C89   C     C_R   0.434627 0.015234 0.869926 -0.145763
C90   C     C_R   0.580614 0.565370 0.630070 -0.145756
C91   C     C_R   0.419366 0.984739 0.369930 -0.145745
C92   C     C_R   0.015302 0.434657 0.130058 -0.145752
C93   C     C_R   0.565370 0.580613 0.369929 -0.145756
C94   C     C_R   0.419295 0.984673 0.130062 -0.145699
C95   C     C_R   0.015251 0.434635 0.369932 -0.145759
C96   C     C_R   0.565369 0.580621 0.130070 -0.145753
Cr1   Cr    Cr6+3 0.504240 0.249200 0.750000 1.008270
Cr2   Cr    Cr6+3 0.744960 0.495760 0.750000 1.008266
Cr3   Cr    Cr6+3 0.750800 0.255040 0.750000 1.008267
Cr4   Cr    Cr6+3 0.249200 0.504240 0.250000 1.008271
Cr5   Cr    Cr6+3 0.495760 0.744960 0.250000 1.008264
Cr6   Cr    Cr6+3 0.255040 0.750800 0.250000 1.008264
H1    H     H_    0.877433 0.587321 0.859506 0.133330
H2    H     H_    0.709931 0.122689 0.640476 0.133348
H3    H     H_    0.412774 0.290072 0.859527 0.133348
H4    H     H_    0.877369 0.587281 0.640482 0.133337
H5    H     H_    0.709930 0.122698 0.859528 0.133348
H6    H     H_    0.412762 0.290071 0.640475 0.133347
H7    H     H_    0.587279 0.877367 0.359518 0.133337
H8    H     H_    0.122762 0.709955 0.140467 0.133363
H9    H     H_    0.290072 0.412758 0.359524 0.133346
H10   H     H_    0.587319 0.877434 0.140490 0.133325
H11   H     H_    0.122691 0.709932 0.359524 0.133348
H12   H     H_    0.290071 0.412781 0.140470 0.133349
H13   H     H_    0.000714 0.363028 0.147956 0.129227
H14   H     H_    0.362302 0.999298 0.352033 0.129230
H15   H     H_    0.636994 0.637659 0.147970 0.129225
H16   H     H_    0.000669 0.363008 0.352033 0.129228
H17   H     H_    0.362208 0.999202 0.147955 0.129231
H18   H     H_    0.636995 0.637659 0.352030 0.129229
H19   H     H_    0.363008 0.000673 0.647967 0.129228
H20   H     H_    0.999269 0.362268 0.852032 0.129235
H21   H     H_    0.637658 0.636995 0.647969 0.129229
H22   H     H_    0.363002 0.000654 0.852026 0.129231
H23   H     H_    0.999299 0.362304 0.647967 0.129230
H24   H     H_    0.637640 0.636997 0.852025 0.129231
O1    O     O_R   0.480350 0.140770 0.796330 -0.518882
O2    O     O_R   0.660420 0.519650 0.703670 -0.518880
O3    O     O_R   0.859230 0.339580 0.796330 -0.518889
O4    O     O_R   0.480350 0.140770 0.703670 -0.518881
O5    O     O_R   0.660420 0.519650 0.796330 -0.518877
O6    O     O_R   0.859230 0.339580 0.703670 -0.518884
O7    O     O_R   0.140770 0.480350 0.296330 -0.518879
O8    O     O_R   0.519650 0.660420 0.203670 -0.518878
O9    O     O_R   0.339580 0.859230 0.296330 -0.518884
O10   O     O_R   0.140770 0.480350 0.203670 -0.518883
O11   O     O_R   0.519650 0.660420 0.296330 -0.518880
O12   O     O_R   0.339580 0.859230 0.203670 -0.518895
O13   O     O_R   0.514930 0.348530 0.793250 -0.501185
O14   O     O_R   0.833600 0.485070 0.706750 -0.501185
O15   O     O_R   0.651470 0.166400 0.793250 -0.501182
O16   O     O_R   0.514930 0.348530 0.706750 -0.501185
O17   O     O_R   0.833600 0.485070 0.793250 -0.501186
O18   O     O_R   0.651470 0.166400 0.706750 -0.501184
O19   O     O_R   0.348530 0.514930 0.293250 -0.501184
O20   O     O_R   0.485070 0.833600 0.206750 -0.501183
O21   O     O_R   0.166400 0.651470 0.293250 -0.501183
O22   O     O_R   0.348530 0.514930 0.206750 -0.501186
O23   O     O_R   0.485070 0.833600 0.293250 -0.501185
O24   O     O_R   0.166400 0.651470 0.206750 -0.501187
O25   O     O_3   0.666667 0.333333 0.750000 -0.230462
O26   O     O_3   0.333333 0.666667 0.250000 -0.230465
C97   C     C_3   0.070961 0.718472 0.056943 -0.247747
C98   C     C_3   0.095533 0.821648 0.081863 -0.300257
C99   C     C_3   0.094979 0.908041 0.053206 -0.446405
H25   H     H_    0.158001 0.931609 0.028332 0.188379
H26   H     H_    0.013402 0.875875 0.038246 0.150857
H27   H     H_    0.113204 0.981576 0.072012 0.157806
H28   H     H_    0.032201 0.800308 0.106565 0.171424
H29   H     H_    0.177752 0.857343 0.096767 0.164738
H30   H     H_    0.138535 0.739495 0.034177 0.161785
H31   H     H_    0.994331 0.692877 0.038842 0.170145
C100  C     C_3   0.647621 0.929232 0.443050 -0.247795
C101  C     C_3   0.725873 0.904094 0.418154 -0.300316
C102  C     C_3   0.812742 0.904477 0.446809 -0.446378
H32   H     H_    0.862508 0.986154 0.461664 0.150702
H33   H     H_    0.773169 0.841688 0.471761 0.188367
H34   H     H_    0.867749 0.885761 0.428023 0.158099
H35   H     H_    0.679029 0.821781 0.403338 0.164848
H36   H     H_    0.767969 0.967212 0.393386 0.171242
H37   H     H_    0.698910 0.006047 0.461021 0.170305
H38   H     H_    0.601103 0.861943 0.465935 0.161759
C103  C     C_3   0.281598 0.352434 0.056942 -0.247784
C104  C     C_3   0.178261 0.274088 0.081842 -0.300274
C105  C     C_3   0.091823 0.187184 0.053186 -0.446372
H39   H     H_    0.068526 0.226712 0.028244 0.188392
H40   H     H_    0.123822 0.137513 0.038316 0.150820
H41   H     H_    0.018138 0.132099 0.071973 0.157989
H42   H     H_    0.199366 0.232033 0.106599 0.171313
H43   H     H_    0.142718 0.320843 0.096674 0.164816
H44   H     H_    0.260767 0.398965 0.034087 0.161760
H45   H     H_    0.307146 0.301212 0.038938 0.170234
C106  C     C_3   0.070848 0.718422 0.443054 -0.247771
C107  C     C_3   0.095846 0.821763 0.418152 -0.300294
C108  C     C_3   0.095427 0.908228 0.446809 -0.446360
H46   H     H_    0.013767 0.876260 0.461685 0.150727
H47   H     H_    0.158263 0.931512 0.471746 0.188381
H48   H     H_    0.114043 0.981918 0.428021 0.158042
H49   H     H_    0.178136 0.857287 0.403313 0.164813
H50   H     H_    0.032672 0.800664 0.393402 0.171285
H51   H     H_    0.994084 0.692886 0.461063 0.170255
H52   H     H_    0.138216 0.739250 0.465907 0.161759
C109  C     C_3   0.647629 0.929269 0.056952 -0.247791
C110  C     C_3   0.725867 0.904115 0.081852 -0.300309
C111  C     C_3   0.812748 0.904511 0.053202 -0.446410
H53   H     H_    0.773187 0.841715 0.028251 0.188354
H54   H     H_    0.862508 0.986191 0.038346 0.150739
H55   H     H_    0.867759 0.885809 0.071994 0.158087
H56   H     H_    0.767954 0.967224 0.106623 0.171228
H57   H     H_    0.679014 0.821794 0.096663 0.164856
H58   H     H_    0.601130 0.861996 0.034058 0.161762
H59   H     H_    0.698925 0.006104 0.038991 0.170296
C112  C     C_3   0.281594 0.352414 0.443056 -0.247784
C113  C     C_3   0.178218 0.274133 0.418159 -0.300306
C114  C     C_3   0.091741 0.187261 0.446816 -0.446361
H60   H     H_    0.123668 0.137512 0.461674 0.150716
H61   H     H_    0.068515 0.226830 0.471765 0.188388
H62   H     H_    0.018021 0.132237 0.428031 0.158082
H63   H     H_    0.142732 0.320952 0.403335 0.164834
H64   H     H_    0.199262 0.232042 0.393396 0.171263
H65   H     H_    0.307119 0.301143 0.461041 0.170274
H66   H     H_    0.260810 0.398947 0.465928 0.161756
C115  C     C_3   0.718421 0.070846 0.556945 -0.247771
C116  C     C_3   0.821763 0.095849 0.581847 -0.300294
C117  C     C_3   0.908229 0.095431 0.553190 -0.446360
H67   H     H_    0.876263 0.013771 0.538314 0.150727
H68   H     H_    0.931511 0.158266 0.528253 0.188381
H69   H     H_    0.981920 0.114049 0.571978 0.158044
H70   H     H_    0.857285 0.178140 0.596685 0.164815
H71   H     H_    0.800666 0.032676 0.606598 0.171283
H72   H     H_    0.692884 0.994081 0.538938 0.170256
H73   H     H_    0.739247 0.138212 0.534091 0.161760
C118  C     C_3   0.929323 0.647681 0.943037 -0.247822
C119  C     C_3   0.904054 0.725843 0.918142 -0.300326
C120  C     C_3   0.904421 0.812715 0.946790 -0.446405
H74   H     H_    0.841681 0.773143 0.971758 0.188347
H75   H     H_    0.986118 0.862543 0.961623 0.150671
H76   H     H_    0.885627 0.867667 0.928004 0.158147
H77   H     H_    0.967114 0.767943 0.893356 0.171201
H78   H     H_    0.821715 0.678928 0.903351 0.164880
H79   H     H_    0.862108 0.601186 0.965953 0.161750
H80   H     H_    0.006187 0.699031 0.960974 0.170365
C121  C     C_3   0.352419 0.281591 0.556944 -0.247783
C122  C     C_3   0.274131 0.178220 0.581842 -0.300305
C123  C     C_3   0.187258 0.091744 0.553186 -0.446360
H81   H     H_    0.137517 0.123677 0.538324 0.150718
H82   H     H_    0.226825 0.068511 0.528238 0.188390
H83   H     H_    0.132227 0.018028 0.571971 0.158077
H84   H     H_    0.320944 0.142729 0.596668 0.164831
H85   H     H_    0.232042 0.199270 0.606603 0.171266
H86   H     H_    0.301153 0.307117 0.538956 0.170270
H87   H     H_    0.398954 0.260803 0.534074 0.161756
C124  C     C_3   0.718411 0.070843 0.943056 -0.247772
C125  C     C_3   0.821729 0.095779 0.918155 -0.300290
C126  C     C_3   0.908182 0.095342 0.946815 -0.446373
H88   H     H_    0.931488 0.158190 0.971746 0.188402
H89   H     H_    0.876195 0.013689 0.961697 0.150739
H90   H     H_    0.981859 0.113925 0.928027 0.158020
H91   H     H_    0.800599 0.032582 0.893412 0.171310
H92   H     H_    0.857278 0.178057 0.903306 0.164802
H93   H     H_    0.739263 0.138245 0.965893 0.161750
H94   H     H_    0.692869 0.994106 0.961082 0.170249
C127  C     C_3   0.929232 0.647623 0.556950 -0.247795
C128  C     C_3   0.904095 0.725875 0.581846 -0.300315
C129  C     C_3   0.904479 0.812744 0.553191 -0.446379
H95   H     H_    0.986157 0.862510 0.538335 0.150703
H96   H     H_    0.841691 0.773171 0.528239 0.188365
H97   H     H_    0.885763 0.867752 0.571976 0.158098
H98   H     H_    0.821782 0.679032 0.596662 0.164848
H99   H     H_    0.967214 0.767970 0.606614 0.171242
H100  H     H_    0.006047 0.698911 0.538978 0.170304
H101  H     H_    0.861943 0.601104 0.534065 0.161758
C130  C     C_3   0.352413 0.281600 0.943055 -0.247791
C131  C     C_3   0.274148 0.178217 0.918159 -0.300298
C132  C     C_3   0.187266 0.091739 0.946812 -0.446350
H102  H     H_    0.226825 0.068517 0.971768 0.188431
H103  H     H_    0.137504 0.123663 0.961663 0.150716
H104  H     H_    0.132255 0.018016 0.928026 0.158082
H105  H     H_    0.232063 0.199252 0.893390 0.171262
H106  H     H_    0.320979 0.142734 0.903342 0.164838
H107  H     H_    0.398945 0.260827 0.965933 0.161736
H108  H     H_    0.301132 0.307122 0.961035 0.170281
C133  C     C_1   0.927696 0.314043 0.069773 0.191462
N1    N     N_1   0.880671 0.226999 0.055307 -0.355274
C134  C     C_1   0.386372 0.072379 0.430208 0.191455
N2    N     N_1   0.346347 0.119402 0.444671 -0.355269
C135  C     C_1   0.686009 0.613602 0.069794 0.191427
N3    N     N_1   0.773060 0.653605 0.055334 -0.355184
C136  C     C_1   0.927599 0.314006 0.430210 0.191456
N4    N     N_1   0.880559 0.226959 0.444674 -0.355279
C137  C     C_1   0.386216 0.072226 0.069777 0.191465
N5    N     N_1   0.346139 0.119196 0.055311 -0.355241
C138  C     C_1   0.686007 0.613585 0.430205 0.191449
N6    N     N_1   0.773056 0.653589 0.444666 -0.355251
C139  C     C_1   0.314006 0.927602 0.569790 0.191456
N7    N     N_1   0.226959 0.880563 0.555327 -0.355277
C140  C     C_1   0.072363 0.386341 0.930203 0.191469
N8    N     N_1   0.119364 0.346293 0.944667 -0.355255
C141  C     C_1   0.613585 0.686006 0.569794 0.191449
N9    N     N_1   0.653588 0.773055 0.555332 -0.355252
C142  C     C_1   0.313991 0.927585 0.930203 0.191467
N10   N     N_1   0.226945 0.880554 0.944667 -0.355253
C143  C     C_1   0.072381 0.386374 0.569792 0.191454
N11   N     N_1   0.119405 0.346351 0.555329 -0.355267
C144  C     C_1   0.613560 0.686014 0.930199 0.191449
N12   N     N_1   0.653556 0.773063 0.944659 -0.355234

loop_
_geom_bond_atom_site_label_1
_geom_bond_atom_site_label_2
_ccdc_geom_bond_type
C127  H101  S    
C68   C80   A    
C44   H8    S    
C39   C51   A    
C112  C113  S    
C129  H96   S    
C80   C92   A    
C102  H32   S    
C82   C94   A    
C46   H10   S    
Cr2   O17   S    
C99   H26   S    
C18   C21   T    
C33   C45   A    
C90   H21   S    
C101  H36   S    
C118  C119  S    
C3    O15   A    
C6    O4    A    
C35   C47   A    
C106  H52   S    
C29   C89   A    
C106  H51   S    
C130  C131  S    
C105  H40   S    
C6    C26   S    
C103  C104  S    
Cr4   O26   S    
C15   C72   S    
C45   C57   A    
C143  N11   T    
C31   C43   A    
Cr3   O6    S    
C48   H12   S    
C101  C102  S    
C120  H74   S    
Cr1   O4    S    
C11   O9    A    
C116  H70   S    
C117  H68   S    
Cr6   O12   S    
C127  C128  S    
C21   C66   S    
C3    O1    A    
Cr2   O2    S    
C108  H47   S    
C60   C72   A    
C19   C62   S    
C127  H100  S    
C124  C125  S    
C111  H54   S    
C120  H76   S    
C109  H58   S    
C107  C108  S    
C8    O12   A    
C84   C96   A    
C20   C61   S    
C3    C29   S    
C44   C56   A    
Cr6   O9    S    
C121  H86   S    
C38   H2    S    
Cr1   O13   S    
C25   C37   A    
C104  C105  S    
C115  H72   S    
C11   O23   A    
C110  H57   S    
C142  N10   T    
C27   C39   A    
C131  C132  S    
C81   C138  S    
C113  H63   S    
C28   C88   A    
C2    O6    A    
C123  H81   S    
Cr4   O10   S    
C34   C46   A    
C93   H18   S    
C88   H23   S    
C53   C65   A    
C125  C126  S    
C76   C88   A    
C79   C91   A    
C1    O13   A    
C51   C63   A    
Cr1   O1    S    
C111  H55   S    
C18   C69   S    
C5    O3    A    
C110  C111  S    
C129  H97   S    
C11   C31   S    
C17   C70   S    
C102  H33   S    
C53   C124  S    
C135  N3    T    
C46   C58   A    
C99   H27   S    
C60   C103  S    
C7    C33   S    
C112  H65   S    
C101  H35   S    
C16   C71   S    
C75   C144  S    
C130  H107  S    
C132  H104  S    
C118  H79   S    
C48   C60   A    
C105  H41   S    
C71   C83   A    
Cr2   O25   S    
C114  H61   S    
C95   H16   S    
C64   C76   A    
C66   C78   A    
Cr5   O20   S    
C124  H93   S    
C125  H91   S    
Cr3   O3    S    
C9    C35   S    
Cr5   O8    S    
C12   O24   A    
C96   H15   S    
C67   C79   A    
C91   H14   S    
C52   C64   A    
C117  H69   S    
C144  N12   T    
C7    O11   A    
C4    O2    A    
C116  C117  S    
C58   C70   A    
C108  H48   S    
C8    C34   S    
C74   C139  S    
C61   C73   A    
C137  N5    T    
C56   C68   A    
Cr3   O25   S    
C121  H87   S    
C9    O21   A    
C78   C90   A    
C109  H59   S    
C97   H30   S    
Cr2   O14   S    
Cr3   O18   S    
C116  H71   S    
Cr2   O5    S    
C27   C87   A    
C52   C127  S    
C22   C65   S    
C98   H29   S    
C139  N7    T    
C119  H78   S    
Cr6   O21   S    
C65   C77   A    
C37   C49   A    
C94   H17   S    
C73   C140  S    
C55   C67   A    
C105  H39   S    
C128  H99   S    
Cr4   O19   S    
C26   C86   A    
C62   C74   A    
C14   C67   S    
C84   C135  S    
C57   C112  S    
C86   H19   S    
C25   C85   A    
C133  N1    T    
Cr1   O25   S    
C106  C107  S    
C85   H20   S    
C122  H85   S    
C83   C95   A    
C74   C86   A    
C59   C106  S    
C100  H38   S    
C132  H103  S    
C41   C53   A    
C98   C99   S    
C72   C84   A    
C125  H92   S    
Cr6   O24   S    
C69   C81   A    
C5    C25   S    
C49   C118  S    
C75   C87   A    
C23   C64   S    
C134  N2    T    
C34   C94   A    
C103  H45   S    
C16   C23   T    
C31   C91   A    
C126  H89   S    
C140  N8    T    
C123  H82   S    
C121  C122  S    
C50   C62   A    
C123  H83   S    
C107  H50   S    
C112  H66   S    
C122  C123  S    
C119  C120  S    
C6    O18   A    
C129  H95   S    
C104  H43   S    
C138  N6    T    
C100  H37   S    
Cr4   O7    S    
C63   C75   A    
C78   C141  S    
C40   H4    S    
Cr6   O26   S    
C132  H102  S    
C114  H62   S    
C43   C55   A    
C47   H11   S    
C114  H60   S    
C15   C24   T    
C79   C134  S    
C124  H94   S    
Cr5   O26   S    
C115  H73   S    
C29   C41   A    
C81   C93   A    
C77   C89   A    
C14   C19   T    
C13   C20   T    
C131  H105  S    
C8    O20   A    
C10   O8    A    
C56   C97   S    
C1    O5    A    
C33   C93   A    
C77   C142  S    
C39   H3    S    
C37   H1    S    
C45   H9    S    
Cr3   O15   S    
C54   C66   A    
C89   H22   S    
C35   C95   A    
C102  H34   S    
C58   C109  S    
C83   C136  S    
C17   C22   T    
C50   C115  S    
C38   C50   A    
C97   H31   S    
C26   C38   A    
C128  C129  S    
Cr5   O11   S    
C76   C143  S    
C136  N4    T    
C55   C100  S    
C73   C85   A    
C40   C52   A    
C119  H77   S    
C42   C54   A    
C4    O16   A    
C49   C61   A    
C108  H46   S    
C32   C92   A    
C51   C130  S    
C128  H98   S    
Cr4   O22   S    
C115  C116  S    
Cr5   O23   S    
C80   C133  S    
C120  H75   S    
C10   C36   S    
C36   C48   A    
C122  H84   S    
C103  H44   S    
C117  H67   S    
C70   C82   A    
C92   H13   S    
C4    C30   S    
Cr1   O16   S    
C100  C101  S    
C5    O17   A    
C24   C63   S    
C47   C59   A    
C111  H53   S    
C110  H56   S    
C41   H5    S    
C118  H80   S    
C98   H28   S    
C59   C71   A    
C113  C114  S    
C32   C44   A    
C130  H108  S    
C109  C110  S    
C12   O10   A    
C126  H90   S    
C113  H64   S    
C99   H25   S    
C1    C27   S    
C28   C40   A    
C141  N9    T    
C30   C42   A    
C2    C28   S    
C2    O14   A    
C43   H7    S    
C54   C121  S    
C57   C69   A    
C97   C98   S    
C126  H88   S    
C82   C137  S    
C42   H6    S    
C104  H42   S    
C107  H49   S    
C30   C90   A    
C12   C32   S    
C87   H24   S    
C131  H106  S    
C10   O22   A    
C36   C96   A    
C7    O19   A    
C13   C68   S    
C9    O7    A    
