data_mof_unit_42505.cif
_audit_creation_date              2012-12-10T17:19:50-0500
_audit_creation_method            fapswitch 2.2
_symmetry_space_group_name_H-M    P1
_symmetry_Int_Tables_number       1
_space_group_crystal_system       triclinic
_cell_length_a                    21.790528
_cell_length_b                    21.85507
_cell_length_c                    23.454246
_cell_angle_alpha                 90.124023
_cell_angle_beta                  89.931314
_cell_angle_gamma                 89.465197
_cell_volume                      11169.1769669

loop_
_atom_site_label
_atom_site_type_symbol
_atom_type_description
_atom_site_fract_x
_atom_site_fract_y
_atom_site_fract_z
_atom_type_partial_charge
C1    C     C_R   0.379990 0.000927 0.495233 0.884283
C2    C     C_R   0.024033 0.283196 0.456278 -0.006013
C3    C     C_R   0.388194 0.202060 0.884285 0.172314
C4    C     C_R   0.199150 0.370306 0.093492 0.171940
C5    C     C_R   0.390896 0.800083 0.117283 0.162310
C6    C     C_R   0.785189 0.497083 0.155307 0.153533
C7    C     C_R   0.620994 0.199774 0.102273 0.173353
C8    C     C_R   0.240071 0.844338 0.410864 0.162310
C9    C     C_R   0.114478 0.238871 0.383167 0.155375
C10   C     C_R   0.759925 0.116989 0.380863 0.162338
C11   C     C_R   0.834872 0.780231 0.480776 0.127222
C12   C     C_R   0.757611 0.887161 0.620521 0.170996
C13   C     C_R   0.716109 0.025535 0.453482 0.001412
C14   C     C_R   0.871857 0.243593 0.611572 0.177182
C15   C     C_R   0.207296 0.142409 0.561180 0.091870
C16   C     C_R   0.162331 0.786091 0.556043 0.111742
C17   C     C_R   0.738403 0.434682 0.848661 0.168382
C18   C     C_R   0.651064 0.739123 0.923327 0.183341
C19   C     C_R   0.261559 0.596246 0.865212 0.157847
C20   C     C_R   0.363586 0.259171 0.900006 0.176820
C21   C     C_R   0.259548 0.350950 0.080815 0.181081
C22   C     C_R   0.366564 0.742793 0.103499 0.175507
C23   C     C_R   0.729860 0.531766 0.155177 0.144930
C24   C     C_R   0.944712 0.719826 0.512718 0.020198
C25   C     C_R   0.644400 0.255928 0.083467 0.165818
C26   C     C_R   0.198608 0.888245 0.435838 0.045108
C27   C     C_R   0.088152 0.198821 0.425985 0.077111
C28   C     C_R   0.801041 0.087812 0.421533 0.085946
C29   C     C_R   0.893382 0.803446 0.464664 0.044510
C30   C     C_R   0.799962 0.914795 0.581322 0.051758
C31   C     C_R   0.908568 0.200177 0.579876 0.045376
C32   C     C_R   0.192699 0.079380 0.565582 0.095374
C33   C     C_R   0.103234 0.813768 0.558087 0.046319
C34   C     C_R   0.699867 0.441114 0.898756 0.084869
C35   C     C_R   0.715602 0.976192 0.546364 -0.006081
C36   C     C_R   0.606162 0.697050 0.944777 0.045879
C37   C     C_R   0.300947 0.576264 0.911642 0.077769
C38   C     C_R   0.402115 0.301505 0.929741 0.040418
C39   C     C_R   0.302350 0.395637 0.060689 0.037508
C40   C     C_R   0.403886 0.700034 0.071759 0.047229
C41   C     C_R   0.698143 0.541390 0.101869 0.144575
C42   C     C_R   0.602970 0.299532 0.058282 0.058093
C43   C     C_R   0.221843 0.943621 0.462984 -0.013058
C44   C     C_R   0.037010 0.220855 0.461413 -0.011864
C45   C     C_R   0.778841 0.038043 0.458350 -0.002906
C46   C     C_R   0.970078 0.284946 0.546941 0.007559
C47   C     C_R   0.947336 0.779467 0.491885 0.021621
C48   C     C_R   0.778551 0.963708 0.542874 -0.005907
C49   C     C_R   0.959179 0.221692 0.543339 0.002559
C50   C     C_R   0.219300 0.037571 0.525205 0.040967
C51   C     C_R   0.053324 0.783003 0.530409 0.023787
C52   C     C_R   0.721863 0.475380 0.948383 -0.000403
C53   C     C_R   0.548402 0.720047 0.969496 0.012990
C54   C     C_R   0.278281 0.532212 0.954223 -0.010949
C55   C     C_R   0.455977 0.279079 0.961704 -0.000516
C56   C     C_R   0.279710 0.451958 0.033521 0.007901
C57   C     C_R   0.277688 0.051175 0.505616 0.007090
C58   C     C_R   0.457155 0.721742 0.038745 -0.012122
C59   C     C_R   0.721223 0.510714 0.051241 -0.018464
C60   C     C_R   0.545723 0.278523 0.032133 0.008386
C61   C     C_3   0.277017 0.224875 0.516701 -0.417605
C62   C     C_3   0.336084 0.241753 0.547840 -0.850665
C63   C     C_3   0.865084 0.349347 0.660695 -0.429311
C64   C     C_3   0.829321 0.396874 0.626039 -0.859541
C65   C     C_3   0.661273 0.902578 0.683328 -0.432466
C66   C     C_3   0.657573 0.955757 0.725650 -0.859750
C67   C     C_3   0.225930 0.686287 0.549455 -0.400556
C68   C     C_R   0.055243 0.718603 0.530316 0.025695
C69   C     C_3   0.235656 0.652773 0.605872 -0.880438
C70   C     C_3   0.651411 0.122396 0.336011 -0.438312
C71   C     C_3   0.608053 0.162175 0.371817 -0.847097
C72   C     C_3   0.099953 0.336485 0.320864 -0.419478
C73   C     C_3   0.047680 0.340856 0.277585 -0.867716
C74   C     C_3   0.345234 0.823555 0.363669 -0.427791
C75   C     C_3   0.393897 0.793827 0.401650 -0.862904
C76   C     C_3   0.773264 0.696198 0.533121 -0.435502
C77   C     C_3   0.761312 0.636875 0.500495 -0.838549
C78   C     C_3   0.819597 0.477900 0.209105 -0.414851
C79   C     C_R   0.784412 0.490445 0.947931 0.004829
C80   C     C_3   0.832897 0.409147 0.210681 -0.866395
C81   C     C_3   0.362610 0.843227 0.161081 -0.434740
C82   C     C_3   0.329085 0.896744 0.132684 -0.851777
C83   C     C_3   0.147695 0.327869 0.111748 -0.379428
C84   C     C_3   0.156536 0.301195 0.171051 -0.906321
C85   C     C_3   0.657799 0.153092 0.136306 -0.420505
C86   C     C_3   0.625140 0.134831 0.191125 -0.889379
C87   C     C_3   0.158620 0.585020 0.811045 -0.418399
C88   C     C_3   0.110809 0.633502 0.827519 -0.857617
C89   C     C_3   0.673216 0.847837 0.884248 -0.377260
C90   C     C_R   0.538544 0.782864 0.962334 0.004849
C91   C     C_3   0.698847 0.832910 0.825349 -0.903077
C92   C     C_3   0.843175 0.453670 0.800204 -0.417669
C93   C     C_3   0.885959 0.399406 0.812734 -0.863477
C94   C     C_3   0.358957 0.159253 0.841170 -0.433172
C95   C     C_3   0.398856 0.152783 0.787852 -0.846831
C96   C     C_3   0.222184 0.777587 0.401324 -0.418697
C97   C     C_3   0.195828 0.765489 0.341918 -0.876725
C98   C     C_3   0.178957 0.229206 0.357593 -0.402618
C99   C     C_3   0.179410 0.211055 0.294239 -0.908449
C100  C     C_3   0.775614 0.176034 0.348102 -0.391087
C101  C     C_R   0.214745 0.522597 0.952854 0.005129
C102  C     C_3   0.784988 0.165724 0.283643 -0.916670
C103  C     C_3   0.776638 0.816182 0.466353 -0.424677
C104  C     C_3   0.740110 0.786993 0.417915 -0.846995
C105  C     C_3   0.765300 0.821364 0.641493 -0.424823
C106  C     C_3   0.795941 0.815944 0.699904 -0.881319
C107  C     C_3   0.806282 0.229940 0.630890 -0.406085
C108  C     C_3   0.802749 0.204261 0.691512 -0.891486
C109  C     C_3   0.164910 0.189826 0.588696 -0.422464
C110  C     C_3   0.194061 0.221995 0.639827 -0.854626
C111  C     C_3   0.219145 0.825085 0.564639 -0.416813
C112  C     C_R   0.000051 0.380591 0.501393 0.869679
C113  C     C_R   0.465769 0.215628 0.957468 0.001659
C114  C     C_3   0.251856 0.814026 0.621594 -0.850809
C115  C     C_3   0.721075 0.395187 0.796765 -0.375870
C116  C     C_3   0.700748 0.433331 0.745096 -0.912630
C117  C     C_3   0.719713 0.722744 0.922069 -0.381717
C118  C     C_3   0.740528 0.687819 0.868453 -0.865928
C119  C     C_3   0.279199 0.646498 0.822368 -0.372046
C120  C     C_3   0.298506 0.621255 0.763740 -0.915249
C121  C     C_3   0.295266 0.271744 0.890454 -0.427669
C122  C     C_3   0.280887 0.298842 0.831761 -0.864027
C123  C     C_3   0.277247 0.283146 0.085340 -0.391705
C124  C     C_R   0.216750 0.462694 0.040320 0.002934
C125  C     C_3   0.306223 0.265921 0.142842 -0.858213
C126  C     C_3   0.298936 0.731039 0.117266 -0.400258
C127  C     C_3   0.288355 0.700349 0.175054 -0.893061
C128  C     C_3   0.710996 0.564792 0.209749 -0.390851
C129  C     C_3   0.662797 0.528716 0.242541 -0.881406
C130  C     C_3   0.713768 0.265404 0.082889 -0.416726
C131  C     C_3   0.737992 0.293563 0.138032 -0.886501
C132  C     C_3   0.131692 0.877331 0.425221 -0.317778
C133  C     C_3   0.112245 0.906229 0.368347 -0.762243
C134  C     C_3   0.120978 0.138314 0.435800 -0.332058
C135  C     C_R   0.467109 0.785007 0.042604 0.008214
C136  C     C_3   0.118094 0.096806 0.382760 -0.753916
C137  C     C_3   0.862804 0.118091 0.428524 -0.340983
C138  C     C_3   0.903999 0.110216 0.375398 -0.746140
C139  C     C_3   0.897776 0.840805 0.409887 -0.372798
C140  C     C_3   0.946369 0.815810 0.368437 -0.826665
C141  C     C_3   0.865534 0.892525 0.586910 -0.291764
C142  C     C_3   0.895613 0.923349 0.638928 -0.742120
C143  C     C_3   0.894935 0.134131 0.593401 -0.312883
C144  C     C_3   0.932839 0.112576 0.644910 -0.746737
C145  C     C_3   0.168899 0.057384 0.623464 -0.336750
C146  C     C_R   0.783756 0.497955 0.051535 -0.008153
C147  C     C_3   0.194084 0.994905 0.641772 -0.877075
C148  C     C_3   0.091514 0.853553 0.610848 -0.349668
C149  C     C_3   0.039920 0.829132 0.648722 -0.847491
C150  C     C_3   0.642440 0.401866 0.899788 -0.309165
C151  C     C_3   0.595414 0.422095 0.854135 -0.777121
C152  C     C_3   0.622128 0.630883 0.936214 -0.319693
C153  C     C_3   0.605698 0.610040 0.875572 -0.745255
C154  C     C_3   0.362366 0.608386 0.914875 -0.300098
C155  C     C_3   0.404119 0.592289 0.863448 -0.752591
C156  C     C_3   0.386480 0.367468 0.917795 -0.313116
C157  C     C_R   0.534495 0.216105 0.039264 -0.011931
C158  C     C_3   0.415387 0.388332 0.861530 -0.755333
C159  C     C_3   0.368173 0.382170 0.074831 -0.323443
C160  C     C_3   0.384749 0.407180 0.133810 -0.750256
C161  C     C_3   0.386948 0.634040 0.081291 -0.313281
C162  C     C_3   0.415357 0.609889 0.136954 -0.743969
C163  C     C_3   0.660591 0.600296 0.094462 -0.363977
C164  C     C_3   0.600155 0.605547 0.128039 -0.777036
C165  C     C_3   0.621530 0.365132 0.066048 -0.334711
C166  C     C_3   0.604545 0.387931 0.126075 -0.743888
C167  C     C_R   0.187981 0.987645 0.498852 -0.193675
C168  C     C_R   0.998814 0.187853 0.502493 -0.184647
C169  C     C_R   0.812119 0.000374 0.500578 -0.189083
C170  C     C_R   0.001760 0.812925 0.503757 -0.181001
C171  C     C_R   0.688177 0.494989 0.999461 -0.215387
C172  C     C_R   0.619346 0.999805 0.499401 0.870327
C173  C     C_R   0.501061 0.687669 0.002306 -0.175980
C174  C     C_R   0.312189 0.495976 0.997201 -0.183040
C175  C     C_R   0.500261 0.312202 0.997897 -0.169938
C176  C     C_R   0.313751 0.003389 0.483564 -0.164126
C177  C     C_R   0.999315 0.314788 0.502259 -0.118435
C178  C     C_R   0.685160 0.999701 0.499304 -0.113420
C179  C     C_R   0.000064 0.686328 0.518833 -0.175199
C180  C     C_R   0.814962 0.498846 0.999805 -0.103121
C181  C     C_R   0.500977 0.814633 0.000569 -0.127002
C182  C     C_R   0.185289 0.498034 0.000311 -0.120237
C183  C     C_R   0.999965 0.619828 0.507171 0.887688
C184  C     C_R   0.499150 0.185189 0.999435 -0.128455
C185  C     C_R   0.998434 0.121050 0.500521 0.887395
C186  C     C_R   0.878959 0.998798 0.500073 0.858115
C187  C     C_R   0.999888 0.879288 0.500499 0.876056
C188  C     C_R   0.120628 0.992760 0.499881 0.891231
C189  C     C_R   0.498990 0.621053 0.000425 0.881568
C190  C     C_R   0.378895 0.499491 0.999564 0.842610
C191  C     C_R   0.499881 0.378916 0.999508 0.852992
C192  C     C_R   0.621141 0.498466 0.999845 0.866842
C193  C     C_R   0.500002 0.999946 0.390820 0.876151
C194  C     C_R   0.880611 0.500022 0.000573 0.872113
C195  C     C_R   0.000031 0.499959 0.390766 0.909389
C196  C     C_R   0.499827 0.000063 0.609180 0.901316
C197  C     C_R   0.000010 0.500061 0.609243 0.879601
C198  C     C_R   0.000720 0.500008 0.890828 0.878685
C199  C     C_R   0.500019 0.000010 0.890768 0.883751
C200  C     C_R   0.000041 0.500034 0.109180 0.878247
C201  C     C_R   0.499964 0.999957 0.109230 0.886049
C202  C     C_1   0.500045 0.999838 0.330555 -0.195673
C203  C     C_1   0.000086 0.499956 0.330493 -0.200319
C204  C     C_1   0.499592 0.000214 0.669451 -0.197214
C205  C     C_R   0.500246 0.880484 0.999330 0.871276
C206  C     C_1   0.000317 0.500301 0.669522 -0.193392
C207  C     C_1   0.001915 0.500271 0.830572 -0.192676
C208  C     C_1   0.499971 0.000151 0.830504 -0.201841
C209  C     C_1   0.000127 0.500048 0.169443 -0.197033
C210  C     C_1   0.499889 0.999787 0.169494 -0.203303
C211  C     C_1   0.500023 0.999780 0.279691 -0.009253
C212  C     C_1   0.000116 0.499993 0.279629 -0.002961
C213  C     C_1   0.499506 0.000295 0.720316 0.001015
C214  C     C_1   0.001225 0.500530 0.720381 -0.017638
C215  C     C_1   0.002149 0.500596 0.779704 -0.015283
C216  C     C_R   0.119396 0.499689 0.002052 0.867146
C217  C     C_1   0.499725 0.000259 0.779644 -0.008696
C218  C     C_1   0.000167 0.500009 0.220303 -0.010767
C219  C     C_1   0.499929 0.999738 0.220359 -0.009548
C220  C     C_R   0.320976 0.917364 0.419263 -0.218112
C221  C     C_R   0.038758 0.314949 0.406482 -0.227028
C222  C     C_R   0.682276 0.044594 0.405921 -0.234604
C223  C     C_R   0.887280 0.695713 0.527382 -0.211292
C224  C     C_R   0.682281 0.962276 0.595883 -0.219707
C225  C     C_R   0.947173 0.319812 0.592785 -0.232745
C226  C     C_R   0.296223 0.112735 0.504940 -0.225595
C227  C     C_R   0.499701 0.119438 0.999901 0.868752
C228  C     C_R   0.111498 0.689438 0.544839 -0.233607
C229  C     C_R   0.818001 0.490357 0.896973 -0.253398
C230  C     C_R   0.571593 0.815344 0.920804 -0.246322
C231  C     C_R   0.180034 0.536603 0.904044 -0.226195
C232  C     C_R   0.440318 0.181959 0.912131 -0.216968
C233  C     C_R   0.183411 0.430531 0.081867 -0.246798
C234  C     C_R   0.442170 0.819321 0.088123 -0.219230
C235  C     C_R   0.814351 0.487383 0.103296 -0.244638
C236  C     C_R   0.563642 0.183033 0.083063 -0.204200
C237  C     C_R   0.300496 0.861951 0.398670 0.162755
C238  C     C_R   0.285591 0.953804 0.456493 0.022243
C239  C     C_R   0.083263 0.293838 0.369505 0.176142
C240  C     C_R   0.700760 0.092912 0.372835 0.173737
C241  C     C_R   0.832445 0.725779 0.513509 0.168516
C242  C     C_R   0.702586 0.918159 0.633393 0.168796
C243  C     C_R   0.895437 0.302124 0.622051 0.168644
C244  C     C_R   0.259222 0.159183 0.528430 0.171364
C245  C     C_R   0.166031 0.722117 0.549337 0.174256
C246  C     C_R   0.796782 0.462164 0.848115 0.158302
C247  C     C_R   0.631387 0.798421 0.907858 0.164913
C248  C     C_R   0.202420 0.571580 0.860118 0.156620
H1    H     H_    0.366557 0.931460 0.406668 0.164576
H2    H     H_    0.555360 0.859728 0.906547 0.152209
H3    H     H_    0.262672 0.747251 0.407949 0.205250
H4    H     H_    0.189938 0.761628 0.434557 0.193332
H5    H     H_    0.197921 0.163918 0.288613 0.251295
H6    H     H_    0.132793 0.213428 0.275221 0.272252
H7    H     H_    0.210399 0.241760 0.270261 0.250977
H8    H     H_    0.204757 0.272496 0.362979 0.182798
H9    H     H_    0.207851 0.195938 0.380769 0.207368
H10   H     H_    0.832883 0.176205 0.271050 0.252209
H11   H     H_    0.774961 0.117868 0.270854 0.262634
H12   H     H_    0.754730 0.197103 0.258970 0.251038
H13   H     H_    0.133430 0.520484 0.899769 0.154588
H14   H     H_    0.738101 0.210027 0.354868 0.200142
H15   H     H_    0.816070 0.200634 0.364039 0.213534
H16   H     H_    0.703540 0.819280 0.403839 0.249321
H17   H     H_    0.770112 0.776236 0.380904 0.254203
H18   H     H_    0.717766 0.744361 0.432080 0.262332
H19   H     H_    0.747205 0.821693 0.504658 0.197315
H20   H     H_    0.787686 0.863929 0.454259 0.201267
H21   H     H_    0.845597 0.805690 0.694828 0.253727
H22   H     H_    0.789766 0.858424 0.725402 0.267227
H23   H     H_    0.775608 0.777275 0.723811 0.247321
H24   H     H_    0.457350 0.136544 0.901792 0.156928
H25   H     H_    0.719677 0.799114 0.643074 0.185994
H26   H     H_    0.790015 0.792616 0.610094 0.189180
H27   H     H_    0.808712 0.153867 0.691364 0.259095
H28   H     H_    0.838041 0.224794 0.719589 0.252850
H29   H     H_    0.756773 0.214485 0.709869 0.249081
H30   H     H_    0.777779 0.272164 0.628927 0.209351
H31   H     H_    0.782595 0.199390 0.600324 0.188476
H32   H     H_    0.158126 0.248126 0.663353 0.245784
H33   H     H_    0.215356 0.188547 0.669481 0.251484
H34   H     H_    0.229419 0.254863 0.626101 0.265471
H35   H     H_    0.138509 0.446733 0.095221 0.149869
H36   H     H_    0.149705 0.223970 0.556575 0.201466
H37   H     H_    0.121847 0.168060 0.603433 0.203196
H38   H     H_    0.275704 0.856413 0.634901 0.250121
H39   H     H_    0.219325 0.800992 0.655800 0.254349
H40   H     H_    0.287244 0.777555 0.617360 0.261152
H41   H     H_    0.251935 0.817702 0.529024 0.203872
H42   H     H_    0.205971 0.874054 0.562444 0.199347
H43   H     H_    0.650193 0.438719 0.743867 0.254762
H44   H     H_    0.721477 0.479546 0.745195 0.255661
H45   H     H_    0.714411 0.409305 0.705245 0.253477
H46   H     H_    0.459651 0.864267 0.098376 0.156105
H47   H     H_    0.760787 0.366131 0.784240 0.198610
H48   H     H_    0.685917 0.360457 0.805211 0.208503
H49   H     H_    0.736654 0.637664 0.874009 0.260820
H50   H     H_    0.713554 0.701785 0.830504 0.258772
H51   H     H_    0.789673 0.697340 0.859967 0.242816
H52   H     H_    0.748040 0.764286 0.925906 0.199601
H53   H     H_    0.732527 0.696501 0.960837 0.180104
H54   H     H_    0.272757 0.645385 0.729662 0.250349
H55   H     H_    0.348007 0.629423 0.755922 0.255145
H56   H     H_    0.289778 0.571405 0.759881 0.258908
H57   H     H_    0.861353 0.470910 0.103565 0.162192
H58   H     H_    0.239591 0.678218 0.816846 0.199031
H59   H     H_    0.315175 0.677782 0.837384 0.206485
H60   H     H_    0.232268 0.289728 0.820766 0.246743
H61   H     H_    0.286827 0.349142 0.831997 0.257278
H62   H     H_    0.310645 0.278482 0.798138 0.262783
H63   H     H_    0.269298 0.228658 0.895949 0.188096
H64   H     H_    0.275851 0.301417 0.924594 0.190575
H65   H     H_    0.356879 0.269560 0.141650 0.254063
H66   H     H_    0.288447 0.295415 0.177849 0.260852
H67   H     H_    0.295572 0.217563 0.153034 0.243019
H68   H     H_    0.546448 0.138799 0.095691 0.160485
H69   H     H_    0.236874 0.253768 0.078215 0.199118
H70   H     H_    0.308343 0.269697 0.049793 0.180868
H71   H     H_    0.289304 0.649840 0.170652 0.261573
H72   H     H_    0.323149 0.714523 0.206876 0.251575
H73   H     H_    0.242234 0.713357 0.191544 0.251191
H74   H     H_    0.272907 0.774885 0.116804 0.209577
H75   H     H_    0.276562 0.704667 0.082689 0.187989
H76   H     H_    0.647888 0.555154 0.280663 0.246767
H77   H     H_    0.622140 0.519600 0.215557 0.257115
H78   H     H_    0.682296 0.484188 0.256759 0.257412
H79   H     H_    0.345672 0.291061 0.541371 0.240598
H80   H     H_    0.750697 0.573442 0.237954 0.183439
H81   H     H_    0.696039 0.612232 0.201662 0.202717
H82   H     H_    0.730711 0.343781 0.137859 0.271916
H83   H     H_    0.715181 0.273796 0.176029 0.257644
H84   H     H_    0.788139 0.284816 0.141306 0.253208
H85   H     H_    0.737739 0.221159 0.074856 0.189923
H86   H     H_    0.728010 0.293333 0.045779 0.195702
H87   H     H_    0.127165 0.954402 0.365069 0.254481
H88   H     H_    0.133756 0.881248 0.332222 0.228928
H89   H     H_    0.061816 0.904274 0.362955 0.249660
H90   H     H_    0.331647 0.232962 0.594259 0.264281
H91   H     H_    0.119061 0.828621 0.423749 0.185706
H92   H     H_    0.106038 0.892448 0.462076 0.190190
H93   H     H_    0.124219 0.121820 0.342725 0.245500
H94   H     H_    0.154876 0.061422 0.384996 0.235026
H95   H     H_    0.072881 0.074819 0.378312 0.277149
H96   H     H_    0.169356 0.146610 0.446779 0.160623
H97   H     H_    0.105856 0.114354 0.474226 0.204531
H98   H     H_    0.927561 0.065249 0.374565 0.275056
H99   H     H_    0.878153 0.112164 0.335209 0.242473
H100  H     H_    0.939000 0.146818 0.374490 0.238383
H101  H     H_    0.375564 0.214767 0.530987 0.253759
H102  H     H_    0.856233 0.167260 0.438707 0.156028
H103  H     H_    0.886602 0.103474 0.466453 0.189460
H104  H     H_    0.993015 0.816174 0.387108 0.268669
H105  H     H_    0.935191 0.768040 0.356277 0.253749
H106  H     H_    0.946828 0.844291 0.329293 0.230865
H107  H     H_    0.854456 0.839044 0.385421 0.210445
H108  H     H_    0.903464 0.889804 0.419061 0.235118
H109  H     H_    0.878642 0.970987 0.644609 0.246496
H110  H     H_    0.884742 0.898799 0.678694 0.219607
H111  H     H_    0.946062 0.924226 0.635057 0.259221
H112  H     H_    0.019072 0.359858 0.398529 0.150132
H113  H     H_    0.284061 0.230663 0.470074 0.186084
H114  H     H_    0.869863 0.842574 0.592603 0.172458
H115  H     H_    0.889904 0.897561 0.546552 0.195070
H116  H     H_    0.980967 0.128666 0.642617 0.251830
H117  H     H_    0.913052 0.130984 0.685039 0.222535
H118  H     H_    0.933101 0.061989 0.647249 0.234585
H119  H     H_    0.846457 0.125174 0.603460 0.185632
H120  H     H_    0.899086 0.106121 0.555708 0.199359
H121  H     H_    0.177126 0.958454 0.613492 0.257665
H122  H     H_    0.245064 0.994771 0.640931 0.261862
H123  H     H_    0.178609 0.984670 0.685827 0.237418
H124  H     H_    0.240608 0.258117 0.528543 0.214965
H125  H     H_    0.184155 0.089442 0.657192 0.201966
H126  H     H_    0.118113 0.058743 0.625641 0.221134
H127  H     H_    0.995814 0.826365 0.625434 0.275203
H128  H     H_    0.052243 0.782656 0.664321 0.254980
H129  H     H_    0.033463 0.859805 0.686095 0.227343
H130  H     H_    0.132228 0.854466 0.638962 0.205747
H131  H     H_    0.085103 0.902090 0.600256 0.239078
H132  H     H_    0.611999 0.461512 0.829125 0.238157
H133  H     H_    0.584621 0.383574 0.825009 0.210560
H134  H     H_    0.551903 0.437989 0.872480 0.282128
H135  H     H_    0.859419 0.418594 0.593894 0.291400
H136  H     H_    0.655986 0.353381 0.892529 0.154012
H137  H     H_    0.621207 0.398626 0.941948 0.189591
H138  H     H_    0.555676 0.612755 0.867656 0.256321
H139  H     H_    0.627828 0.639391 0.843278 0.230031
H140  H     H_    0.622063 0.562553 0.868295 0.247384
H141  H     H_    0.670880 0.620217 0.944338 0.178867
H142  H     H_    0.601555 0.604507 0.969232 0.206182
H143  H     H_    0.379430 0.566376 0.830203 0.241329
H144  H     H_    0.423315 0.634619 0.844684 0.215688
H145  H     H_    0.442727 0.561903 0.874530 0.275193
H146  H     H_    0.790158 0.375351 0.603726 0.242401
H147  H     H_    0.354437 0.658510 0.917065 0.148501
H148  H     H_    0.385865 0.602172 0.955116 0.186240
H149  H     H_    0.464400 0.374631 0.858923 0.254786
H150  H     H_    0.391926 0.366869 0.824793 0.230050
H151  H     H_    0.411237 0.438739 0.857207 0.241924
H152  H     H_    0.336761 0.377210 0.915665 0.187119
H153  H     H_    0.398291 0.395088 0.953485 0.201246
H154  H     H_    0.360796 0.381130 0.167534 0.230845
H155  H     H_    0.434890 0.402808 0.141041 0.237633
H156  H     H_    0.370881 0.455901 0.138189 0.251470
H157  H     H_    0.811303 0.433214 0.654758 0.242561
H158  H     H_    0.380909 0.333333 0.072776 0.187407
H159  H     H_    0.396327 0.398972 0.041772 0.203529
H160  H     H_    0.464866 0.620366 0.139895 0.253035
H161  H     H_    0.393436 0.631577 0.174530 0.226126
H162  H     H_    0.409092 0.559817 0.140344 0.239375
H163  H     H_    0.337000 0.626528 0.083376 0.182494
H164  H     H_    0.397561 0.606880 0.044310 0.193003
H165  H     H_    0.605988 0.621138 0.172401 0.221917
H166  H     H_    0.571781 0.642153 0.108419 0.245575
H167  H     H_    0.574680 0.562043 0.129063 0.283294
H168  H     H_    0.834179 0.328561 0.692627 0.222460
H169  H     H_    0.689842 0.639774 0.106060 0.172440
H170  H     H_    0.650529 0.607615 0.049102 0.174243
H171  H     H_    0.554482 0.385558 0.133827 0.254294
H172  H     H_    0.627161 0.359409 0.159097 0.232992
H173  H     H_    0.619881 0.435698 0.132170 0.248656
H174  H     H_    0.671083 0.372524 0.059541 0.187261
H175  H     H_    0.602923 0.392740 0.032536 0.194419
H176  H     H_    0.901107 0.373194 0.685432 0.210080
H177  H     H_    0.704136 0.967079 0.741500 0.255676
H178  H     H_    0.637063 0.997005 0.705444 0.260992
H179  H     H_    0.628426 0.942759 0.762473 0.261405
H180  H     H_    0.636537 0.027197 0.398567 0.149931
H181  H     H_    0.614461 0.892178 0.667422 0.212146
H182  H     H_    0.677345 0.861862 0.706917 0.228827
H183  H     H_    0.230471 0.684893 0.642264 0.265728
H184  H     H_    0.201939 0.615379 0.610774 0.252526
H185  H     H_    0.282510 0.632410 0.606927 0.247979
H186  H     H_    0.225248 0.652199 0.514211 0.194606
H187  H     H_    0.265939 0.715618 0.540658 0.207576
H188  H     H_    0.585916 0.134731 0.405669 0.292252
H189  H     H_    0.633568 0.200194 0.392067 0.243189
H190  H     H_    0.571688 0.181912 0.344086 0.246220
H191  H     H_    0.884703 0.654892 0.553270 0.176215
H192  H     H_    0.670327 0.151225 0.302101 0.235877
H193  H     H_    0.624398 0.086292 0.314267 0.211440
H194  H     H_    0.036527 0.294700 0.260887 0.255483
H195  H     H_    0.005816 0.361056 0.297322 0.258346
H196  H     H_    0.061503 0.370623 0.241574 0.263867
H197  H     H_    0.108953 0.382920 0.338270 0.208883
H198  H     H_    0.142147 0.322930 0.298107 0.230053
H199  H     H_    0.421446 0.829303 0.423588 0.275801
H200  H     H_    0.371948 0.764246 0.434117 0.245788
H201  H     H_    0.425250 0.765218 0.375170 0.244550
H202  H     H_    0.637089 0.981935 0.603069 0.148543
H203  H     H_    0.322223 0.787467 0.338587 0.219751
H204  H     H_    0.368231 0.853168 0.331768 0.202281
H205  H     H_    0.760755 0.645381 0.453847 0.262097
H206  H     H_    0.797288 0.602098 0.510128 0.256391
H207  H     H_    0.716172 0.618191 0.513375 0.237284
H208  H     H_    0.776735 0.685558 0.579342 0.194097
H209  H     H_    0.732643 0.726441 0.528688 0.211284
H210  H     H_    0.789233 0.383770 0.214133 0.261407
H211  H     H_    0.858519 0.393563 0.172320 0.263464
H212  H     H_    0.861186 0.398278 0.248764 0.252525
H213  H     H_    0.964401 0.365297 0.601189 0.151174
H214  H     H_    0.863617 0.503026 0.211134 0.210816
H215  H     H_    0.794060 0.487970 0.248815 0.219011
H216  H     H_    0.361060 0.923404 0.105885 0.287662
H217  H     H_    0.291071 0.880079 0.105501 0.244065
H218  H     H_    0.309626 0.927536 0.165945 0.245704
H219  H     H_    0.330279 0.819596 0.189883 0.220217
H220  H     H_    0.399466 0.861417 0.188965 0.205158
H221  H     H_    0.187577 0.260983 0.169760 0.273678
H222  H     H_    0.174338 0.336327 0.200852 0.267826
H223  H     H_    0.111892 0.284344 0.186915 0.256262
H224  H     H_    0.335824 0.126226 0.480396 0.185769
H225  H     H_    0.102942 0.352809 0.112022 0.215216
H226  H     H_    0.141901 0.290595 0.080051 0.184171
H227  H     H_    0.654842 0.101987 0.214559 0.247017
H228  H     H_    0.616175 0.175943 0.217879 0.263173
H229  H     H_    0.581132 0.111625 0.182362 0.264329
H230  H     H_    0.665195 0.111572 0.109619 0.212873
H231  H     H_    0.703590 0.169881 0.148847 0.221196
H232  H     H_    0.133267 0.677518 0.837818 0.246427
H233  H     H_    0.078743 0.640961 0.791380 0.251526
H234  H     H_    0.083945 0.618545 0.865085 0.281745
H235  H     H_    0.115454 0.641463 0.553681 0.197422
H236  H     H_    0.182184 0.599924 0.771844 0.231177
H237  H     H_    0.134656 0.542243 0.798897 0.206739
H238  H     H_    0.739820 0.802941 0.828414 0.271484
H239  H     H_    0.663387 0.811380 0.798106 0.265878
H240  H     H_    0.714448 0.875779 0.805068 0.255787
H241  H     H_    0.647849 0.892066 0.880491 0.210723
H242  H     H_    0.711159 0.857299 0.914422 0.184818
H243  H     H_    0.907518 0.404474 0.855266 0.281678
H244  H     H_    0.860534 0.355703 0.811956 0.241288
H245  H     H_    0.922894 0.396907 0.780285 0.249456
H246  H     H_    0.864306 0.507934 0.896069 0.154026
H247  H     H_    0.821687 0.447058 0.758053 0.227977
H248  H     H_    0.870841 0.495852 0.795843 0.207668
H249  H     H_    0.405211 0.198199 0.767606 0.257489
H250  H     H_    0.444467 0.132893 0.798540 0.259728
H251  H     H_    0.376150 0.121992 0.756790 0.252531
H252  H     H_    0.352879 0.113469 0.860856 0.211475
H253  H     H_    0.312960 0.174698 0.827098 0.221098
H254  H     H_    0.145963 0.775803 0.340854 0.259585
H255  H     H_    0.219266 0.793166 0.308912 0.252899
H256  H     H_    0.201872 0.716324 0.331035 0.250474
O1    O     O_R   0.408370 0.051730 0.500010 -0.631020
O2    O     O_R   0.448270 0.908370 0.000010 -0.620036
O3    O     O_R   0.091630 0.448270 0.000010 -0.627523
O4    O     O_R   0.551730 0.091630 0.000010 -0.623169
O5    O     O_R   0.091630 0.551730 0.999990 -0.617641
O6    O     O_R   0.551730 0.908370 0.999990 -0.626185
O7    O     O_R   0.908370 0.448270 0.999990 -0.621203
O8    O     O_R   0.448270 0.091630 0.999990 -0.622252
O9    O     O_R   0.499980 0.051730 0.417240 -0.628633
O10   O     O_R   0.948270 0.499980 0.417240 -0.610235
O11   O     O_R   0.500020 0.948270 0.417240 -0.626509
O12   O     O_R   0.948270 0.408370 0.500010 -0.625606
O13   O     O_R   0.051730 0.500020 0.417240 -0.615634
O14   O     O_R   0.500020 0.051730 0.582760 -0.609870
O15   O     O_R   0.051730 0.499980 0.582760 -0.623126
O16   O     O_R   0.499980 0.948270 0.582760 -0.616581
O17   O     O_R   0.948270 0.500020 0.582760 -0.636073
O18   O     O_R   0.999980 0.551730 0.917240 -0.626504
O19   O     O_R   0.448270 0.999980 0.917240 -0.617619
O20   O     O_R   0.000020 0.448270 0.917240 -0.618878
O21   O     O_R   0.551730 0.000020 0.917240 -0.626483
O22   O     O_R   0.000020 0.551730 0.082760 -0.610442
O23   O     O_R   0.591630 0.948270 0.500010 -0.621239
O24   O     O_R   0.551730 0.999980 0.082760 -0.616570
O25   O     O_R   0.999980 0.448270 0.082760 -0.633362
O26   O     O_R   0.448270 0.000020 0.082760 -0.627984
O27   O     O_R   0.999980 0.091600 0.546760 -0.622013
O28   O     O_R   0.908400 0.999980 0.546760 -0.618423
O29   O     O_R   0.000020 0.908400 0.546760 -0.638685
O30   O     O_R   0.091600 0.000020 0.546760 -0.640698
O31   O     O_R   0.000020 0.091600 0.453240 -0.618259
O32   O     O_R   0.091600 0.999980 0.453240 -0.614461
O33   O     O_R   0.999980 0.908400 0.453240 -0.630413
O34   O     O_R   0.051730 0.591630 0.500010 -0.635271
O35   O     O_R   0.908400 0.000020 0.453240 -0.631302
O36   O     O_R   0.499980 0.591600 0.046760 -0.622193
O37   O     O_R   0.408400 0.499980 0.046760 -0.618167
O38   O     O_R   0.500020 0.408400 0.046760 -0.621130
O39   O     O_R   0.591600 0.500020 0.046760 -0.609631
O40   O     O_R   0.500020 0.591600 0.953240 -0.628401
O41   O     O_R   0.591600 0.499980 0.953240 -0.612505
O42   O     O_R   0.499980 0.408400 0.953240 -0.631173
O43   O     O_R   0.408400 0.500020 0.953240 -0.623120
O44   O     O_R   0.591630 0.051730 0.499990 -0.625596
O45   O     O_R   0.051730 0.408370 0.499990 -0.621451
O46   O     O_R   0.408370 0.948270 0.499990 -0.616139
O47   O     O_R   0.948270 0.591630 0.499990 -0.620351
O48   O     O_R   0.908370 0.551730 0.000010 -0.620501
Zn1   Zn    Zn3+2 0.500000 0.069080 0.500000 0.925624
Zn2   Zn    Zn3+2 0.000000 1.000000 0.437580 0.864496
Zn3   Zn    Zn3+2 0.500000 0.500000 0.062420 0.863099
Zn4   Zn    Zn3+2 0.500000 0.500000 0.937580 0.848424
Zn5   Zn    Zn3+2 0.930920 0.500000 0.500000 0.924033
Zn6   Zn    Zn3+2 0.500000 0.930920 0.500000 0.932991
Zn7   Zn    Zn3+2 0.069080 0.500000 0.500000 0.931295
Zn8   Zn    Zn3+2 1.000000 0.569080 0.000000 0.942627
Zn9   Zn    Zn3+2 0.430920 0.000000 0.000000 0.930087
Zn10  Zn    Zn3+2 1.000000 0.430920 0.000000 0.925094
Zn11  Zn    Zn3+2 0.569080 0.000000 0.000000 0.925227
Zn12  Zn    Zn3+2 0.000000 1.000000 0.562420 0.857691

loop_
_geom_bond_atom_site_label_1
_geom_bond_atom_site_label_2
_ccdc_geom_bond_type
C71   H188  S    
O2    Zn9   S    
O1    Zn1   S    
C78   H214  S    
C1    C176  S    
O17   Zn5   S    
C151  H132  S    
C119  H58   S    
C134  H97   S    
C8    C26   A    
C15   C109  S    
C13   C222  A    
C125  H67   S    
C64   H135  S    
C61   H124  S    
C166  H172  S    
C15   C32   A    
C149  H127  S    
C110  H33   S    
C85   H231  S    
C126  C127  S    
C105  H26   S    
C234  H46   S    
C162  H162  S    
C113  C184  A    
C195  C203  S    
C144  H116  S    
C152  H141  S    
C143  C144  S    
C44   C168  A    
C74   H203  S    
C36   C53   A    
C19   C37   A    
O21   Zn11  S    
C236  H68   S    
C38   C55   A    
C88   H233  S    
C170  C187  S    
C209  C218  T    
C227  O8    A    
C2    C177  A    
C103  H19   S    
C196  C204  S    
C159  H159  S    
C64   H157  S    
C12   C30   A    
C206  C214  T    
C35   C178  A    
C197  O15   A    
C67   H187  S    
C50   C57   A    
O16   Zn6   S    
C220  C238  A    
O44   Zn1   S    
C59   C171  A    
C62   H79   S    
C86   H227  S    
C34   C150  S    
C80   H210  S    
C116  H45   S    
C142  H110  S    
C40   C58   A    
C95   H250  S    
C129  H76   S    
C139  H107  S    
C92   C246  S    
C32   C145  S    
C77   H205  S    
C2    C221  A    
C56   C174  A    
C82   H218  S    
O15   Zn7   S    
C21   C123  S    
C124  C182  A    
C165  H174  S    
C65   H182  S    
C133  H87   S    
C131  H83   S    
C137  H103  S    
C66   H177  S    
C148  H130  S    
C39   C56   A    
C146  C180  A    
C60   C157  A    
C154  C155  S    
O34   Zn7   S    
C112  O45   A    
O9    Zn1   S    
C14   C107  S    
C195  O13   A    
C144  H117  S    
C87   H236  S    
C12   C242  A    
C128  H81   S    
C83   H225  S    
C186  O28   A    
C62   H101  S    
C225  C243  A    
C17   C34   A    
C200  O25   A    
C189  O36   A    
C113  C232  A    
C105  C106  S    
C208  C217  T    
O48   Zn8   S    
C94   H252  S    
C7    C236  A    
C27   C134  S    
C34   C52   A    
C37   C154  S    
C114  H38   S    
C28   C137  S    
C72   C73   S    
C23   C41   A    
O33   Zn2   S    
O22   Zn8   S    
C139  C140  S    
C68   C228  A    
C69   H184  S    
C126  H74   S    
O11   Zn6   S    
C200  C209  S    
C111  H41   S    
C194  O48   A    
C54   C174  A    
C156  C158  S    
C76   C241  S    
C62   H90   S    
C235  H57   S    
C13   C45   A    
C114  H40   S    
C145  H126  S    
C223  C241  A    
C121  H64   S    
C73   H195  S    
C84   H222  S    
C171  C192  S    
C130  C131  S    
C148  C149  S    
O42   Zn4   S    
C31   C143  S    
C160  H154  S    
C205  O6    A    
C48   C169  A    
C195  O10   A    
C102  H10   S    
C98   C99   S    
C76   H208  S    
C97   H254  S    
C199  O19   A    
C104  H16   S    
C96   H3    S    
C16   C111  S    
C23   C128  S    
C9    C98   S    
C123  H69   S    
C229  C246  A    
C54   C101  A    
C129  H78   S    
C164  H166  S    
C14   C31   A    
C108  H27   S    
C128  C129  S    
C53   C173  A    
C7    C85   S    
C85   C86   S    
O13   Zn7   S    
C30   C141  S    
O39   Zn3   S    
C29   C47   A    
C75   H201  S    
C30   C48   A    
C136  H94   S    
C78   C80   S    
C6    C78   S    
C163  H170  S    
C13   C178  A    
C79   C229  A    
C18   C247  A    
C158  H151  S    
C2    C44   A    
C21   C39   A    
C107  C108  S    
C157  C184  A    
C89   C91   S    
C52   C79   A    
C120  H55   S    
C42   C165  S    
C75   H200  S    
C63   C243  S    
C106  H23   S    
C122  H60   S    
C46   C177  A    
C80   H212  S    
C70   C240  S    
C25   C130  S    
O27   Zn12  S    
C100  C102  S    
C19   C248  A    
O12   Zn5   S    
C150  H137  S    
C72   C239  S    
C186  O35   A    
C118  H50   S    
C115  H47   S    
C153  H139  S    
C81   H220  S    
C134  H96   S    
C104  H17   S    
C49   C168  A    
C36   C152  S    
O8    Zn9   S    
C229  H246  S    
C116  H44   S    
C122  H61   S    
C210  C219  T    
C89   C247  S    
C95   H251  S    
C227  O4    A    
C183  O34   A    
C92   H247  S    
C216  O5    A    
C160  H156  S    
C140  H106  S    
C83   C84   S    
C90   C181  A    
C55   C175  A    
C97   H256  S    
O40   Zn4   S    
C135  C234  A    
C138  H100  S    
O6    Zn11  S    
C188  O30   A    
C233  H35   S    
C5    C234  A    
C11   C241  A    
C135  C181  A    
C108  H29   S    
C53   C90   A    
C17   C115  S    
O30   Zn12  S    
C24   C223  A    
C172  C178  S    
C60   C175  A    
C78   H215  S    
C70   H193  S    
C198  C207  S    
C79   C180  A    
O41   Zn4   S    
C125  H66   S    
C45   C169  A    
C166  H173  S    
C110  H34   S    
C43   C167  A    
C58   C135  A    
C61   H113  S    
C85   H230  S    
C68   C179  A    
C117  C118  S    
C201  O26   A    
C105  H25   S    
C161  H164  S    
C35   C224  A    
C67   C245  S    
C71   H190  S    
C156  H153  S    
C158  H149  S    
C63   H168  S    
C151  H134  S    
C167  C188  S    
C199  C208  S    
C46   C225  A    
C127  H73   S    
C61   C62   S    
C74   H204  S    
O46   Zn6   S    
C19   C119  S    
C63   C64   S    
C152  C153  S    
C106  H21   S    
C150  C151  S    
C90   C230  A    
O23   Zn6   S    
C222  H180  S    
C107  H30   S    
C143  H120  S    
O29   Zn12  S    
C112  O12   A    
C230  C247  A    
C89   H242  S    
C176  C238  A    
C87   C88   S    
C198  O20   A    
C156  H152  S    
O32   Zn2   S    
C190  O43   A    
C161  C162  S    
C197  C206  S    
C190  O37   A    
C26   C132  S    
C130  H85   S    
C86   H228  S    
C16   C245  A    
C46   C49   A    
C142  H111  S    
C132  H91   S    
C95   H249  S    
C56   C124  A    
C63   H176  S    
C169  C186  S    
C99   H6    S    
C12   C105  S    
C123  C125  S    
C72   H197  S    
C138  H98   S    
C154  H147  S    
C188  O32   A    
C140  H104  S    
C65   H181  S    
C146  C235  A    
O7    Zn10  S    
C137  H102  S    
C66   H178  S    
C127  H71   S    
C231  C248  A    
C9    C239  A    
C228  H235  S    
C70   C71   S    
C202  C211  T    
C147  H122  S    
C91   H240  S    
C141  H115  S    
C225  H213  S    
C196  O14   A    
C231  H13   S    
C144  H118  S    
C220  H1    S    
O37   Zn3   S    
C24   C47   A    
C31   C49   A    
C35   C48   A    
C120  H54   S    
C166  H171  S    
C145  C147  S    
C149  H128  S    
C110  H32   S    
C94   H253  S    
C232  H24   S    
C162  H161  S    
C152  H142  S    
C226  H224  S    
C69   H183  S    
C126  H75   S    
C193  C202  S    
O25   Zn10  S    
C191  O42   A    
O19   Zn9   S    
C33   C148  S    
C77   H207  S    
C159  C160  S    
C100  H15   S    
C145  H125  S    
C121  H63   S    
C207  C215  T    
C73   H194  S    
C3    C20   A    
C64   H146  S    
C103  H20   S    
C10   C100  S    
O31   Zn2   S    
C18   C117  S    
C223  H191  S    
C121  C122  S    
C119  H59   S    
C174  C190  S    
C124  C233  A    
C98   H9    S    
C221  C239  A    
C198  O18   A    
C41   C163  S    
O18   Zn8   S    
C1    O1    A    
C220  C237  A    
C58   C173  A    
C96   H4    S    
C211  C219  S    
C194  O7    A    
C9    C27   A    
C137  C138  S    
C10   C28   A    
C142  H109  S    
C205  O2    A    
C116  H43   S    
C39   C159  S    
C131  H82   S    
C51   C170  A    
C129  H77   S    
C93   H245  S    
C139  H108  S    
C108  H28   S    
C25   C42   A    
C193  O9    A    
C119  C120  S    
C157  C236  A    
C33   C51   A    
C57   C226  A    
C77   H206  S    
O36   Zn3   S    
C150  H136  S    
C7    C25   A    
C147  H123  S    
C199  O21   A    
C82   H217  S    
C40   C161  S    
C165  H175  S    
C109  C110  S    
C133  H88   S    
C175  C191  S    
C131  H84   S    
C224  C242  A    
C163  H169  S    
C4    C83   S    
C192  O39   A    
C222  C240  A    
C92   C93   S    
C111  C114  S    
C93   H244  S    
C94   C95   S    
C91   H238  S    
C14   C243  A    
C196  O16   A    
C99   H5    S    
C117  H53   S    
C103  C104  S    
C83   H226  S    
C76   H209  S    
C172  O44   A    
C184  C227  S    
C87   H237  S    
O5    Zn8   S    
C18   C36   A    
C120  H56   S    
C115  C116  S    
O26   Zn9   S    
C112  C177  S    
C201  O24   A    
C75   H199  S    
C6    C235  A    
C10   C240  A    
C165  C166  S    
C4    C233  A    
C163  C164  S    
C8    C96   S    
O24   Zn11  S    
C38   C156  S    
C107  H31   S    
C224  H202  S    
C81   C82   S    
C87   C248  S    
C8    C237  A    
C102  H11   S    
C117  H52   S    
C111  H42   S    
C118  H51   S    
C153  H138  S    
C70   H192  S    
C81   H219  S    
C104  H18   S    
C172  O23   A    
C149  H129  S    
C114  H39   S    
C22   C126  S    
C155  H144  S    
C122  H62   S    
C73   H196  S    
C5    C81   S    
C84   H221  S    
C72   H198  S    
C159  H158  S    
C162  H160  S    
C92   H248  S    
C99   H7    S    
C226  C244  A    
C5    C22   A    
C127  H72   S    
C132  C133  S    
O14   Zn1   S    
C97   H255  S    
C128  H80   S    
O45   Zn7   S    
O47   Zn5   S    
C109  H37   S    
C61   C244  S    
C123  H70   S    
C182  C216  S    
C164  H165  S    
C216  O3    A    
C27   C44   A    
C52   C171  A    
C193  O11   A    
C26   C43   A    
C179  C183  S    
O10   Zn5   S    
C197  O17   A    
C29   C139  S    
C28   C45   A    
C74   C75   S    
C147  H121  S    
C98   H8    S    
C76   C77   S    
C41   C59   A    
C125  H65   S    
C136  H93   S    
C189  O40   A    
C42   C60   A    
C133  H89   S    
C109  H36   S    
C213  C217  S    
C214  C215  S    
C148  H131  S    
C134  C136  S    
C228  C245  A    
C55   C113  A    
C191  O38   A    
C204  C213  T    
C67   H186  S    
C93   H243  S    
C67   C69   S    
C181  C205  S    
C161  H163  S    
C43   C238  A    
C16   C33   A    
C57   C176  A    
C20   C38   A    
C71   H189  S    
C158  H150  S    
C183  O47   A    
C151  H133  S    
C155  H143  S    
C96   C97   S    
C24   C179  A    
C82   H216  S    
C187  O33   A    
C22   C40   A    
C101  C231  A    
C200  O22   A    
O43   Zn4   S    
C32   C50   A    
C20   C121  S    
C1    O46   A    
C37   C54   A    
C221  H112  S    
C100  H14   S    
C106  H22   S    
C203  C212  T    
C80   H211  S    
C143  H119  S    
C201  C210  S    
C47   C170  A    
C180  C194  S    
C89   H241  S    
C15   C244  A    
O4    Zn11  S    
C168  C185  S    
C118  H49   S    
C69   H185  S    
C115  H48   S    
C153  H140  S    
C102  H12   S    
C88   H234  S    
C192  O41   A    
C3    C232  A    
O20   Zn10  S    
C88   H232  S    
C130  H86   S    
C86   H229  S    
C65   C242  S    
C136  H95   S    
C132  H92   S    
C84   H223  S    
C74   C237  S    
C185  O27   A    
O28   Zn12  S    
C160  H155  S    
C141  C142  S    
C4    C21   A    
O35   Zn2   S    
C140  H105  S    
C155  H145  S    
C212  C218  S    
C17   C246  A    
O3    Zn10  S    
C6    C23   A    
C185  O31   A    
C173  C189  S    
C138  H99   S    
C3    C94   S    
C154  H148  S    
C51   C68   A    
C187  O29   A    
O38   Zn3   S    
C59   C146  A    
C66   H179  S    
C11   C29   A    
C65   C66   S    
C50   C167  A    
C11   C103  S    
C164  H167  S    
C230  H2    S    
C101  C182  A    
C91   H239  S    
C141  H114  S    
