data_mof_unit_27497.cif
_audit_creation_date              2012-10-26T21:33:01-0400
_audit_creation_method            fapswitch 2.2
_symmetry_space_group_name_H-M    P1
_symmetry_Int_Tables_number       1
_space_group_crystal_system       triclinic
_cell_length_a                    28.09808
_cell_length_b                    18.422151
_cell_length_c                    17.102835
_cell_angle_alpha                 89.778129
_cell_angle_beta                  60.658711
_cell_angle_gamma                 89.859661
_cell_volume                      7717.15020165

loop_
_atom_site_label
_atom_site_type_symbol
_atom_type_description
_atom_site_fract_x
_atom_site_fract_y
_atom_site_fract_z
_atom_type_partial_charge
C1    C     C_R   0.700750 0.265692 0.676795 0.924387
C2    C     C_R   0.954023 0.633205 0.501686 -0.282560
C3    C     C_R   0.074837 0.900820 0.933117 0.956032
C4    C     C_R   0.574470 0.599516 0.933477 0.954357
C5    C     C_R   0.425079 0.401128 0.066955 0.956472
C6    C     C_R   0.425102 0.598887 0.066796 0.956680
C7    C     C_R   0.574601 0.400747 0.933435 0.957795
C8    C     C_R   0.547494 0.996760 0.507550 0.041558
C9    C     C_R   0.452385 0.003418 0.491929 0.041999
C10   C     C_R   0.027222 0.501838 0.566222 0.043560
C11   C     C_R   0.934521 0.507055 0.544692 0.043122
C12   C     C_R   0.540176 0.055390 0.460473 0.012129
C13   C     C_R   0.913372 0.382419 0.592648 -0.291561
C14   C     C_R   0.459704 0.944858 0.539098 0.014269
C15   C     C_R   0.491488 0.059914 0.454854 0.010243
C16   C     C_R   0.508471 0.940177 0.544360 0.012004
C17   C     C_R   0.003683 0.569308 0.566567 0.007037
C18   C     C_R   0.949111 0.441589 0.569593 0.008406
C19   C     C_R   0.962493 0.571613 0.541556 0.002342
C20   C     C_R   0.000295 0.437414 0.565977 0.007418
C21   C     C_R   0.605794 0.933801 0.555843 -0.088016
C22   C     C_R   0.394189 0.066052 0.443099 -0.091860
C23   C     C_R   0.368696 0.946399 0.510098 -0.096002
C24   C     C_R   0.023656 0.631112 0.588625 -0.280383
C25   C     C_R   0.630955 0.053908 0.490273 -0.082210
C26   C     C_R   0.109812 0.433975 0.534141 -0.096181
C27   C     C_R   0.885545 0.568766 0.478836 -0.093569
C28   C     C_R   0.863366 0.443077 0.527977 -0.083733
C29   C     C_R   0.104010 0.563672 0.567953 -0.091518
C30   C     C_R   0.654496 0.933852 0.560946 -0.144253
C31   C     C_R   0.345440 0.066076 0.438038 -0.153458
C32   C     C_R   0.332090 0.940600 0.475040 -0.229377
C33   C     C_R   0.667382 0.059558 0.525860 -0.228605
C34   C     C_R   0.164798 0.435796 0.519068 -0.183326
C35   C     C_R   0.520206 0.880069 0.583871 -0.292981
C36   C     C_R   0.843848 0.566285 0.454154 -0.145713
C37   C     C_R   0.831406 0.439407 0.483252 -0.222638
C38   C     C_R   0.161499 0.563283 0.538973 -0.228272
C39   C     C_R   0.674034 0.999600 0.570222 0.277149
C40   C     C_R   0.325138 0.000196 0.430661 0.315319
C41   C     C_R   0.192033 0.500830 0.500743 0.342852
C42   C     C_R   0.827969 0.500329 0.437407 0.274041
C43   C     C_R   0.594340 0.994958 0.518366 -0.086878
C44   C     C_R   0.405471 0.005179 0.481276 -0.082548
C45   C     C_R   0.079956 0.499455 0.558011 -0.074570
C46   C     C_R   0.479880 0.119758 0.414789 -0.290262
C47   C     C_R   0.894352 0.506433 0.517440 -0.087494
C48   C     C_R   0.084460 0.372163 0.519630 0.685210
C49   C     C_R   0.919328 0.630219 0.464937 0.704414
C50   C     C_R   0.868309 0.385682 0.579076 0.664092
C51   C     C_R   0.070356 0.626502 0.598002 0.678557
C52   C     C_R   0.567932 0.876765 0.589439 0.690908
C53   C     C_R   0.432169 0.122940 0.409099 0.691284
C54   C     C_R   0.371523 0.895792 0.569535 0.651630
C55   C     C_R   0.628216 0.104587 0.430797 0.661524
C56   C     C_R   0.416464 0.894813 0.583015 -0.277194
C57   C     C_R   0.583370 0.105588 0.416986 -0.280316
C58   C     C_R   0.720426 0.267810 0.955707 0.185912
C59   C     C_R   0.276200 0.725055 0.045992 0.156215
C60   C     C_R   0.276865 0.272535 0.046109 0.165378
C61   C     C_R   0.299236 0.734467 0.323108 1.028587
C62   C     C_R   0.720868 0.730376 0.956010 0.170794
C63   C     C_R   0.216273 0.752815 0.955276 0.182191
C64   C     C_R   0.780600 0.235093 0.043984 0.161811
C65   C     C_R   0.781576 0.762159 0.043804 0.170722
C66   C     C_R   0.216866 0.245220 0.955209 0.172270
C67   C     C_R   0.695435 0.231769 0.038830 -0.089833
C68   C     C_R   0.302125 0.754146 0.958717 -0.186289
C69   C     C_R   0.220572 0.287772 0.087220 -0.071085
C70   C     C_R   0.775294 0.706840 0.919953 -0.074840
C71   C     C_R   0.190460 0.722596 0.041921 -0.094119
C72   C     C_R   0.299527 0.265036 0.323179 1.005665
C73   C     C_R   0.805585 0.271197 0.960905 -0.176335
C74   C     C_R   0.726953 0.784835 0.080473 -0.081885
C75   C     C_R   0.273342 0.231559 0.913369 -0.081636
C76   C     C_R   0.725401 0.214948 0.082173 -0.049149
C77   C     C_R   0.272459 0.768058 0.913986 -0.082665
C78   C     C_R   0.190771 0.273311 0.042773 -0.131971
C79   C     C_R   0.805564 0.723336 0.962876 -0.104450
C80   C     C_R   0.220310 0.707754 0.086225 -0.038822
C81   C     C_R   0.775597 0.288109 0.917614 -0.077683
C82   C     C_R   0.696802 0.768768 0.037258 -0.116464
C83   C     C_R   0.700744 0.734447 0.676702 0.966713
C84   C     C_R   0.303014 0.245300 0.958112 -0.136012
C85   C     C_R   0.645990 0.329535 0.943339 -0.344021
C86   C     C_R   0.351812 0.666645 0.058516 -0.326543
C87   C     C_R   0.352102 0.332636 0.058575 -0.334468
C88   C     C_R   0.645811 0.670566 0.943722 -0.343538
C89   C     C_R   0.143844 0.822882 0.943916 -0.336260
C90   C     C_R   0.854738 0.172150 0.056162 -0.334898
C91   C     C_R   0.855462 0.826295 0.055764 -0.338307
C92   C     C_R   0.144242 0.175890 0.943600 -0.336442
C93   C     C_R   0.616973 0.346413 0.898022 -0.186147
C94   C     C_R   0.199550 0.763383 0.676718 0.967219
C95   C     C_R   0.381933 0.652105 0.102638 -0.183812
C96   C     C_R   0.382259 0.347383 0.102626 -0.199933
C97   C     C_R   0.616775 0.654147 0.898321 -0.196642
C98   C     C_R   0.115988 0.844406 0.897893 -0.201412
C99   C     C_R   0.883408 0.154259 0.101790 -0.187854
C100  C     C_R   0.883876 0.844840 0.101629 -0.197514
C101  C     C_R   0.116088 0.155322 0.897798 -0.191390
C102  C     C_R   0.630969 0.315657 0.816322 0.537515
C103  C     C_R   0.368390 0.684001 0.183473 0.559415
C104  C     C_R   0.369147 0.314940 0.183218 0.532435
C105  C     C_R   0.799435 0.234652 0.323206 0.929957
C106  C     C_R   0.630724 0.685550 0.816825 0.544046
C107  C     C_R   0.129714 0.815317 0.815312 0.548424
C108  C     C_R   0.869378 0.184656 0.183720 0.538437
C109  C     C_R   0.870073 0.814117 0.183524 0.544974
C110  C     C_R   0.129585 0.185119 0.815528 0.537365
C111  C     C_R   0.677527 0.273778 0.773902 -0.310307
C112  C     C_R   0.321468 0.725052 0.226255 -0.287722
C113  C     C_R   0.322469 0.273583 0.226043 -0.294880
C114  C     C_R   0.677814 0.726358 0.773758 -0.302711
C115  C     C_R   0.173941 0.769327 0.774246 -0.302089
C116  C     C_R   0.799832 0.764471 0.323268 0.962946
C117  C     C_R   0.823087 0.227068 0.225990 -0.291163
C118  C     C_R   0.824042 0.771261 0.225834 -0.307263
C119  C     C_R   0.174026 0.230580 0.774200 -0.324432
C120  C     C_R   0.704844 0.249668 0.822453 0.399619
C121  C     C_R   0.292868 0.746967 0.178720 0.284479
C122  C     C_R   0.294398 0.250819 0.178339 0.373157
C123  C     C_R   0.705913 0.749265 0.821512 0.377267
C124  C     C_R   0.197801 0.738929 0.824407 0.378537
C125  C     C_R   0.796270 0.252231 0.177204 0.321872
C126  C     C_R   0.797681 0.745283 0.176940 0.370406
C127  C     C_R   0.199562 0.236585 0.676636 0.919251
C128  C     C_R   0.198232 0.260154 0.824059 0.297376
C129  C     C_R   0.689664 0.281216 0.906695 -0.059802
C130  C     C_R   0.307441 0.713947 0.095193 -0.051758
C131  C     C_R   0.308307 0.284264 0.095007 -0.049143
C132  C     C_R   0.690066 0.718053 0.906644 -0.065610
C133  C     C_R   0.184756 0.769886 0.908100 -0.048565
C134  C     C_R   0.811410 0.221114 0.092762 -0.061903
C135  C     C_R   0.812623 0.776423 0.092245 -0.062599
C136  C     C_R   0.185342 0.228639 0.907761 -0.038046
C137  C     C_R   0.695462 0.127089 0.521393 0.909534
C138  C     C_R   0.029240 0.372318 0.545489 -0.293406
C139  C     C_R   0.304454 0.872879 0.478763 0.999266
C140  C     C_R   0.309614 0.129957 0.461976 0.910367
C141  C     C_R   0.690473 0.870142 0.537394 0.928489
C142  C     C_R   0.192078 0.628771 0.531607 0.980796
C143  C     C_R   0.804172 0.372731 0.480720 0.905740
C144  C     C_R   0.808925 0.629322 0.466609 0.917982
C145  C     C_R   0.194695 0.371828 0.520952 0.944515
C146  C     C_R   0.074844 0.099121 0.933012 0.949631
C147  C     C_R   0.925482 0.900506 0.066635 0.956917
C148  C     C_R   0.925448 0.099363 0.066536 0.950652
F1    F     F_    0.113156 0.317714 0.462658 -0.611388
F2    F     F_    0.399564 0.671806 0.223052 -0.615741
F3    F     F_    0.400183 0.327329 0.222889 -0.595986
F4    F     F_    0.600084 0.672500 0.776604 -0.600314
F5    F     F_    0.101627 0.834769 0.772394 -0.599986
F6    F     F_    0.899244 0.169501 0.224894 -0.623488
F7    F     F_    0.899698 0.829676 0.224865 -0.603028
F8    F     F_    0.101094 0.166771 0.773091 -0.626247
F9    F     F_    0.924343 0.684025 0.406846 -0.611217
F10   F     F_    0.828975 0.334833 0.620367 -0.637796
F11   F     F_    0.081060 0.682921 0.637786 -0.628222
F12   F     F_    0.574027 0.820787 0.635718 -0.617081
F13   F     F_    0.426069 0.178764 0.362628 -0.616199
F14   F     F_    0.329324 0.850626 0.620377 -0.662551
F15   F     F_    0.670501 0.149606 0.379982 -0.647147
F16   F     F_    0.600711 0.329863 0.775588 -0.622233
H1    H     H_    0.012304 0.323631 0.533426 0.190739
H2    H     H_    0.199629 0.683771 0.152578 0.166461
H3    H     H_    0.346293 0.233296 0.924676 0.157818
H4    H     H_    0.655017 0.787537 0.066207 0.157275
H5    H     H_    0.293183 0.791840 0.847480 0.173577
H6    H     H_    0.705483 0.186631 0.145918 0.164613
H7    H     H_    0.847416 0.704820 0.933813 0.155465
H8    H     H_    0.147382 0.284577 0.076422 0.158971
H9    H     H_    0.653070 0.215362 0.069129 0.155216
H10   H     H_    0.345134 0.767628 0.926017 0.160635
H11   H     H_    0.199588 0.310215 0.154210 0.183682
H12   H     H_    0.978719 0.681356 0.489565 0.191744
H13   H     H_    0.794522 0.676567 0.857823 0.154595
H14   H     H_    0.147297 0.710019 0.074906 0.160685
H15   H     H_    0.847966 0.287532 0.930579 0.152575
H16   H     H_    0.707677 0.814891 0.142772 0.162738
H17   H     H_    0.294357 0.209228 0.846291 0.156978
H18   H     H_    0.635319 0.354991 0.006908 0.219226
H19   H     H_    0.362227 0.640048 0.995688 0.211784
H20   H     H_    0.362121 0.359716 0.995985 0.213095
H21   H     H_    0.634886 0.645022 0.007543 0.216869
H22   H     H_    0.134244 0.847893 0.007239 0.219447
H23   H     H_    0.918975 0.334719 0.624477 0.189124
H24   H     H_    0.865357 0.146940 0.992484 0.210229
H25   H     H_    0.865873 0.851697 0.992083 0.217743
H26   H     H_    0.134688 0.150348 0.006822 0.213604
H27   H     H_    0.666410 0.121658 0.691786 0.334715
H28   H     H_    0.354858 0.920426 0.223573 0.391267
H29   H     H_    0.307753 0.442041 0.287511 0.380655
H30   H     H_    0.833811 0.379703 0.308529 0.343427
H31   H     H_    0.787630 0.103803 0.843941 0.390754
H32   H     H_    0.274817 0.883367 0.098467 0.361415
H33   H     H_    0.158047 0.171374 0.304528 0.390923
H34   H     H_    0.001960 0.682234 0.602420 0.189648
H35   H     H_    0.788383 0.903956 0.683970 0.395583
H36   H     H_    0.255872 0.568526 0.852718 0.409635
H37   H     H_    0.781825 0.393486 0.099510 0.368181
H38   H     H_    0.660032 0.669222 0.299085 0.387881
H39   H     H_    0.180420 0.403125 0.767056 0.345304
H40   H     H_    0.493443 0.833914 0.610468 0.181735
H41   H     H_    0.506744 0.165775 0.387789 0.185022
H42   H     H_    0.415614 0.854909 0.629918 0.178668
H43   H     H_    0.584269 0.145632 0.370190 0.184431
H44   H     H_    0.795506 0.316463 0.853896 0.166361
O1    O     O_R   0.746490 0.236330 0.638080 -0.532260
O2    O     O_R   0.325830 0.813840 0.483730 -0.594065
O3    O     O_R   0.325830 0.186160 0.483730 -0.596828
O4    O     O_R   0.674170 0.813840 0.516270 -0.591338
O5    O     O_R   0.174170 0.686160 0.516270 -0.588776
O6    O     O_R   0.825830 0.313840 0.483730 -0.577550
O7    O     O_R   0.825830 0.686160 0.483730 -0.588342
O8    O     O_R   0.174170 0.313840 0.516270 -0.579715
O9    O     O_R   0.739960 0.127620 0.525000 -0.603247
O10   O     O_R   0.260040 0.872380 0.475000 -0.585336
O11   O     O_R   0.260040 0.127620 0.475000 -0.599671
O12   O     O_R   0.253510 0.763670 0.361920 -0.572181
O13   O     O_R   0.739960 0.872380 0.525000 -0.600976
O14   O     O_R   0.239960 0.627620 0.525000 -0.565122
O15   O     O_R   0.760040 0.372380 0.475000 -0.604386
O16   O     O_R   0.760040 0.627620 0.475000 -0.593682
O17   O     O_R   0.239960 0.372380 0.525000 -0.558194
O18   O     O_R   0.680700 0.294870 0.629350 -0.569836
O19   O     O_R   0.319300 0.705130 0.370650 -0.539289
O20   O     O_R   0.319300 0.294870 0.370650 -0.525078
O21   O     O_R   0.680700 0.705130 0.629350 -0.547849
O22   O     O_R   0.180700 0.794870 0.629350 -0.553937
O23   O     O_R   0.253510 0.236330 0.361920 -0.559998
O24   O     O_R   0.819300 0.205130 0.370650 -0.567029
O25   O     O_R   0.819300 0.794870 0.370650 -0.547103
O26   O     O_R   0.180700 0.205130 0.629350 -0.565696
O27   O     O_R   0.062020 0.072840 0.007170 -0.637654
O28   O     O_R   0.937980 0.927160 0.992830 -0.638124
O29   O     O_R   0.937980 0.072840 0.992830 -0.642771
O30   O     O_R   0.062020 0.927160 0.007170 -0.633614
O31   O     O_R   0.562020 0.572840 0.007170 -0.639888
O32   O     O_R   0.437980 0.427160 0.992830 -0.639888
O33   O     O_R   0.437980 0.572840 0.992830 -0.641833
O34   O     O_R   0.746490 0.763670 0.638080 -0.581333
O35   O     O_R   0.562020 0.427160 0.007170 -0.636393
O36   O     O_R   0.947860 0.073950 0.109290 -0.549342
O37   O     O_R   0.052140 0.926050 0.890710 -0.546832
O38   O     O_R   0.052140 0.073950 0.890710 -0.548801
O39   O     O_R   0.947860 0.926050 0.109290 -0.548066
O40   O     O_R   0.447860 0.573950 0.109290 -0.545910
O41   O     O_R   0.552140 0.426050 0.890710 -0.551818
O42   O     O_R   0.552140 0.573950 0.890710 -0.551101
O43   O     O_R   0.447860 0.426050 0.109290 -0.547450
O44   O     O_2   0.666677 0.939514 0.717757 -0.206309
O45   O     O_R   0.246490 0.736330 0.638080 -0.554328
O46   O     O_2   0.746661 0.015428 0.627173 -0.231837
O47   O     O_3   0.651300 0.077279 0.727971 -0.481849
O48   O     O_2   0.251955 0.991655 0.373629 -0.181332
O49   O     O_2   0.339532 0.050887 0.274183 -0.270555
O50   O     O_3   0.339088 0.910527 0.288561 -0.565924
O51   O     O_2   0.267911 0.571636 0.353429 -0.340060
O52   O     O_2   0.300675 0.504110 0.441887 -0.222894
O53   O     O_3   0.272078 0.432046 0.341308 -0.576308
O54   O     O_2   0.759795 0.488544 0.370393 -0.194624
O55   O     O_2   0.842006 0.562041 0.285889 -0.225970
O56   O     O_R   0.753510 0.263670 0.361920 -0.539378
O57   O     O_3   0.854575 0.423566 0.277258 -0.502499
O58   O     O_2   0.744999 0.124390 0.729324 -0.194089
O59   O     O_2   0.810778 0.211423 0.728145 -0.272199
O60   O     O_3   0.753924 0.133540 0.870816 -0.549978
O61   O     O_2   0.186885 0.782874 0.278009 -0.259525
O62   O     O_2   0.252163 0.873718 0.269748 -0.190339
O63   O     O_3   0.238997 0.858905 0.132687 -0.521385
O64   O     O_2   0.244752 0.140561 0.140014 -0.291726
O65   O     O_2   0.258229 0.123376 0.268629 -0.189413
O66   O     O_3   0.183045 0.213613 0.284542 -0.519231
O67   O     O_R   0.753510 0.736330 0.361920 -0.575706
O68   O     O_2   0.813372 0.776499 0.724039 -0.332056
O69   O     O_2   0.762016 0.854982 0.853973 -0.280236
O70   O     O_3   0.752810 0.878466 0.714558 -0.430144
O71   O     O_2   0.221007 0.611634 0.735224 -0.265557
O72   O     O_2   0.297296 0.678415 0.732554 -0.268464
O73   O     O_3   0.230285 0.609907 0.878332 -0.544372
O74   O     O_2   0.690790 0.291462 0.274141 -0.220400
O75   O     O_2   0.757526 0.377961 0.270243 -0.211108
O76   O     O_3   0.745892 0.368941 0.131088 -0.522911
O77   O     O_2   0.748726 0.632612 0.140860 -0.285897
O78   O     O_R   0.246490 0.263670 0.638080 -0.572163
O79   O     O_2   0.758377 0.620721 0.273734 -0.175764
O80   O     O_3   0.685656 0.710781 0.279442 -0.571485
O81   O     O_2   0.297589 0.320988 0.732287 -0.254441
O82   O     O_2   0.231438 0.384171 0.867857 -0.283155
O83   O     O_3   0.219789 0.393407 0.727244 -0.487470
O84   O     O_R   0.674170 0.186160 0.516270 -0.580171
S1    S     S_3+6 0.686460 0.007206 0.661594 0.122359
S2    S     S_3+6 0.746410 0.323664 0.216276 0.085452
S3    S     S_3+6 0.747861 0.673808 0.217248 0.069780
S4    S     S_3+6 0.238406 0.340972 0.788513 0.063314
S5    S     S_3+6 0.312381 0.989953 0.339984 0.103086
S6    S     S_3+6 0.260331 0.504275 0.408129 0.065485
S7    S     S_3+6 0.819450 0.494568 0.341634 0.121677
S8    S     S_3+6 0.755115 0.178761 0.784197 0.076309
S9    S     S_3+6 0.241586 0.816692 0.217933 0.067192
S10   S     S_3+6 0.245310 0.178641 0.217150 0.070771
S11   S     S_3+6 0.760055 0.815397 0.778913 0.061796
S12   S     S_3+6 0.238159 0.658239 0.789101 0.064413
Zn1   Zn    Zn3+2 0.792340 0.208750 0.507670 1.182974
Zn2   Zn    Zn3+2 0.494040 0.500000 0.919480 1.086007
Zn3   Zn    Zn3+2 0.005960 1.000000 0.080520 1.095511
Zn4   Zn    Zn3+2 0.994040 1.000000 0.919480 1.085489
Zn5   Zn    Zn3+2 0.207660 0.791250 0.492330 1.212566
Zn6   Zn    Zn3+2 0.207660 0.208750 0.492330 1.189572
Zn7   Zn    Zn3+2 0.792340 0.791250 0.507670 1.165139
Zn8   Zn    Zn3+2 0.292340 0.708750 0.507670 1.221099
Zn9   Zn    Zn3+2 0.707660 0.291250 0.492330 1.182732
Zn10  Zn    Zn3+2 0.707660 0.708750 0.492330 1.173697
Zn11  Zn    Zn3+2 0.292340 0.291250 0.507670 1.218256
Zn12  Zn    Zn3+2 0.505960 0.500000 0.080520 1.102669

loop_
_geom_bond_atom_site_label_1
_geom_bond_atom_site_label_2
_ccdc_geom_bond_type
C46   H41   S    
C28   C47   A    
C85   H18   S    
C72   O23   A    
C89   H22   S    
C36   C42   A    
O51   S6    D    
C61   O19   A    
C13   C18   A    
C138  H1    S    
C63   C133  S    
C6    O40   A    
O12   Zn5   S    
C16   C35   A    
C90   C134  A    
C42   S7    S    
O75   S2    D    
O34   Zn7   S    
C62   C70   A    
C128  S4    S    
C37   C42   A    
C120  S8    S    
O5    Zn5   S    
C85   C129  A    
C113  C122  A    
C33   C137  S    
C116  O25   A    
C6    O33   A    
C115  C124  A    
C91   C100  A    
C88   C97   A    
O37   Zn4   S    
C119  C128  A    
C24   C51   A    
C70   C79   A    
C24   H34   S    
C100  C109  A    
C8    C16   A    
C48   F1    S    
C83   C114  S    
C102  C111  A    
O66   S10   S    
C80   H2    S    
C109  C118  A    
C7    C93   S    
C64   C134  S    
C106  F4    S    
O81   S4    D    
C62   C132  S    
C32   C139  S    
O11   Zn6   S    
O64   S10   D    
C101  C110  A    
C145  O17   A    
C72   C113  S    
O44   S1    D    
C29   C45   A    
C103  C112  A    
C41   S6    S    
O8    Zn6   S    
O77   S3    D    
C78   H8    S    
C76   H6    S    
H31   O60   S    
C65   C135  S    
C66   C136  S    
C124  C133  A    
C63   C71   A    
O18   Zn9   S    
C55   C57   A    
C86   H19   S    
O63   S9    S    
O21   Zn10  S    
O2    Zn8   S    
O32   Zn2   S    
C68   C77   A    
O17   Zn11  S    
O71   S12   D    
C2    C19   A    
C122  S10   S    
C25   C55   A    
C142  O5    A    
C59   C80   A    
C94   C115  S    
C48   C138  A    
C9    C15   A    
C55   F15   S    
H33   O66   S    
C139  O10   A    
O14   Zn8   S    
C46   C53   A    
C4    O31   A    
O79   S3    D    
C36   C144  S    
C121  S9    S    
C86   C95   A    
C58   C67   A    
C137  O9    A    
C100  C147  S    
O6    Zn1   S    
C140  O3    A    
C141  O13   A    
C1    O18   A    
C52   F12   S    
C11   C18   A    
C65   C79   A    
C5    O32   A    
C123  C132  A    
C3    C98   S    
O10   Zn5   S    
C121  C130  A    
C25   C43   A    
C50   F10   S    
C99   C108  A    
C91   H25   S    
C83   O34   A    
C30   C141  S    
O39   Zn3   S    
O82   S4    D    
H28   O50   S    
O7    Zn7   S    
C75   C84   A    
H35   O70   S    
C58   C129  S    
C79   H7    S    
O23   Zn6   S    
O15   Zn9   S    
H32   O63   S    
C87   C131  A    
C103  F2    S    
O22   Zn5   S    
C85   C93   A    
C116  C118  S    
C29   C38   A    
C64   C73   A    
H38   O80   S    
O27   Zn3   S    
C147  O28   A    
O70   S11   S    
C4    C97   S    
C49   F9    S    
C95   C103  A    
O62   S9    D    
C89   C133  A    
C1    O1    A    
C120  C129  A    
C105  O24   A    
O65   S10   D    
C38   C41   A    
C10   C20   A    
C86   C130  A    
C65   C74   A    
C137  O84   A    
C145  O8    A    
O24   Zn1   S    
O76   S2    S    
C8    C12   A    
C10   C45   A    
C107  F5    S    
C114  C123  A    
C88   H21   S    
C12   C57   A    
C122  C131  A    
C94   O22   A    
C29   C51   A    
C27   C47   A    
O43   Zn12  S    
C146  O27   A    
C108  C117  A    
C110  C119  A    
C70   H13   S    
C69   H11   S    
C89   C98   A    
O1    Zn1   S    
C112  C121  A    
O60   S8    S    
O61   S9    D    
O13   Zn7   S    
C28   C37   A    
C30   C39   A    
O68   S11   D    
C3    O30   A    
C104  C113  A    
C108  F6    S    
C102  F16   S    
C6    C95   S    
C148  O36   A    
C15   C46   A    
C31   C140  S    
C61   C112  S    
C117  C125  A    
C27   C49   A    
C25   C33   A    
C119  C127  S    
C125  C134  A    
C90   C99   A    
C11   C47   A    
C8    C43   A    
O53   S6    S    
O46   S1    D    
C125  S2    S    
C82   H4    S    
C11   C19   A    
C7    O41   A    
C13   H23   S    
C71   H14   S    
C40   S5    S    
C128  C136  A    
C35   H40   S    
O50   S5    S    
C31   C40   A    
C60   C131  S    
H39   O83   S    
C20   C138  A    
C127  O26   A    
C39   S1    S    
O55   S7    D    
C26   C48   A    
O33   Zn2   S    
C62   C82   A    
C139  O2    A    
O45   Zn8   S    
C105  C117  S    
C92   C136  A    
C34   C41   A    
C74   C82   A    
H37   O76   S    
C92   H26   S    
O67   Zn10  S    
C66   C78   A    
C148  O29   A    
O16   Zn10  S    
C94   O45   A    
O74   S2    D    
C83   O21   A    
H27   O47   S    
C23   C44   A    
C116  O67   A    
C9    C14   A    
O56   Zn9   S    
C140  O11   A    
C12   C15   A    
O78   Zn11  S    
O25   Zn7   S    
O73   S12   S    
C92   C101  A    
C73   C81   A    
C81   H44   S    
C97   C106  A    
O49   S5    D    
C126  C135  A    
O36   Zn3   S    
C5    C96   S    
O28   Zn4   S    
C126  S3    S    
O42   Zn2   S    
H36   O73   S    
C37   C143  S    
C93   C102  A    
C27   C36   A    
C21   C30   A    
C146  O38   A    
C23   C32   A    
O83   S4    S    
C84   H3    S    
C1    C111  S    
O29   Zn4   S    
O3    Zn11  S    
O52   S6    D    
O30   Zn3   S    
C67   H9    S    
C105  O56   A    
C66   C75   A    
O40   Zn12  S    
C109  F7    S    
C110  F8    S    
C98   C107  A    
C91   C135  A    
C72   O20   A    
C35   C52   A    
C3    O37   A    
O69   S11   D    
C14   C56   A    
C99   C148  S    
C59   C130  S    
C5    O43   A    
O4    Zn10  S    
C61   O12   A    
O47   S1    S    
O19   Zn8   S    
C33   C39   A    
C106  C114  A    
C60   C69   A    
C104  F3    S    
C143  O15   A    
C34   C145  S    
C10   C17   A    
O80   S3    S    
O26   Zn6   S    
C2    H12   S    
C21   C43   A    
C28   C50   A    
C26   C34   A    
C22   C44   A    
O9    Zn1   S    
C26   C45   A    
C147  O39   A    
O35   Zn12  S    
C38   C142  S    
C127  O78   A    
C69   C78   A    
H30   O57   S    
C71   C80   A    
C22   C53   A    
C54   C56   A    
C101  C146  S    
O57   S7    S    
C17   C24   A    
C22   C31   A    
O58   S8    D    
O72   S12   D    
O20   Zn11  S    
O84   Zn9   S    
C87   H20   S    
C68   H10   S    
H29   O53   S    
C13   C50   A    
C111  C120  A    
C123  S11   S    
C124  S12   S    
C2    C49   A    
C59   C68   A    
C87   C96   A    
C64   C76   A    
C56   H42   S    
O59   S8    D    
C54   F14   S    
C141  O4    A    
C107  C115  A    
O31   Zn12  S    
C143  O6    A    
O54   S7    D    
C14   C16   A    
C88   C132  A    
C75   H17   S    
C23   C54   A    
C63   C77   A    
C58   C81   A    
C9    C44   A    
C144  O7    A    
O41   Zn2   S    
C57   H43   S    
C96   C104  A    
C4    O42   A    
O48   S5    D    
C60   C84   A    
C53   F13   S    
C90   H24   S    
C51   F11   S    
C17   C19   A    
C18   C20   A    
C32   C40   A    
C144  O16   A    
C73   H15   S    
C74   H16   S    
C77   H5    S    
C7    O35   A    
C67   C76   A    
C118  C126  A    
C142  O14   A    
C21   C52   A    
O38   Zn4   S    
