data_mof_unit_51108.cif
_audit_creation_date              2013-03-05T16:12:31-0500
_audit_creation_method            fapswitch 2.2
_symmetry_space_group_name_H-M    P1
_symmetry_Int_Tables_number       1
_space_group_crystal_system       triclinic
_cell_length_a                    23.700221
_cell_length_b                    7.218841
_cell_length_c                    20.884753
_cell_angle_alpha                 90.0
_cell_angle_beta                  104.841029
_cell_angle_gamma                 90.000088
_cell_volume                      3453.93432888

loop_
_atom_site_label
_atom_site_type_symbol
_atom_site_description
_atom_site_fract_x
_atom_site_fract_y
_atom_site_fract_z
_atom_type_partial_charge
O1    O     O_R   0.449110 0.494310 0.552140 -0.591242
O2    O     O_R   0.550890 0.994310 0.447860 -0.591242
O3    O     O_R   0.440010 0.824420 0.415850 -0.584149
O4    O     O_R   0.559990 0.324420 0.584150 -0.584149
C1    C     C_R   0.425170 0.655693 0.391867 0.901253
C2    C     C_R   0.574830 0.155693 0.608133 0.901252
O5    O     O_R   0.442260 0.824040 0.549660 -0.593533
O6    O     O_R   0.557740 0.324040 0.450340 -0.593533
O7    O     O_R   0.553160 0.993960 0.582620 -0.581888
O8    O     O_R   0.446840 0.493960 0.417380 -0.581889
C3    C     C_R   0.428499 0.655405 0.567478 0.902623
C4    C     C_R   0.571501 0.155405 0.432522 0.902624
O9    O     O_3   0.536380 0.660670 0.510660 -0.282836
O10   O     O_3   0.463620 0.160670 0.489340 -0.282836
V1    V     V_3+5 0.493250 0.935680 0.498020 1.154985
V2    V     V_3+5 0.506750 0.435680 0.501980 1.154985
C5    C     C_R   0.824184 0.909915 0.171754 -0.158632
C6    C     C_R   0.175813 0.409914 0.828243 -0.158630
H1    H     H_    0.804655 0.784424 0.184810 0.113010
H2    H     H_    0.195340 0.284423 0.815184 0.113007
C7    C     C_R   0.863267 0.898078 0.131469 -0.113629
C8    C     C_R   0.136731 0.398078 0.868528 -0.113628
H3    H     H_    0.872851 0.762965 0.114344 0.141820
H4    H     H_    0.127143 0.262964 0.885649 0.141813
C9    C     C_R   0.889242 0.058855 0.113338 -0.086850
C10   C     C_R   0.110759 0.558855 0.886662 -0.086852
C11   C     C_R   0.875235 0.231240 0.137227 -0.104197
C12   C     C_R   0.124769 0.731243 0.862777 -0.104197
H5    H     H_    0.894255 0.358333 0.124786 0.133899
H6    H     H_    0.105751 0.858336 0.875221 0.133908
C13   C     C_R   0.836184 0.242592 0.177360 -0.159742
C14   C     C_R   0.163820 0.742594 0.822645 -0.159749
H7    H     H_    0.826071 0.376951 0.194729 0.108671
H8    H     H_    0.173935 0.876954 0.805278 0.108674
C15   C     C_R   0.810364 0.082280 0.194788 0.174658
C16   C     C_R   0.189636 0.582281 0.805213 0.174658
C17   C     C_1   0.769701 0.095453 0.236059 -0.062753
C18   C     C_1   0.230300 0.595454 0.763942 -0.062753
C19   C     C_1   0.735673 0.107417 0.270471 -0.076035
C20   C     C_1   0.264327 0.607418 0.729529 -0.076035
C21   C     C_R   0.671504 0.959663 0.332010 -0.154248
C22   C     C_R   0.328496 0.459663 0.667990 -0.154248
H9    H     H_    0.683931 0.824674 0.317472 0.108252
H10   H     H_    0.316069 0.324674 0.682528 0.108252
C23   C     C_R   0.631774 0.971197 0.371323 -0.163553
C24   C     C_R   0.368226 0.471197 0.628677 -0.163553
H11   H     H_    0.614617 0.843561 0.386017 0.135279
H12   H     H_    0.385383 0.343561 0.613983 0.135279
C25   C     C_R   0.614436 0.144522 0.391140 -0.123086
C26   C     C_R   0.385564 0.644521 0.608860 -0.123086
C27   C     C_R   0.638300 0.305853 0.370411 -0.164183
C28   C     C_R   0.361700 0.805853 0.629589 -0.164184
H13   H     H_    0.626162 0.441675 0.384397 0.130925
H14   H     H_    0.373838 0.941675 0.615603 0.130925
C29   C     C_R   0.678094 0.293805 0.330988 -0.150016
C30   C     C_R   0.321906 0.793805 0.669012 -0.150016
H15   H     H_    0.695705 0.419802 0.315576 0.107698
H16   H     H_    0.304295 0.919802 0.684424 0.107699
C31   C     C_R   0.694842 0.120645 0.311538 0.181695
C32   C     C_R   0.305158 0.620645 0.688462 0.181696
C33   C     C_R   0.637299 0.193166 0.791205 -0.121993
C34   C     C_R   0.362701 0.693162 0.208795 -0.121992
H17   H     H_    0.552433 0.219896 0.724909 0.109453
H18   H     H_    0.447567 0.719892 0.275091 0.109453
H19   H     H_    0.620982 0.223065 0.834080 0.120719
H20   H     H_    0.379018 0.723060 0.165920 0.120718
C35   C     C_R   0.617392 0.150216 0.673115 -0.084110
C36   C     C_R   0.382608 0.650215 0.326885 -0.084109
C37   C     C_R   0.901220 0.023779 0.771457 -0.163678
C38   C     C_R   0.098779 0.523776 0.228543 -0.163675
C39   C     C_R   0.864269 0.025283 0.708101 -0.086641
C40   C     C_R   0.135731 0.525277 0.291899 -0.086642
C41   C     C_R   0.804787 0.056989 0.698236 -0.139664
C42   C     C_R   0.195213 0.556984 0.301764 -0.139663
C43   C     C_R   0.780028 0.087857 0.752104 0.073282
C44   C     C_R   0.219972 0.587856 0.247896 0.073284
C45   C     C_R   0.818254 0.086808 0.818085 -0.076370
C46   C     C_R   0.181746 0.586811 0.181915 -0.076376
C47   C     C_R   0.718407 0.119636 0.742260 0.090148
C48   C     C_R   0.281593 0.619635 0.257740 0.090147
C49   C     C_R   0.696756 0.157591 0.798168 0.107397
C50   C     C_R   0.303244 0.657589 0.201832 0.107397
C51   C     C_R   0.734049 0.157039 0.861301 -0.290525
C52   C     C_R   0.265951 0.657040 0.138699 -0.290521
C53   C     C_R   0.793159 0.117916 0.871968 0.336119
C54   C     C_R   0.206841 0.617924 0.128033 0.336125
C55   C     C_R   0.677032 0.115000 0.679197 -0.226571
C56   C     C_R   0.322967 0.614999 0.320803 -0.226571
C57   C     C_R   0.598106 0.190625 0.729198 -0.161982
C58   C     C_R   0.401894 0.690621 0.270802 -0.161984
C59   C     C_R   0.879816 0.054859 0.827004 -0.148726
C60   C     C_R   0.120183 0.554860 0.172997 -0.148729
H21   H     H_    0.689450 0.085514 0.634100 0.097365
H22   H     H_    0.310550 0.585516 0.365901 0.097364
H23   H     H_    0.947353 0.998563 0.777230 0.091897
H24   H     H_    0.052647 0.498559 0.222770 0.091897
H25   H     H_    0.779344 0.057594 0.647501 0.103443
H26   H     H_    0.220656 0.557585 0.352499 0.103443
H27   H     H_    0.882018 0.001818 0.665899 0.108828
H28   H     H_    0.117982 0.501809 0.334101 0.108827
O11   O     O_R   0.053190 0.709680 0.082610 -0.589575
O12   O     O_R   0.946810 0.209680 0.917390 -0.589588
O13   O     O_R   0.057740 0.380240 0.950340 -0.581986
O14   O     O_R   0.942260 0.880240 0.049660 -0.581982
C61   C     C_R   0.069593 0.548508 0.930266 1.001866
C62   C     C_R   0.930407 0.048508 0.069734 1.001865
O15   O     O_R   0.060000 0.379940 0.084150 -0.574869
O16   O     O_R   0.940000 0.879940 0.915850 -0.574859
O17   O     O_R   0.949110 0.210100 0.052140 -0.583930
O18   O     O_R   0.050890 0.710100 0.947860 -0.583921
C63   C     C_R   0.075880 0.548566 0.107932 0.959057
C64   C     C_R   0.924120 0.048565 0.892068 0.959064
O19   O     O_3   0.963630 0.543720 0.989330 -0.274035
O20   O     O_3   0.036370 0.043720 0.010670 -0.274028
V3    V     V_3+5 0.006750 0.268680 0.001980 1.227870
V4    V     V_3+5 0.993250 0.768680 0.998020 1.227880
H29   H     H_    0.716662 0.181129 0.903869 0.175858
H30   H     H_    0.283337 0.681134 0.096131 0.175852
N1    N     N_R   0.825412 0.098764 0.939020 0.201755
O21   O     O_R   0.829849 0.933691 0.964740 -0.425952
O22   O     O_R   0.829784 0.241997 0.977767 -0.418661
N2    N     N_R   0.174586 0.598791 0.060980 0.201753
O23   O     O_R   0.170202 0.742051 0.022243 -0.418647
O24   O     O_R   0.170161 0.433732 0.035249 -0.425960

loop_
_geom_bond_atom_site_label_1
_geom_bond_atom_site_label_2
_geom_bond_distance
_ccdc_geom_bond_type
C61   O18   1.332543 A    
C20   C32   1.451336 S    
C29   C31   1.402743 A    
C11   H5    1.082788 S    
C41   C43   1.413456 A    
O12   C64   1.332619 A    
O1    C3    1.331830 A    
H18   C58   1.083835 S    
O2    C4    1.331830 A    
C2    O7    1.330641 A    
O14   C62   1.338099 A    
O20   V3    1.760027 S    
C42   H26   1.076591 S    
C41   H25   1.076590 S    
C42   C44   1.413455 A    
C14   C16   1.400114 A    
C15   C17   1.451303 S    
C44   C46   1.442272 A    
C55   H21   1.077492 S    
C35   C57   1.392899 A    
C37   C39   1.387161 A    
C22   C24   1.401312 A    
C23   H11   1.082768 S    
C53   N1    1.419892 S    
O5    C3    1.337518 A    
O12   V3    2.008696 S    
O14   V4    1.984887 S    
C38   H24   1.084232 S    
C33   C57   1.387071 A    
C12   H6    1.082789 S    
C25   C27   1.410346 A    
C54   N2    1.419890 S    
C26   C28   1.410347 A    
C13   H7    1.083655 S    
C27   C29   1.404544 A    
O19   V4    1.760023 S    
C46   C54   1.418949 A    
O5    V1    1.985117 S    
C34   C50   1.402785 A    
C45   C53   1.418952 A    
O6    V2    1.985121 S    
C21   H9    1.083667 S    
C22   H10   1.083667 S    
C1    C36   1.469559 S    
C10   C61   1.497290 S    
C47   C55   1.426783 A    
C10   C12   1.411578 A    
C49   C51   1.386617 A    
C28   H14   1.082801 S    
C9    C62   1.497290 S    
C4    C25   1.496356 S    
C56   H22   1.077493 S    
N1    O22   1.300671 A    
C24   H12   1.082767 S    
C34   H20   1.084132 S    
C11   C13   1.401138 A    
C12   C14   1.401138 A    
C21   C31   1.400136 A    
C40   C42   1.390470 A    
C22   C32   1.400136 A    
C39   C41   1.390470 A    
C37   H23   1.084233 S    
C39   H27   1.082780 S    
C5    C7    1.404397 A    
O16   C64   1.332048 A    
C27   H13   1.082801 S    
C14   H8    1.083655 S    
C59   C64   1.490019 S    
O4    V2    2.018155 S    
O13   V3    1.984885 S    
C36   C58   1.392900 A    
C23   C25   1.411655 A    
O6    C4    1.337517 A    
C19   C31   1.451337 S    
H17   C57   1.083836 S    
O13   C61   1.338100 A    
O1    V2    1.968717 S    
O2    V1    1.968716 S    
C43   C45   1.442272 A    
O15   V3    2.018250 S    
C48   C50   1.417260 A    
C2    C35   1.469559 S    
C51   C53   1.389997 A    
C50   C52   1.386618 A    
C7    H3    1.082797 S    
C52   H30   1.085394 S    
C36   C56   1.409526 A    
C8    H4    1.082797 S    
O4    C2    1.329624 A    
C9    C11   1.411577 A    
N2    O24   1.300265 A    
O18   V4    1.968638 S    
O3    V1    2.018155 S    
C47   C49   1.417262 A    
C40   H28   1.082779 S    
C7    C9    1.410250 A    
C45   C59   1.441339 A    
C6    C8    1.404395 A    
O15   C63   1.332048 A    
C38   C60   1.398192 A    
C44   C48   1.440111 A    
C52   C54   1.389995 A    
O3    C1    1.329624 A    
C38   C40   1.387163 A    
N1    O21   1.300258 A    
C60   C63   1.490020 S    
O11   C63   1.332620 A    
C24   C26   1.411655 A    
C35   C55   1.409525 A    
C46   C60   1.441338 A    
C51   H29   1.085392 S    
C29   H15   1.083472 S    
O7    V1    2.007402 S    
C1    O8    1.330641 A    
C48   C56   1.426782 A    
C3    C26   1.496355 S    
C33   C49   1.402786 A    
C18   C20   1.212962 T    
O16   V4    2.018250 S    
C6    C16   1.402733 A    
C34   C58   1.387070 A    
C13   C15   1.400114 A    
C16   C18   1.451303 S    
C5    H1    1.083462 S    
C30   H16   1.083471 S    
C6    H2    1.083462 S    
O17   V3    1.968633 S    
C33   H19   1.084130 S    
C30   C32   1.402742 A    
C17   C19   1.212962 T    
C8    C10   1.410251 A    
O9    V2    1.760314 S    
O11   V4    2.008696 S    
C21   C23   1.401311 A    
O10   V1    1.760316 S    
O8    V2    2.007406 S    
C5    C15   1.402732 A    
N2    O23   1.300677 A    
C37   C59   1.398191 A    
C43   C47   1.440110 A    
C28   C30   1.404544 A    
C62   O17   1.332544 A    
