data_mof_unit_55143.cif
_audit_creation_date              2012-12-10T18:08:13-0500
_audit_creation_method            fapswitch 2.2
_symmetry_space_group_name_H-M    P1
_symmetry_Int_Tables_number       1
_space_group_crystal_system       triclinic
_cell_length_a                    12.758816
_cell_length_b                    13.895723
_cell_length_c                    17.258019
_cell_angle_alpha                 90.362297
_cell_angle_beta                  98.20861
_cell_angle_gamma                 81.653124
_cell_volume                      2995.9753111

loop_
_atom_site_label
_atom_site_type_symbol
_atom_type_description
_atom_site_fract_x
_atom_site_fract_y
_atom_site_fract_z
_atom_type_partial_charge
C1    C     C_R   0.516970 0.315800 0.501459 0.823977
C2    C     C_R   0.483013 0.684150 0.498665 0.835808
C3    C     C_1   0.472118 0.787303 0.495089 -0.148003
C4    C     C_1   0.527726 0.212588 0.505896 -0.175947
C5    C     C_2   0.456407 0.978283 0.486932 -0.030611
C6    C     C_2   0.542378 0.021685 0.515682 -0.029920
C7    C     C_1   0.536049 0.125686 0.510461 -0.050224
C8    C     C_1   0.463351 0.874228 0.491361 -0.038077
C9    C     C_2   0.974713 0.474273 0.524028 -0.122332
C10   C     C_2   0.025356 0.528312 0.477993 -0.125204
C11   C     C_1   0.143847 0.519936 0.483933 0.163018
C12   C     C_1   0.856207 0.481015 0.517082 0.153423
C13   C     C_R   0.514267 0.500541 0.650632 0.786427
C14   C     C_R   0.485153 0.504042 0.349013 0.783160
C15   C     C_R   0.523352 0.511788 0.734719 -0.050581
C16   C     C_R   0.473493 0.512916 0.263775 -0.070625
C17   C     C_R   0.493101 0.440220 0.779789 -0.226774
C18   C     C_R   0.549105 0.457595 0.224037 -0.219151
C19   C     C_R   0.500377 0.450120 0.860395 -0.138002
C20   C     C_R   0.538828 0.463021 0.142920 -0.144564
C21   C     C_R   0.533340 0.533932 0.896076 0.112022
C22   C     C_R   0.454518 0.526063 0.100640 0.117203
C23   C     C_R   0.565819 0.604666 0.851060 -0.206489
C24   C     C_R   0.378570 0.581404 0.139905 -0.210208
C25   C     C_R   0.561815 0.593791 0.770474 -0.029135
C26   C     C_R   0.387335 0.575497 0.221225 -0.027486
C27   C     C_2   0.532286 0.548932 0.980665 -0.089923
C28   C     C_2   0.445670 0.534424 0.014735 -0.089704
Cu1   Cu    Cu3+1 0.605120 0.493930 0.505020 0.981811
Cu2   Cu    Cu3+1 0.394880 0.506070 0.494980 0.989447
H1    H     H_    0.464716 0.376513 0.752582 0.130149
H2    H     H_    0.615127 0.408917 0.255736 0.146071
H3    H     H_    0.591896 0.669205 0.878556 0.142734
H4    H     H_    0.313710 0.630428 0.107106 0.138845
H5    H     H_    0.596894 0.418310 0.112993 0.133539
H6    H     H_    0.478176 0.393420 0.894822 0.134256
N1    N     N_1   0.763100 0.484810 0.512560 -0.157107
N2    N     N_1   0.236900 0.515190 0.487440 -0.152802
O1    O     O_R   0.601320 0.356300 0.504850 -0.574677
O2    O     O_R   0.398680 0.643700 0.495150 -0.570531
O3    O     O_R   0.423780 0.366550 0.496380 -0.567097
O4    O     O_R   0.576220 0.633450 0.503620 -0.561699
O5    O     O_R   0.599070 0.494270 0.618330 -0.568045
O6    O     O_R   0.400930 0.505730 0.381670 -0.563970
O7    O     O_R   0.421520 0.504520 0.609850 -0.579675
O8    O     O_R   0.578480 0.495480 0.390150 -0.584023
C29   C     C_1   0.309543 0.637314 0.259436 0.232011
N3    N     N_1   0.247269 0.686836 0.290019 -0.285775
C30   C     C_1   0.593618 0.669153 0.725392 0.213257
N4    N     N_1   0.619125 0.729499 0.689346 -0.275387
C31   C     C_R   0.339816 0.525178 0.967867 0.120774
C32   C     C_R   0.285461 0.447710 0.982737 -0.159497
C33   C     C_R   0.186741 0.438394 0.938596 -0.148257
C34   C     C_R   0.141076 0.506577 0.879732 -0.118122
C35   C     C_R   0.193810 0.584477 0.865109 -0.146505
C36   C     C_R   0.292403 0.594243 0.909209 -0.125874
H7    H     H_    0.320163 0.393904 0.027806 0.130160
H8    H     H_    0.145734 0.378139 0.949910 0.127571
H9    H     H_    0.064843 0.499040 0.845439 0.135265
H10   H     H_    0.158202 0.637401 0.819642 0.126010
H11   H     H_    0.331790 0.655531 0.897646 0.126858
C37   C     C_R   0.628136 0.582805 0.026156 0.126325
C38   C     C_R   0.731105 0.533200 0.021395 -0.160643
C39   C     C_R   0.821306 0.567433 0.061397 -0.135250
C40   C     C_R   0.809480 0.651984 0.105503 -0.108700
C41   C     C_R   0.707408 0.702288 0.109838 -0.161627
C42   C     C_R   0.617004 0.667857 0.070570 -0.129698
H12   H     H_    0.741377 0.468025 0.986888 0.127547
H13   H     H_    0.900413 0.528727 0.057825 0.131747
H14   H     H_    0.879380 0.678665 0.136163 0.138557
H15   H     H_    0.698224 0.768242 0.143360 0.120568
H16   H     H_    0.538510 0.708265 0.073698 0.124855
C43   C     C_R   0.645326 0.965971 0.553501 0.139457
C44   C     C_R   0.688446 0.988827 0.629779 -0.132762
C45   C     C_R   0.784029 0.935728 0.666418 -0.126854
C46   C     C_R   0.837485 0.859714 0.627202 -0.102478
C47   C     C_R   0.796004 0.837271 0.550997 -0.116849
C48   C     C_R   0.701017 0.890705 0.513844 -0.128237
H17   H     H_    0.647322 0.046887 0.661211 0.121327
H18   H     H_    0.816374 0.953209 0.725397 0.124024
H19   H     H_    0.911105 0.818291 0.655809 0.119185
H20   H     H_    0.837336 0.778319 0.520790 0.145374
H21   H     H_    0.670727 0.873112 0.454387 0.128031
C49   C     C_R   0.352553 0.033715 0.450449 0.132418
C50   C     C_R   0.306196 0.009301 0.375404 -0.138573
C51   C     C_R   0.208534 0.060760 0.340736 -0.136968
C52   C     C_R   0.156144 0.136631 0.380727 -0.120431
C53   C     C_R   0.200863 0.160633 0.455727 -0.130137
C54   C     C_R   0.298035 0.108910 0.490895 -0.127199
H22   H     H_    0.346144 0.951030 0.343490 0.128347
H23   H     H_    0.173603 0.041955 0.282751 0.128632
H24   H     H_    0.080765 0.176641 0.353703 0.123252
H25   H     H_    0.160191 0.219272 0.486646 0.146321
H26   H     H_    0.330560 0.127402 0.549619 0.131130
C55   C     C_R   0.962555 0.600872 0.419900 0.123510
C56   C     C_R   0.986006 0.696698 0.420260 -0.145672
C57   C     C_R   0.925301 0.766537 0.367796 -0.134556
C58   C     C_R   0.841059 0.741353 0.314360 -0.136134
C59   C     C_R   0.818543 0.645841 0.312313 -0.131797
C60   C     C_R   0.879754 0.575532 0.364072 -0.117653
H27   H     H_    0.049797 0.717910 0.462265 0.129535
H28   H     H_    0.942894 0.840469 0.369149 0.135021
H29   H     H_    0.793500 0.795880 0.274483 0.117572
H30   H     H_    0.753605 0.626118 0.270690 0.150134
H31   H     H_    0.862215 0.501560 0.360705 0.123730
C61   C     C_R   0.037781 0.406587 0.585666 0.127182
C62   C     C_R   0.018945 0.309607 0.588804 -0.162693
C63   C     C_R   0.078145 0.245529 0.646513 -0.145247
C64   C     C_R   0.155779 0.277879 0.701998 -0.125554
C65   C     C_R   0.173839 0.374559 0.700271 -0.138023
C66   C     C_R   0.114647 0.438940 0.642835 -0.123229
H32   H     H_    0.959596 0.283226 0.545890 0.126517
H33   H     H_    0.064026 0.170665 0.648050 0.132409
H34   H     H_    0.201632 0.228139 0.746522 0.122473
H35   H     H_    0.233498 0.399725 0.743591 0.146691
H36   H     H_    0.128453 0.514032 0.643220 0.123299

loop_
_geom_bond_atom_site_label_1
_geom_bond_atom_site_label_2
_ccdc_geom_bond_type
C35   C36   A    
C33   H8    S    
Cu1   O4    S    
C62   H32   S    
Cu2   O7    S    
C55   C56   A    
C52   C53   A    
C57   C58   A    
C14   O8    A    
C47   C48   A    
C60   H31   S    
Cu1   Cu2   S    
C37   C42   A    
C47   H20   S    
C19   C21   A    
C24   C26   A    
C31   C36   A    
C51   H23   S    
C5    C6    D    
C28   C31   S    
C15   C25   A    
C61   C62   A    
C58   H29   S    
C54   H26   S    
C63   C64   A    
Cu2   N2    S    
C42   H16   S    
C43   C44   A    
C12   N1    T    
C30   N4    T    
C65   C66   A    
C53   H25   S    
C20   H5    S    
C48   H21   S    
C29   N3    T    
C23   H3    S    
C43   C48   A    
Cu2   O3    S    
C66   H36   S    
C9    C10   D    
C18   C20   A    
C57   H28   S    
C34   H9    S    
C41   C42   A    
C21   C27   S    
C22   C28   S    
C35   H10   S    
Cu1   O5    S    
Cu2   O6    S    
C4    C7    T    
C61   C66   A    
C16   C26   A    
C44   C45   A    
C31   C32   A    
C56   H27   S    
C46   C47   A    
C3    C8    T    
C10   C11   S    
C5    C49   S    
C55   C60   A    
C9    C61   S    
C50   C51   A    
C24   H4    S    
C63   H33   S    
C11   N2    T    
C45   C46   A    
C37   C38   A    
C27   C37   S    
C41   H15   S    
C62   C63   A    
C56   C57   A    
Cu1   O1    S    
Cu2   O2    S    
C39   H13   S    
C49   C50   A    
C64   H34   S    
C26   C29   S    
C1    O3    A    
C20   C22   A    
C40   C41   A    
C44   H17   S    
C13   C15   S    
C17   H1    S    
C14   C16   S    
C18   H2    S    
C49   C54   A    
C13   O5    A    
C32   C33   A    
C6    C43   S    
C14   O6    A    
C45   H18   S    
C15   C17   A    
C34   C35   A    
C51   C52   A    
C46   H19   S    
C5    C8    S    
C50   H22   S    
C33   C34   A    
C6    C7    S    
C38   H12   S    
C59   C60   A    
Cu1   O8    S    
C19   H6    S    
C1    C4    S    
C39   C40   A    
C21   C23   A    
C2    C3    S    
C64   C65   A    
C13   O7    A    
C10   C55   S    
C2    O4    A    
C17   C19   A    
C59   H30   S    
C22   C24   A    
C23   C25   A    
C9    C12   S    
C25   C30   S    
C32   H7    S    
C1    O1    A    
C38   C39   A    
C2    O2    A    
C53   C54   A    
C16   C18   A    
C58   C59   A    
Cu1   N1    S    
C27   C28   D    
C36   H11   S    
C52   H24   S    
C65   H35   S    
C40   H14   S    
