data_mof_unit_65756.cif
_audit_creation_date              2012-12-10T18:08:14-0500
_audit_creation_method            fapswitch 2.2
_symmetry_space_group_name_H-M    P1
_symmetry_Int_Tables_number       1
_space_group_crystal_system       triclinic
_cell_length_a                    18.731762
_cell_length_b                    18.735408
_cell_length_c                    18.723673
_cell_angle_alpha                 109.580064
_cell_angle_beta                  109.599054
_cell_angle_gamma                 109.385429
_cell_volume                      5048.91668453

loop_
_atom_site_label
_atom_site_type_symbol
_atom_type_description
_atom_site_fract_x
_atom_site_fract_y
_atom_site_fract_z
_atom_type_partial_charge
C1    C     C_R   0.379750 0.499953 0.379659 0.839315
C2    C     C_R   0.827712 0.759508 0.527341 0.041807
C3    C     C_3   0.894859 0.735600 0.562138 -0.497683
C4    C     C_3   0.821912 0.662930 0.559200 0.270257
C5    C     C_R   0.243747 0.420333 0.239982 -0.179092
C6    C     C_R   0.179058 0.420338 0.176713 -0.184036
C7    C     C_R   0.186452 0.500063 0.186170 -0.014565
C8    C     C_R   0.257127 0.579745 0.258789 -0.172224
C9    C     C_R   0.320375 0.579668 0.323412 -0.169862
C10   C     C_R   0.313731 0.499981 0.313363 -0.011274
C11   C     C_R   0.329721 0.246272 0.513761 -0.033187
C12   C     C_R   0.619318 0.619835 0.499609 0.895325
C13   C     C_R   0.263117 0.182273 0.511395 -0.224681
C14   C     C_R   0.186771 0.185383 0.499315 -0.040380
C15   C     C_R   0.174991 0.251553 0.488661 -0.172035
C16   C     C_R   0.240788 0.316108 0.491650 -0.200108
C17   C     C_R   0.317487 0.313501 0.503614 -0.092294
C18   C     C_R   0.757510 0.498785 0.677515 -0.141246
C19   C     C_R   0.821820 0.499626 0.742009 -0.171440
C20   C     C_R   0.813651 0.499866 0.813553 -0.019364
C21   C     C_R   0.742559 0.500627 0.821972 -0.188257
C22   C     C_R   0.679702 0.502624 0.758896 -0.152879
C23   C     C_R   0.621028 0.500875 0.620351 0.945281
C24   C     C_R   0.687178 0.501047 0.686674 -0.024832
C25   C     C_R   0.999884 0.879793 0.379652 0.862277
C26   C     C_R   0.879717 0.880402 0.500353 0.913649
C27   C     C_R   0.000053 0.120231 0.620384 0.858939
C28   C     C_R   0.120293 0.120155 0.499876 0.873208
C29   C     C_R   0.000014 0.620335 0.120240 0.856791
C30   C     C_R   0.120241 0.500099 0.120219 0.857327
C31   C     C_R   0.000011 0.379828 0.879962 0.855822
C32   C     C_R   0.879757 0.499947 0.879790 0.860214
C33   C     C_R   0.999129 0.821445 0.241639 -0.175824
C34   C     C_R   0.381503 0.379760 0.501590 0.926642
C35   C     C_R   0.000664 0.758237 0.178450 -0.177272
C36   C     C_R   0.000036 0.686513 0.186346 -0.010530
C37   C     C_R   0.999190 0.677987 0.257416 -0.181064
C38   C     C_R   0.000361 0.742537 0.321959 -0.180344
C39   C     C_R   0.999685 0.813602 0.313406 -0.007806
C40   C     C_R   0.920318 0.178451 0.677757 -0.178291
C41   C     C_R   0.920296 0.241756 0.742380 -0.179465
C42   C     C_R   0.000029 0.313568 0.813937 -0.012385
C43   C     C_R   0.079783 0.321991 0.822276 -0.181295
C44   C     C_R   0.079799 0.257315 0.759013 -0.181076
C45   C     C_R   0.764217 0.696174 0.524205 -0.021026
C46   C     C_R   0.000068 0.186245 0.686706 -0.011317
C47   C     C_R   0.681264 0.685247 0.496647 -0.210955
C48   C     C_R   0.662184 0.741914 0.468905 0.439047
C49   C     C_R   0.728771 0.807008 0.471117 -0.203239
C50   C     C_R   0.812817 0.816013 0.500595 -0.172232
H1    H     H_    0.374840 0.641329 0.380323 0.160503
H2    H     H_    0.270898 0.130308 0.519889 0.180249
H3    H     H_    0.115755 0.253988 0.479570 0.150958
H4    H     H_    0.231439 0.367451 0.483250 0.147679
H5    H     H_    0.763094 0.497721 0.621443 0.168318
H6    H     H_    0.876959 0.498706 0.735631 0.148923
H7    H     H_    0.736732 0.501189 0.877798 0.148560
H8    H     H_    0.624668 0.503737 0.765386 0.160664
H9    H     H_    0.998997 0.876915 0.235516 0.146821
H10   H     H_    0.714542 0.850210 0.449769 0.187818
H11   H     H_    0.000901 0.764344 0.122972 0.147840
H12   H     H_    0.999039 0.622386 0.263422 0.144694
H13   H     H_    0.000419 0.736571 0.377589 0.140736
H14   H     H_    0.858617 0.122998 0.621735 0.148081
H15   H     H_    0.858588 0.235682 0.736027 0.148996
H16   H     H_    0.141478 0.377633 0.878118 0.147181
H17   H     H_    0.141508 0.263268 0.765497 0.146923
H18   H     H_    0.914846 0.710032 0.514080 0.171657
H19   H     H_    0.949626 0.788135 0.629248 0.217275
H20   H     H_    0.800909 0.595196 0.511585 0.134019
H21   H     H_    0.238609 0.358652 0.232650 0.147041
H22   H     H_    0.124222 0.358714 0.120026 0.145864
H23   H     H_    0.262306 0.641397 0.265953 0.151212
O1    O     O_R   0.408340 0.551690 0.460080 -0.628782
O2    O     O_R   0.948260 0.908480 0.356680 -0.620502
O3    O     O_R   0.960120 0.908380 0.551680 -0.617427
O4    O     O_R   0.856660 0.908440 0.448310 -0.629196
O5    O     O_R   0.051740 0.091590 0.643330 -0.621097
O6    O     O_R   0.948290 0.091650 0.539960 -0.624380
O7    O     O_R   0.143330 0.091630 0.551690 -0.621921
O8    O     O_R   0.039880 0.091690 0.448320 -0.624359
O9    O     O_R   0.948270 0.540000 0.091680 -0.622830
O10   O     O_R   0.051700 0.643420 0.091650 -0.618467
O11   O     O_R   0.039910 0.448390 0.091720 -0.622342
O12   O     O_R   0.408400 0.448280 0.356690 -0.622926
O13   O     O_R   0.143340 0.551810 0.091690 -0.618259
O14   O     O_R   0.948300 0.356760 0.908530 -0.620689
O15   O     O_R   0.051730 0.460180 0.908500 -0.621124
O16   O     O_R   0.856660 0.448370 0.908490 -0.620171
O17   O     O_R   0.960090 0.551790 0.908450 -0.618415
O18   O     O_R   0.591580 0.643330 0.551700 -0.614619
O19   O     O_R   0.591640 0.539920 0.448310 -0.627309
O20   O     O_R   0.591600 0.551720 0.643310 -0.623123
O21   O     O_R   0.591660 0.448310 0.539920 -0.612455
O22   O     O_R   0.408360 0.460080 0.551690 -0.621906
O23   O     O_R   0.408420 0.356670 0.448300 -0.608333
O24   O     O_R   0.051710 0.908420 0.460050 -0.621772
Zn1   Zn    Zn3+2 0.499960 0.569050 0.569040 0.980607
Zn2   Zn    Zn3+2 0.500040 0.430950 0.430960 0.982345
Zn3   Zn    Zn3+2 0.069080 0.999990 0.569020 0.965115
Zn4   Zn    Zn3+2 0.930920 0.000070 0.430980 0.963131
Zn5   Zn    Zn3+2 0.930940 0.431040 0.000110 0.963897
Zn6   Zn    Zn3+2 0.069060 0.569140 0.000070 0.972678
O25   O     O_3   0.580985 0.735761 0.438297 -0.763220
H24   H     H_    0.537819 0.682325 0.431327 0.324295
C51   C     C_2   0.411500 0.242732 0.530569 0.908090
O26   O     O_2   0.408420 0.171961 0.503951 -0.622063
O27   O     O_R   0.492333 0.319824 0.579450 -0.823682
H25   H     H_    0.542936 0.308397 0.587324 0.345687
O28   O     O_3   0.837586 0.674894 0.642487 -0.760006
H26   H     H_    0.851764 0.735252 0.680158 0.351177

loop_
_geom_bond_atom_site_label_1
_geom_bond_atom_site_label_2
_ccdc_geom_bond_type
C19   H6    S    
C31   C42   S    
O16   Zn5   S    
O11   Zn5   S    
C41   C42   A    
C12   O18   A    
O4    Zn4   S    
C35   C36   A    
C9    H1    S    
C27   O5    A    
O24   Zn3   S    
C4    H20   S    
C37   H12   S    
O22   Zn1   S    
C7    C8    A    
O1    Zn1   S    
O8    Zn4   S    
C6    H22   S    
C29   C36   S    
C33   C39   A    
C49   H10   S    
O10   Zn6   S    
C18   C24   A    
C1    O1    A    
C15   H3    S    
C36   C37   A    
C3    H19   S    
C3    H18   S    
C34   O23   A    
C29   O10   A    
C27   O6    A    
C26   C50   S    
C5    C6    A    
C51   O26   D    
C15   C16   A    
C48   O25   S    
O23   Zn2   S    
O27   H25   S    
C18   C19   A    
O28   H26   S    
C2    C50   A    
C32   O17   A    
C32   O16   A    
C8    C9    A    
C26   O3    A    
C23   C24   S    
C30   O13   A    
C9    C10   A    
C33   H9    S    
C7    C30   S    
C21   C22   A    
O7    Zn3   S    
C12   C47   S    
O13   Zn6   S    
O25   H24   S    
C44   C46   A    
C4    C45   S    
C45   C47   A    
C2    C45   A    
C1    O12   A    
C26   O4    A    
C31   O14   A    
C34   O22   A    
C16   C17   A    
C41   H15   S    
C23   O20   A    
C25   O2    A    
C40   C46   A    
C43   C44   A    
C21   H7    S    
C37   C38   A    
O12   Zn2   S    
C13   H2    S    
C47   C48   A    
C11   C51   S    
O9    Zn5   S    
C35   H11   S    
C18   H5    S    
C27   C46   S    
C25   O24   A    
C40   C41   A    
O5    Zn3   S    
C22   C24   A    
C42   C43   A    
C3    C4    S    
O15   Zn6   S    
C38   H13   S    
C20   C32   S    
C4    O28   S    
C48   C49   A    
C31   O15   A    
C28   O8    A    
C12   O19   A    
C1    C10   S    
C11   C17   A    
C22   H8    S    
C6    C7    A    
O3    Zn3   S    
C40   H14   S    
C23   O21   A    
C19   C20   A    
C2    C3    S    
O14   Zn5   S    
C5    C10   A    
C5    H21   S    
C25   C39   S    
C11   C13   A    
C38   C39   A    
C51   O27   S    
O21   Zn2   S    
C43   H16   S    
C8    H23   S    
C33   C35   A    
O18   Zn1   S    
C30   O11   A    
C28   O7    A    
C16   H4    S    
O17   Zn6   S    
C29   O9    A    
C20   C21   A    
C49   C50   A    
C17   C34   S    
O2    Zn4   S    
C14   C15   A    
O6    Zn4   S    
C44   H17   S    
C14   C28   S    
C13   C14   A    
O20   Zn1   S    
O19   Zn2   S    
