data_mof_unit_23989.cif
_audit_creation_date              2012-12-11T15:23:34-0500
_audit_creation_method            fapswitch 2.2
_symmetry_space_group_name_H-M    P1
_symmetry_Int_Tables_number       1
_space_group_crystal_system       triclinic
_cell_length_a                    17.278009
_cell_length_b                    24.210467
_cell_length_c                    15.061149
_cell_angle_alpha                 89.929269
_cell_angle_beta                  125.579238
_cell_angle_gamma                 89.90791
_cell_volume                      5124.00864659

loop_
_atom_site_label
_atom_site_type_symbol
_atom_type_description
_atom_site_fract_x
_atom_site_fract_y
_atom_site_fract_z
_atom_type_partial_charge
C1    C     C_R   0.310458 0.375696 0.909531 -0.154480
C2    C     C_R   0.546722 0.498073 0.722130 -0.014161
C3    C     C_3   0.361498 0.867034 0.320877 -0.946779
C4    C     C_R   0.056231 0.998023 0.360098 0.009914
C5    C     C_R   0.046706 0.998064 0.722108 -0.013912
C6    C     C_R   0.203787 0.500626 0.630467 0.107342
C7    C     C_R   0.827698 0.500909 0.303614 0.101968
C8    C     C_R   0.703410 0.002590 0.630381 0.104359
C9    C     C_R   0.327298 0.999013 0.302508 0.085373
C10   C     C_2   0.980962 0.542890 0.375084 -0.128761
C11   C     C_2   0.082241 0.547514 0.462794 -0.134372
C12   C     C_2   0.485596 0.975616 0.355224 -0.132174
C13   C     C_R   0.642441 0.345655 0.087551 -0.133563
C14   C     C_2   0.588306 0.971771 0.440133 -0.125323
C15   C     C_2   0.929967 0.502752 0.379713 -0.183144
C16   C     C_2   0.132887 0.501706 0.512591 -0.181418
C17   C     C_2   0.429309 0.000049 0.378259 -0.158393
C18   C     C_2   0.629687 0.011512 0.514662 -0.185624
C19   C     C_R   0.154163 0.685146 0.896350 -0.170348
C20   C     C_R   0.709381 0.768675 0.100390 -0.170317
C21   C     C_R   0.653897 0.185179 0.896236 -0.171199
C22   C     C_R   0.209120 0.268631 0.100133 -0.167790
C23   C     C_R   0.605357 0.230700 0.896412 -0.168118
C24   C     C_R   0.810050 0.876709 0.910198 -0.153242
C25   C     C_R   0.256939 0.314327 0.099552 -0.170798
C26   C     C_R   0.106446 0.731040 0.896697 -0.168573
C27   C     C_R   0.756885 0.814608 0.099967 -0.172096
C28   C     C_R   0.636606 0.256182 0.995590 0.141080
C29   C     C_R   0.238446 0.332911 0.000607 0.141602
C30   C     C_R   0.138069 0.756559 0.995984 0.140967
C31   C     C_R   0.738249 0.833456 0.001107 0.141990
C32   C     C_R   0.703205 0.228979 0.094033 -0.170751
C33   C     C_R   0.157674 0.313702 0.901982 -0.167807
C34   C     C_R   0.204081 0.729110 0.094310 -0.169431
C35   C     C_R   0.144417 0.846163 0.088153 -0.128226
C36   C     C_R   0.657693 0.814088 0.902412 -0.167837
C37   C     C_R   0.251419 0.683051 0.093842 -0.168494
C38   C     C_R   0.609873 0.768370 0.902750 -0.168130
C39   C     C_R   0.751353 0.183306 0.093744 -0.168126
C40   C     C_R   0.109518 0.268231 0.902481 -0.168250
C41   C     C_R   0.398471 0.622759 0.088494 -0.156946
C42   C     C_R   0.556462 0.652464 0.911462 -0.107496
C43   C     C_R   0.898605 0.122964 0.088532 -0.156832
C44   C     C_R   0.056315 0.152467 0.911457 -0.107587
C45   C     C_R   0.233941 0.665008 0.995224 0.141280
C46   C     C_R   0.308479 0.635597 0.996237 0.046972
C47   C     C_R   0.642161 0.742115 0.001832 0.141529
C48   C     C_R   0.734045 0.165337 0.995186 0.141842
C49   C     C_R   0.141806 0.242077 0.001659 0.141596
C50   C     C_R   0.637157 0.515739 0.646107 -0.182791
C51   C     C_R   0.639292 0.516341 0.555622 -0.164216
C52   C     C_R   0.137194 0.015718 0.646145 -0.183775
C53   C     C_R   0.139365 0.016322 0.555684 -0.164100
C54   C     C_R   0.561709 0.494935 0.457507 0.167228
C55   C     C_R   0.556971 0.494478 0.635267 0.188288
C56   C     C_R   0.061778 0.994944 0.457538 0.168064
C57   C     C_R   0.618371 0.684159 0.002172 0.038032
C58   C     C_R   0.056970 0.994481 0.635254 0.189557
C59   C     C_R   0.484127 0.471392 0.448842 -0.201353
C60   C     C_R   0.481403 0.471488 0.537716 -0.185186
C61   C     C_R   0.984146 0.971431 0.448815 -0.202014
C62   C     C_R   0.981389 0.971523 0.537667 -0.186068
C63   C     C_R   0.543408 0.452769 0.299132 -0.225184
C64   C     C_R   0.520204 0.452568 0.753291 -0.197418
C65   C     C_R   0.043515 0.952778 0.299191 -0.225975
C66   C     C_R   0.020160 0.952562 0.753240 -0.201769
C67   C     C_R   0.248695 0.545836 0.696195 -0.201053
C68   C     C_R   0.808711 0.135999 0.996285 0.045618
C69   C     C_R   0.768746 0.546522 0.263184 -0.191215
C70   C     C_R   0.748564 0.046626 0.697666 -0.233573
C71   C     C_R   0.269712 0.045479 0.264845 -0.204816
C72   C     C_R   0.544561 0.544667 0.300936 0.175160
C73   C     C_R   0.515697 0.544984 0.746189 0.198019
C74   C     C_R   0.044592 0.044671 0.300949 0.175018
C75   C     C_R   0.015722 0.044977 0.746210 0.198482
C76   C     C_R   0.248904 0.454317 0.694739 0.162434
C77   C     C_R   0.770485 0.454265 0.269572 0.185579
C78   C     C_R   0.748000 0.955140 0.693432 0.183657
C79   C     C_R   0.118187 0.184145 0.002162 0.036820
C80   C     C_R   0.269180 0.952807 0.268279 0.194726
C81   C     C_R   0.308178 0.623209 0.905955 -0.118279
C82   C     C_R   0.649077 0.651553 0.092393 -0.136271
C83   C     C_R   0.808387 0.123552 0.906033 -0.115984
C84   C     C_R   0.149169 0.151506 0.092445 -0.130580
C85   C     C_R   0.402588 0.374747 0.092013 -0.115947
C86   C     C_R   0.554791 0.347264 0.907132 -0.130711
C87   C     C_R   0.902718 0.874891 0.092339 -0.115364
C88   C     C_R   0.055430 0.847376 0.907389 -0.131682
C89   C     C_R   0.312306 0.362348 0.000605 0.044675
C90   C     C_R   0.556116 0.498015 0.360040 0.009506
C91   C     C_R   0.613335 0.314185 0.996722 0.042035
C92   C     C_R   0.812122 0.863030 0.001223 0.042449
C93   C     C_R   0.115069 0.814597 0.997234 0.041799
C94   C     C_3   0.545628 0.626098 0.398424 -0.967602
C95   C     C_3   0.568307 0.627672 0.701057 -0.923800
C96   C     C_3   0.045726 0.126096 0.398494 -0.968059
C97   C     C_3   0.068531 0.127670 0.701349 -0.924972
C98   C     C_3   0.157144 0.371581 0.597804 -0.998519
C99   C     C_3   0.863459 0.371389 0.301997 -0.947176
C100  C     C_3   0.656466 0.870416 0.609042 -0.995228
H1    H     H_    0.251413 0.371856 0.825283 0.124759
H2    H     H_    0.732290 0.751439 0.178379 0.106729
H3    H     H_    0.634378 0.169815 0.818399 0.106896
H4    H     H_    0.231914 0.251507 0.178163 0.107123
H5    H     H_    0.725596 0.245602 0.172131 0.112080
H6    H     H_    0.137241 0.329515 0.823951 0.113346
H7    H     H_    0.226503 0.745720 0.172425 0.108957
H8    H     H_    0.637237 0.829962 0.824418 0.113151
H9    H     H_    0.308123 0.665879 0.171653 0.114283
H10   H     H_    0.554352 0.751033 0.824841 0.105696
H11   H     H_    0.808424 0.166392 0.171626 0.114154
H12   H     H_    0.673277 0.329373 0.167959 0.101702
H13   H     H_    0.053805 0.250948 0.824617 0.105300
H14   H     H_    0.695909 0.532780 0.722768 0.124685
H15   H     H_    0.699465 0.534037 0.561070 0.132253
H16   H     H_    0.195956 0.032734 0.722832 0.124093
H17   H     H_    0.199573 0.033996 0.561176 0.131259
H18   H     H_    0.424203 0.454908 0.372132 0.128175
H19   H     H_    0.419135 0.455262 0.529648 0.127324
H20   H     H_    0.924217 0.954970 0.372080 0.127445
H21   H     H_    0.919090 0.955317 0.529559 0.125060
H22   H     H_    0.423310 0.627072 0.171985 0.125164
H23   H     H_    0.750109 0.874571 0.826701 0.127018
H24   H     H_    0.506165 0.668055 0.830239 0.092394
H25   H     H_    0.923438 0.127250 0.172027 0.125279
H26   H     H_    0.005915 0.168042 0.830247 0.092563
H27   H     H_    0.557604 0.410258 0.326513 0.115130
H28   H     H_    0.526135 0.409758 0.737808 0.122284
H29   H     H_    0.057798 0.910275 0.326621 0.114741
H30   H     H_    0.026041 0.909752 0.737709 0.122419
H31   H     H_    0.429923 0.368840 0.176345 0.089883
H32   H     H_    0.508070 0.334250 0.823086 0.080810
H33   H     H_    0.930351 0.868741 0.176709 0.089674
H34   H     H_    0.176801 0.830284 0.169178 0.104554
H35   H     H_    0.008518 0.834177 0.823488 0.081014
H36   H     H_    0.946500 0.575909 0.315146 0.132223
H37   H     H_    0.107229 0.588015 0.499130 0.124676
H38   H     H_    0.455106 0.953285 0.279286 0.140789
H39   H     H_    0.624837 0.933796 0.448538 0.162145
H40   H     H_    0.550278 0.248626 0.818597 0.107285
H41   H     H_    0.314519 0.330855 0.177276 0.106314
H42   H     H_    0.051726 0.749130 0.818906 0.107448
H43   H     H_    0.814393 0.831158 0.177725 0.105998
H44   H     H_    0.242655 0.588021 0.669239 0.102092
H45   H     H_    0.963341 0.471387 0.443178 0.148235
H46   H     H_    0.789161 0.589487 0.278970 0.114616
H47   H     H_    0.741345 0.089160 0.671593 0.110004
H48   H     H_    0.291919 0.088167 0.281529 0.119884
H49   H     H_    0.596654 0.622295 0.301339 0.161613
H50   H     H_    0.514103 0.666277 0.356928 0.242421
H51   H     H_    0.604445 0.634383 0.484900 0.263899
H52   H     H_    0.489511 0.601876 0.395372 0.262625
H53   H     H_    0.436004 0.617645 0.678536 0.149473
H54   H     H_    0.563699 0.625719 0.624554 0.265244
H55   H     H_    0.639109 0.612323 0.770356 0.249713
H56   H     H_    0.107812 0.462442 0.470460 0.162105
H57   H     H_    0.561811 0.671614 0.716759 0.236762
H58   H     H_    0.096662 0.122304 0.301313 0.161602
H59   H     H_    0.014241 0.166294 0.357065 0.242720
H60   H     H_    0.104569 0.134344 0.484977 0.263719
H61   H     H_    0.989591 0.101886 0.395427 0.262589
H62   H     H_    0.936118 0.117671 0.678580 0.149911
H63   H     H_    0.063953 0.125794 0.624856 0.265181
H64   H     H_    0.139294 0.112246 0.770607 0.249883
H65   H     H_    0.062123 0.171596 0.717229 0.236695
H66   H     H_    0.306019 0.377026 0.703757 0.165871
H67   H     H_    0.457663 0.021149 0.454922 0.131452
H68   H     H_    0.166354 0.332693 0.642278 0.251246
H69   H     H_    0.134047 0.360778 0.514148 0.264871
H70   H     H_    0.100135 0.396383 0.592118 0.255684
H71   H     H_    0.748846 0.378287 0.315293 0.151939
H72   H     H_    0.877452 0.329549 0.338755 0.247940
H73   H     H_    0.932671 0.392732 0.341169 0.256871
H74   H     H_    0.830890 0.367146 0.213499 0.261658
H75   H     H_    0.804316 0.878456 0.698353 0.164230
H76   H     H_    0.670776 0.834816 0.663165 0.245788
H77   H     H_    0.630686 0.852965 0.528213 0.257703
H78   H     H_    0.596330 0.052129 0.494209 0.132409
H79   H     H_    0.599285 0.896379 0.600503 0.268093
H80   H     H_    0.240378 0.880981 0.319233 0.151419
H81   H     H_    0.349627 0.822969 0.330260 0.238962
H82   H     H_    0.435436 0.877284 0.389581 0.271522
H83   H     H_    0.352033 0.871856 0.241671 0.251234
H84   H     H_    0.250491 0.628154 0.820886 0.093376
H85   H     H_    0.686664 0.665103 0.176038 0.083127
H86   H     H_    0.750788 0.128792 0.821067 0.092728
H87   H     H_    0.187140 0.164928 0.176219 0.083072
H88   H     H_    0.134496 0.669752 0.818469 0.108171
N1    N     N_R   0.395440 0.396300 0.944370 -0.041736
N2    N     N_R   0.474910 0.470990 0.794360 -0.054963
N3    N     N_R   0.025090 0.970990 0.205640 -0.045386
N4    N     N_R   0.974910 0.970990 0.794360 -0.055686
N5    N     N_R   0.320240 0.527820 0.794510 -0.052563
N6    N     N_R   0.679760 0.527820 0.205490 -0.058473
N7    N     N_R   0.820240 0.027820 0.794510 -0.047998
N8    N     N_R   0.179760 0.027820 0.205490 -0.056012
N9    N     N_R   0.524580 0.527810 0.205160 -0.070827
N10   N     N_R   0.475420 0.527810 0.794840 -0.076425
N11   N     N_R   0.024580 0.027810 0.205160 -0.070607
N12   N     N_R   0.604560 0.396300 0.055630 -0.038476
N13   N     N_R   0.975420 0.027810 0.794840 -0.075759
N14   N     N_R   0.320750 0.470990 0.794990 -0.073969
N15   N     N_R   0.679250 0.470990 0.205010 -0.077120
N16   N     N_R   0.820750 0.970990 0.794990 -0.075228
N17   N     N_R   0.179250 0.970990 0.205010 -0.079395
N18   N     N_R   0.393580 0.602500 0.942610 -0.037991
N19   N     N_R   0.606420 0.602500 0.057390 -0.037072
N20   N     N_R   0.893580 0.102500 0.942610 -0.037408
N21   N     N_R   0.106420 0.102500 0.057390 -0.037196
N22   N     N_R   0.451750 0.396300 0.057540 -0.036782
N23   N     N_R   0.895440 0.896300 0.944370 -0.040966
N24   N     N_R   0.548250 0.396300 0.942460 -0.035308
N25   N     N_R   0.951750 0.896300 0.057540 -0.036955
N26   N     N_R   0.048250 0.896300 0.942460 -0.035596
N27   N     N_2   0.583246 0.597452 0.346620 -0.117526
N28   N     N_2   0.491562 0.595709 0.688094 -0.111493
N29   N     N_2   0.083284 0.097458 0.346616 -0.117868
N30   N     N_2   0.991697 0.095725 0.688211 -0.111561
N31   N     N_2   0.246598 0.401187 0.653097 -0.115079
N32   N     N_2   0.800765 0.401406 0.319408 -0.118177
N33   N     N_2   0.742998 0.901654 0.651202 -0.119220
N34   N     N_R   0.104560 0.896300 0.055630 -0.041122
N35   N     N_2   0.295376 0.901605 0.325246 -0.109062
N36   N     N_R   0.449890 0.602500 0.055780 -0.042280
N37   N     N_R   0.550110 0.602500 0.944220 -0.042368
N38   N     N_R   0.949890 0.102500 0.055780 -0.042501
N39   N     N_R   0.050110 0.102500 0.944220 -0.042574
N40   N     N_R   0.525090 0.470990 0.205640 -0.045304
Ni1   Ni    Ni4+2 0.435420 0.434250 0.870220 0.200537
Ni2   Ni    Ni4+2 0.564580 0.434250 0.129780 0.199554
Ni3   Ni    Ni4+2 0.935420 0.934250 0.870220 0.198820
Ni4   Ni    Ni4+2 0.064580 0.934250 0.129780 0.197969
Ni5   Ni    Ni4+2 0.563400 0.564580 0.128670 0.200231
Ni6   Ni    Ni4+2 0.436600 0.564580 0.871330 0.197680
Ni7   Ni    Ni4+2 0.063400 0.064580 0.128670 0.200324
Ni8   Ni    Ni4+2 0.936600 0.064580 0.871330 0.198511

loop_
_geom_bond_atom_site_label_1
_geom_bond_atom_site_label_2
_ccdc_geom_bond_type
C58   C62   A    
N4    Ni3   S    
H62   N30   S    
C69   H46   S    
C13   N12   A    
C36   H8    S    
C34   C37   A    
C87   H33   S    
C85   N22   A    
C43   H25   S    
N40   Ni2   S    
C75   N13   A    
C42   H24   S    
C45   C46   S    
N39   Ni8   S    
C44   H26   S    
C94   N27   S    
N12   N24   A    
C88   N26   A    
C5    C58   S    
H80   N35   S    
C63   H27   S    
C34   H7    S    
N8    Ni7   S    
C10   H36   S    
C54   C90   S    
C13   H12   S    
C2    C55   S    
C79   C84   A    
C76   N14   A    
C42   N37   A    
C20   H2    S    
C67   H44   S    
C76   N31   S    
C94   H52   S    
C40   C49   A    
C57   C82   A    
C29   C33   A    
C22   H4    S    
C96   H61   S    
C42   C57   A    
C60   H19   S    
N1    N22   A    
C32   C39   A    
N8    N17   A    
C19   C26   A    
C14   C18   D    
C3    N35   S    
N26   N34   A    
N20   N38   A    
C72   N9    A    
C98   H69   S    
N19   N37   A    
C65   N3    A    
N18   N36   A    
N3    Ni4   S    
C64   H28   S    
C22   C25   A    
C66   N4    A    
C12   C17   D    
C16   H56   S    
C27   H43   S    
C41   C46   A    
C83   H86   S    
C38   H10   S    
C51   C54   A    
N20   Ni8   S    
C37   H9    S    
H71   N32   S    
C43   N38   A    
C7    C77   A    
C21   C48   A    
C55   C60   A    
C39   H11   S    
C80   N17   A    
N34   Ni4   S    
C59   C60   A    
C95   H57   S    
C87   C92   A    
C4    C56   S    
C61   H20   S    
C8    C78   A    
C95   N28   S    
N12   Ni2   S    
C31   C92   S    
C100  H77   S    
C77   N15   A    
C35   H34   S    
C29   C89   S    
C82   N19   A    
C3    H82   S    
C24   N23   A    
C2    C64   A    
C54   C59   A    
C97   N30   S    
C25   C29   A    
C33   C40   A    
C30   C34   A    
C82   H85   S    
C27   C31   A    
C41   N36   A    
C23   H40   S    
C28   C32   A    
N26   Ni3   S    
C17   H67   S    
C35   N34   A    
C15   H45   S    
N9    Ni5   S    
C84   N21   A    
C70   N7    A    
N13   Ni8   S    
C99   H72   S    
C75   N30   S    
C97   H63   S    
C94   H51   S    
N14   Ni1   S    
C24   H23   S    
C51   H15   S    
N5    N14   A    
C49   C79   S    
C50   H14   S    
C9    C80   A    
C21   H3    S    
C41   H22   S    
C5    C75   A    
N1    Ni1   S    
N36   Ni5   S    
H49   N27   S    
C100  H76   S    
C83   N20   A    
N11   Ni7   S    
C19   H88   S    
C47   C57   S    
C46   C81   A    
C72   C90   A    
C11   C16   D    
C35   C93   A    
C65   H29   S    
C40   H13   S    
C99   H73   S    
N4    N13   A    
C97   H64   S    
C73   N10   A    
C72   N27   S    
C7    C15   S    
C50   C51   A    
H75   N33   S    
C73   N28   S    
C23   C28   A    
C74   N11   A    
C3    H81   S    
C18   H78   S    
C38   C47   A    
N25   Ni4   S    
C52   C58   A    
C22   C49   A    
C63   C90   A    
C9    C17   S    
C6    C67   A    
N23   N25   A    
C13   C91   A    
C12   C14   S    
C26   C30   A    
C59   H18   S    
C85   C89   A    
C32   H5    S    
C21   C23   A    
N10   Ni6   S    
C24   C92   A    
C12   H38   S    
N7    Ni8   S    
C94   H50   S    
N37   Ni6   S    
N6    Ni5   S    
C37   C45   A    
C1    H1    S    
N5    Ni6   S    
C52   C53   A    
N19   Ni5   S    
C53   C56   A    
C52   H16   S    
C84   H87   S    
C88   C93   A    
C1    C89   A    
C96   H60   S    
C56   C61   A    
C68   C83   A    
C4    C74   A    
C44   C79   A    
C25   H41   S    
C33   H6    S    
C9    C71   A    
C88   H35   S    
N3    N11   A    
C5    C66   A    
C48   C68   S    
C7    C69   A    
N15   Ni2   S    
C64   N2    A    
C19   C45   A    
C77   N32   S    
C6    C76   A    
C63   N40   A    
N7    N16   A    
C20   C27   A    
C30   C93   S    
C43   C68   A    
C8    C70   A    
C50   C55   A    
N18   Ni6   S    
C10   C15   D    
N2    Ni1   S    
N2    N10   A    
C95   H54   S    
N16   Ni3   S    
C36   C38   A    
N23   Ni3   S    
C26   H42   S    
C85   H31   S    
C80   N35   S    
N24   Ni1   S    
C86   H32   S    
C71   N8    A    
C4    C65   A    
C99   H74   S    
N21   Ni7   S    
C100  N33   S    
H58   N29   S    
C97   H65   S    
N6    N15   A    
C74   N29   S    
C2    C73   A    
C69   N6    A    
C71   H48   S    
C28   C91   S    
C95   H55   S    
H53   N28   S    
C11   H37   S    
C61   C62   A    
C44   N39   A    
C8    C18   S    
C14   H39   S    
N22   Ni2   S    
C20   C47   A    
C10   C11   S    
N38   Ni7   S    
C78   N33   S    
C6    C16   S    
C98   H70   S    
N9    N40   A    
C78   N16   A    
C96   H59   S    
C98   N31   S    
C99   N32   S    
C87   N25   A    
C86   N24   A    
C86   C91   A    
C31   C36   A    
C81   N18   A    
N17   Ni4   S    
C70   H47   S    
N21   N39   A    
C81   H84   S    
C66   H30   S    
C67   N5    A    
C100  H79   S    
C3    H83   S    
H66   N31   S    
C62   H21   S    
C98   H68   S    
C96   N29   S    
C39   C48   A    
C53   H17   S    
C1    N1    A    
