data_mof_unit_31911.cif
_audit_creation_date              2012-12-10T16:49:28-0500
_audit_creation_method            fapswitch 2.2
_symmetry_space_group_name_H-M    P1
_symmetry_Int_Tables_number       1
_space_group_crystal_system       triclinic
_cell_length_a                    7.767194
_cell_length_b                    8.566006
_cell_length_c                    12.821152
_cell_angle_alpha                 89.836945
_cell_angle_beta                  88.587333
_cell_angle_gamma                 93.583676
_cell_volume                      851.105308958

loop_
_atom_site_label
_atom_site_type_symbol
_atom_type_description
_atom_site_fract_x
_atom_site_fract_y
_atom_site_fract_z
_atom_type_partial_charge
C1    C     C_R   0.454688 0.205251 0.497308 0.961215
C2    C     C_R   0.684917 0.400425 0.141840 -0.287627
C3    C     C_R   0.607445 0.514389 0.872158 0.156866
C4    C     C_R   0.390527 0.476597 0.128770 0.170988
C5    C     C_R   0.575753 0.471983 0.975967 0.020396
C6    C     C_R   0.421309 0.517655 0.024745 0.020937
C7    C     C_2   0.430856 0.041792 0.495426 -0.368606
C8    C     C_2   0.569168 0.958211 0.504428 -0.366080
C9    C     C_3   0.206668 0.424258 0.165786 -0.343052
C10   C     C_3   0.195369 0.255405 0.206455 -0.774245
C11   C     C_3   0.792124 0.565326 0.835930 -0.349301
C12   C     C_R   0.545319 0.794748 0.502658 0.962774
C13   C     C_3   0.806917 0.736082 0.799053 -0.726517
C14   C     C_2   0.188837 0.714472 0.018092 0.883688
C15   C     C_2   0.806593 0.272393 0.984571 0.889986
C16   C     C_R   0.470311 0.514456 0.699742 0.898591
C17   C     C_R   0.529437 0.484121 0.300465 0.900213
C18   C     C_R   0.537065 0.455888 0.189361 -0.097372
C19   C     C_R   0.461704 0.538146 0.811354 -0.099524
C20   C     C_R   0.303168 0.601315 0.967575 -0.052427
C21   C     C_R   0.693581 0.388059 0.033555 -0.056834
C22   C     C_R   0.312985 0.591458 0.859149 -0.291383
H1    H     H_    0.785765 0.357623 0.189093 0.199522
H2    H     H_    0.154577 0.503945 0.224947 0.244905
H3    H     H_    0.116403 0.427095 0.100293 0.208404
H4    H     H_    0.723866 0.755144 0.731725 0.241179
H5    H     H_    0.768885 0.814080 0.863606 0.284203
H6    H     H_    0.942222 0.769289 0.774323 0.254182
H7    H     H_    0.882218 0.557578 0.901033 0.212808
H8    H     H_    0.842934 0.487403 0.775254 0.243957
H9    H     H_    0.133372 0.842855 0.145096 0.346556
H10   H     H_    0.985884 0.114942 0.004101 0.369229
H11   H     H_    0.212583 0.635470 0.812098 0.192767
H12   H     H_    0.998566 0.615916 0.421224 0.195293
H13   H     H_    0.001439 0.384074 0.578766 0.198794
H14   H     H_    0.300237 0.990780 0.486606 0.181521
H15   H     H_    0.699790 0.009226 0.513228 0.182574
H16   H     H_    0.234688 0.174880 0.143685 0.269853
H17   H     H_    0.279250 0.241016 0.273994 0.248057
H18   H     H_    0.060756 0.221390 0.232247 0.262971
N1    N     N_2   0.054030 0.541640 0.471970 -0.178961
N2    N     N_2   0.945970 0.458360 0.528030 -0.178248
O1    O     O_R   0.609680 0.261530 0.506880 -0.606665
O2    O     O_R   0.216678 0.763231 0.120677 -0.819573
O3    O     O_2   0.791956 0.237112 0.892721 -0.641502
O4    O     O_R   0.919701 0.193235 0.045569 -0.829041
O5    O     O_R   0.390320 0.738470 0.493120 -0.607432
O6    O     O_R   0.323330 0.288220 0.488910 -0.635617
O7    O     O_R   0.676670 0.711780 0.511090 -0.635216
O8    O     O_R   0.619510 0.488830 0.661140 -0.614985
O9    O     O_R   0.380490 0.511170 0.338860 -0.612090
O10   O     O_R   0.333160 0.515520 0.643180 -0.628338
O11   O     O_R   0.666840 0.484480 0.356820 -0.631040
O12   O     O_2   0.078163 0.773929 0.968009 -0.660330
Zn1   Zn    Zn3+2 0.691200 0.482180 0.511990 0.944999
Zn2   Zn    Zn3+2 0.308800 0.517820 0.488010 0.944577

loop_
_geom_bond_atom_site_label_1
_geom_bond_atom_site_label_2
_ccdc_geom_bond_type
C13   H6    S    
C3    C19   A    
C14   C20   S    
N2    Zn1   S    
C2    C18   A    
C6    C20   A    
N1    N2    D    
C14   O2    S    
O8    Zn1   S    
C8    C12   S    
C10   H16   S    
C4    C18   A    
C17   O9    A    
C2    C21   A    
C12   O5    A    
C17   C18   S    
C9    H3    S    
C7    C8    D    
C1    O6    A    
C1    C7    S    
C11   C13   S    
C10   H17   S    
H12   N1    S    
O10   Zn2   S    
C22   H11   S    
C16   C19   S    
O1    Zn1   S    
C14   O12   D    
C16   O8    A    
C12   O7    A    
N1    Zn2   S    
O11   Zn1   S    
C7    H14   S    
C5    C6    A    
C13   H4    S    
C3    C11   S    
H9    O2    S    
C15   O3    D    
C17   O11   A    
C8    H15   S    
C15   C21   S    
C19   C22   A    
C5    C21   A    
C11   H7    S    
C4    C6    A    
O9    Zn2   S    
C9    C10   S    
C2    H1    S    
O6    Zn2   S    
H13   N2    S    
C13   H5    S    
C10   H18   S    
C15   O4    S    
C4    C9    S    
O7    Zn1   S    
H10   O4    S    
C1    O1    A    
C9    H2    S    
C16   O10   A    
C11   H8    S    
C20   C22   A    
O5    Zn2   S    
C3    C5    A    
