data_mof_unit_35447.cif
_audit_creation_date              2012-12-10T19:44:37-0500
_audit_creation_method            fapswitch 2.2
_symmetry_space_group_name_H-M    P1
_symmetry_Int_Tables_number       1
_space_group_crystal_system       triclinic
_cell_length_a                    8.567917
_cell_length_b                    14.962151
_cell_length_c                    14.166411
_cell_angle_alpha                 90.063496
_cell_angle_beta                  98.424192
_cell_angle_gamma                 89.50113
_cell_volume                      1796.39318516

loop_
_atom_site_label
_atom_site_type_symbol
_atom_type_description
_atom_site_fract_x
_atom_site_fract_y
_atom_site_fract_z
_atom_type_partial_charge
C1    C     C_R   0.501602 0.328264 0.500123 0.946105
C2    C     C_R   0.496560 0.672532 0.499797 0.873737
C3    C     C_R   0.424756 0.568619 0.098659 -0.277019
C4    C     C_R   0.627796 0.464157 0.906040 -0.281384
C5    C     C_R   0.425753 0.567169 0.198025 0.043861
C6    C     C_R   0.625129 0.464602 0.806534 0.006039
C7    C     C_R   0.574592 0.432928 0.211040 0.007594
C8    C     C_R   0.374833 0.535302 0.784525 0.011829
C9    C     C_R   0.575767 0.431554 0.111870 -0.280421
C10   C     C_R   0.372361 0.535838 0.883559 -0.285109
C11   C     C_R   0.500232 0.500077 0.053403 0.133956
C12   C     C_R   0.500141 0.500038 0.946663 0.145065
C13   C     C_R   0.201047 0.501875 0.475124 0.954459
C14   C     C_R   0.798836 0.502469 0.524784 0.993781
C15   C     C_2   0.035999 0.503833 0.461430 -0.394344
C16   C     C_2   0.963513 0.508563 0.537925 -0.423114
C17   C     C_R   0.637566 0.093402 0.522282 -0.273760
C18   C     C_R   0.574718 0.906228 0.430489 -0.256057
C19   C     C_R   0.637688 0.185772 0.529584 0.418961
C20   C     C_R   0.576532 0.813929 0.433178 0.445298
C21   C     C_R   0.497028 0.233064 0.499518 -0.164725
C22   C     C_R   0.495512 0.769240 0.499434 -0.200488
C23   C     C_R   0.354203 0.188829 0.467491 0.083335
C24   C     C_R   0.414109 0.818534 0.563262 0.120679
C25   C     C_R   0.355785 0.096070 0.464728 -0.199895
C26   C     C_R   0.416473 0.911164 0.559127 -0.213108
C27   C     C_R   0.496830 0.049459 0.491596 0.045041
C28   C     C_R   0.495737 0.953844 0.493371 0.027736
H1    H     H_    0.974633 0.498758 0.388751 0.182621
H2    H     H_    0.024994 0.514561 0.610453 0.174330
H3    H     H_    0.746062 0.055920 0.542973 0.149833
H4    H     H_    0.633661 0.940852 0.378706 0.160908
H5    H     H_    0.247556 0.059979 0.441840 0.150098
H6    H     H_    0.355628 0.950575 0.607044 0.146986
H7    H     H_    0.367016 0.623906 0.058041 0.135798
H8    H     H_    0.730530 0.436986 0.950641 0.132447
H9    H     H_    0.367295 0.620192 0.231721 0.138792
H10   H     H_    0.723937 0.436770 0.776520 0.118285
H11   H     H_    0.633191 0.379952 0.254966 0.133362
H12   H     H_    0.276027 0.563237 0.737183 0.124576
H13   H     H_    0.633654 0.376317 0.081372 0.133567
H14   H     H_    0.269715 0.563066 0.910062 0.131730
N1    N     N_R   0.500000 0.499980 0.252470 -0.098854
N2    N     N_R   0.500000 0.500020 0.747530 -0.089514
O1    O     O_R   0.500010 0.369070 0.579480 -0.632935
O2    O     O_R   0.499990 0.630930 0.420520 -0.589407
O3    O     O_R   0.500010 0.369060 0.420520 -0.620695
O4    O     O_R   0.499990 0.630940 0.579480 -0.623957
O5    O     O_R   0.271750 0.500000 0.560890 -0.629920
O6    O     O_R   0.728250 0.500000 0.439110 -0.623354
O7    O     O_R   0.271750 0.499990 0.401930 -0.626709
O8    O     O_R   0.728250 0.500010 0.598070 -0.633220
Zn1   Zn    Zn3+2 0.500000 0.500010 0.606140 0.920745
Zn2   Zn    Zn3+2 0.500000 0.499990 0.393860 0.945781
O9    O     O_3   0.777496 0.230012 0.559504 -0.633345
C29   C     C_3   0.816325 0.222139 0.659906 0.108771
H15   H     H_    0.778567 0.157556 0.688471 0.080835
H16   H     H_    0.758072 0.277163 0.694897 0.150271
C30   C     C_3   0.995303 0.227339 0.688501 -0.380733
H17   H     H_    0.025029 0.214365 0.766331 0.171715
H18   H     H_    0.053505 0.174793 0.649997 0.214923
C31   C     C_3   0.059233 0.318573 0.666616 -0.779586
H19   H     H_    0.032419 0.332516 0.589094 0.282062
H20   H     H_    0.189254 0.319335 0.687767 0.241079
H21   H     H_    0.005691 0.371591 0.706842 0.234159
O10   O     O_3   0.644228 0.768451 0.364012 -0.634400
C32   C     C_3   0.797248 0.737399 0.401529 0.126073
H22   H     H_    0.811701 0.669892 0.371031 0.190414
H23   H     H_    0.817378 0.729263 0.480798 0.088352
C33   C     C_3   0.921769 0.799322 0.370624 -0.385161
H24   H     H_    0.889680 0.816524 0.293873 0.241411
H25   H     H_    0.925779 0.862102 0.412891 0.205294
C34   C     C_3   0.084641 0.755062 0.385233 -0.940727
H26   H     H_    0.114846 0.731705 0.459893 0.249850
H27   H     H_    0.174541 0.803771 0.369660 0.272031
H28   H     H_    0.086797 0.696862 0.336657 0.263818
C35   C     C_3   0.199355 0.237904 0.437907 -0.389244
C36   C     C_3   0.160873 0.244222 0.329554 -0.826317
H29   H     H_    0.047596 0.280962 0.309939 0.244046
H30   H     H_    0.255201 0.280827 0.300113 0.271203
H31   H     H_    0.149178 0.176386 0.297500 0.250038
H32   H     H_    0.102618 0.202403 0.466287 0.224052
H33   H     H_    0.201877 0.306331 0.468120 0.198010
C37   C     C_3   0.316842 0.777003 0.632963 -0.388344
C38   C     C_3   0.410551 0.771968 0.733162 -0.823726
H34   H     H_    0.336735 0.741575 0.782599 0.233581
H35   H     H_    0.518599 0.730423 0.733430 0.277893
H36   H     H_    0.444971 0.840006 0.759411 0.245067
H37   H     H_    0.208890 0.818194 0.635721 0.188204
H38   H     H_    0.272324 0.709946 0.610072 0.209084

loop_
_geom_bond_atom_site_label_1
_geom_bond_atom_site_label_2
_ccdc_geom_bond_type
O9    C29   S    
C4    H8    S    
C1    C21   S    
C5    H9    S    
C10   H14   S    
C34   H26   S    
C35   C36   S    
C2    O2    A    
O6    Zn2   S    
C22   C24   A    
C20   O10   S    
C19   C21   A    
C24   C26   A    
C36   H30   S    
C35   H33   S    
C16   H2    S    
C15   C16   D    
C29   H15   S    
C31   H20   S    
C13   O7    A    
N2    Zn1   S    
C26   H6    S    
C14   O8    A    
C2    C22   S    
C6    H10   S    
C33   H24   S    
C7    N1    A    
C4    C12   A    
O10   C32   S    
C5    N1    A    
O1    Zn1   S    
C30   H17   S    
C6    N2    A    
C34   H27   S    
C37   H38   S    
C15   H1    S    
C38   H35   S    
O4    Zn1   S    
C30   H18   S    
C32   H22   S    
C17   C27   A    
C18   C28   A    
C37   C38   S    
C4    C6    A    
C36   H29   S    
C1    O3    A    
C2    O4    A    
C38   H34   S    
C32   H23   S    
C31   H19   S    
N1    Zn2   S    
C3    H7    S    
O2    Zn2   S    
C33   C34   S    
C23   C35   S    
C9    C11   A    
C10   C12   A    
O3    Zn2   S    
C13   O5    A    
C20   C22   A    
C13   C15   S    
C17   H3    S    
C34   H28   S    
C14   C16   S    
C18   H4    S    
C37   H37   S    
O8    Zn1   S    
C38   H36   S    
C19   O9    S    
C7    C9    A    
C30   C31   S    
C31   H21   S    
C26   C28   A    
C8    N2    A    
C3    C5    A    
C11   C12   S    
C25   C27   A    
C9    H13   S    
C29   C30   S    
O7    Zn2   S    
C32   C33   S    
C21   C23   A    
C24   C37   S    
C36   H31   S    
C1    O1    A    
C14   O6    A    
C35   H32   S    
O5    Zn1   S    
C17   C19   A    
C29   H16   S    
C18   C20   A    
C23   C25   A    
C3    C11   A    
C8    C10   A    
C27   C28   S    
C7    H11   S    
C33   H25   S    
C8    H12   S    
C25   H5    S    
