data_mof_unit_49836.cif
_audit_creation_date              2012-12-10T17:25:16-0500
_audit_creation_method            fapswitch 2.2
_symmetry_space_group_name_H-M    P1
_symmetry_Int_Tables_number       1
_space_group_crystal_system       triclinic
_cell_length_a                    27.744265
_cell_length_b                    10.835365
_cell_length_c                    9.683044
_cell_angle_alpha                 89.307115
_cell_angle_beta                  89.080781
_cell_angle_gamma                 93.152085
_cell_volume                      2905.88590105

loop_
_atom_site_label
_atom_site_type_symbol
_atom_type_description
_atom_site_fract_x
_atom_site_fract_y
_atom_site_fract_z
_atom_type_partial_charge
C1    C     C_R   0.497918 0.263181 0.500758 0.882718
C2    C     C_R   0.277180 0.441399 0.407072 -0.081964
C3    C     C_R   0.253779 0.508241 0.509398 0.325554
C4    C     C_R   0.101889 0.529984 0.518689 -0.054180
C5    C     C_R   0.126172 0.494697 0.637756 -0.064173
C6    C     C_R   0.100231 0.475725 0.762080 -0.261972
C7    C     C_R   0.128389 0.557501 0.395993 0.011191
C8    C     C_R   0.354906 0.501110 0.504240 -0.016294
C9    C     C_R   0.645025 0.509050 0.499312 -0.131289
C10   C     C_R   0.973230 0.484912 0.634745 0.044146
C11   C     C_R   0.977206 0.601768 0.414055 -0.052725
C12   C     C_R   0.407720 0.499386 0.501076 0.722009
C13   C     C_R   0.949835 0.542771 0.523713 -0.047269
C14   C     C_R   0.944923 0.407188 0.727623 0.471272
C15   C     C_R   0.894354 0.407233 0.724519 -0.260386
C16   C     C_R   0.871140 0.474160 0.623381 -0.052519
C17   C     C_R   0.898758 0.539446 0.520704 -0.053772
C18   C     C_R   0.875199 0.599901 0.413843 -0.103327
C19   C     C_R   0.824515 0.592843 0.410883 0.574217
C20   C     C_R   0.820534 0.472675 0.619123 0.588022
C21   C     C_R   0.720852 0.408145 0.504837 -0.189858
C22   C     C_R   0.670181 0.400112 0.503312 0.309872
C23   C     C_R   0.499193 0.737269 0.499624 0.936026
C24   C     C_R   0.670213 0.625304 0.502470 0.312008
C25   C     C_R   0.720867 0.631486 0.507464 -0.155832
C26   C     C_R   0.746265 0.523351 0.507786 0.255849
C27   C     C_R   0.024378 0.500565 0.642978 0.019135
C28   C     C_R   0.051098 0.537661 0.522199 -0.001562
C29   C     C_R   0.027369 0.582444 0.404815 0.065679
C30   C     C_R   0.049853 0.483680 0.767266 0.475636
C31   C     C_R   0.103996 0.590224 0.276679 -0.152627
C32   C     C_R   0.952792 0.674775 0.316599 0.386183
C33   C     C_R   0.902530 0.668269 0.314041 -0.108756
C34   C     C_R   0.592169 0.501688 0.499386 1.011925
C35   C     C_R   0.054256 0.601053 0.280594 -0.207332
C36   C     C_R   0.417385 0.115381 0.625035 -0.254575
C37   C     C_R   0.378695 0.043864 0.685706 0.476253
C38   C     C_R   0.379584 0.915459 0.685055 -0.104442
C39   C     C_R   0.418316 0.858136 0.624832 -0.230660
C40   C     C_R   0.457712 0.928406 0.564391 0.014120
C41   C     C_R   0.457229 0.058812 0.564675 -0.022491
C42   C     C_R   0.496031 0.129327 0.501307 -0.154062
C43   C     C_R   0.534286 0.072979 0.436523 0.306733
C44   C     C_R   0.534363 0.943619 0.434698 0.311433
C45   C     C_R   0.176363 0.483876 0.631115 0.572936
C46   C     C_R   0.496867 0.871728 0.500074 -0.166306
C47   C     C_R   0.582200 0.600997 0.132434 0.273069
C48   C     C_R   0.626559 0.601366 0.058488 0.155633
C49   C     C_R   0.624944 0.615804 0.915552 0.277901
C50   C     C_R   0.579414 0.617217 0.855051 0.363936
C51   C     C_R   0.539100 0.554540 0.922883 0.037553
C52   C     C_R   0.539837 0.550294 0.070841 0.089762
C53   C     C_R   0.462538 0.449168 0.075993 -0.033480
C54   C     C_R   0.462758 0.448149 0.928742 -0.041650
C55   C     C_R   0.178803 0.550992 0.395365 0.537587
C56   C     C_R   0.281521 0.570728 0.609475 -0.091623
C57   C     C_R   0.331545 0.564816 0.608774 -0.231518
C58   C     C_R   0.327465 0.439770 0.403007 -0.213930
Cu1   Cu    Cu3+1 0.500000 0.499990 0.640660 1.011483
Cu2   Cu    Cu3+1 0.500000 0.500010 0.359340 1.033816
H1    H     H_    0.884943 0.721715 0.236156 0.210547
H2    H     H_    0.431784 0.406695 0.131935 0.131189
H3    H     H_    0.873155 0.350198 0.798287 0.188865
N1    N     N_R   0.201908 0.513516 0.511610 -0.466849
N2    N     N_R   0.798176 0.530286 0.512999 -0.446387
N3    N     N_R   0.500460 0.501210 0.147910 -0.160840
N4    N     N_R   0.500480 0.501290 0.852040 -0.166744
O1    O     O_R   0.500000 0.319640 0.618810 -0.590051
O2    O     O_2   0.793880 0.414594 0.720769 -0.521023
O3    O     O_2   0.204523 0.583997 0.280017 -0.534636
O4    O     O_2   0.801780 0.646774 0.305780 -0.516254
O5    O     O_R   0.500000 0.319660 0.381240 -0.553360
O6    O     O_R   0.430260 0.500010 0.618770 -0.612551
O7    O     O_R   0.430270 0.500030 0.381200 -0.597558
O8    O     O_R   0.500000 0.680340 0.618760 -0.531443
O9    O     O_R   0.500000 0.680360 0.381190 -0.508736
O10   O     O_R   0.569730 0.499970 0.618800 -0.540066
O11   O     O_R   0.569740 0.499990 0.381230 -0.546588
O12   O     O_2   0.199332 0.442768 0.743086 -0.528011
H4    H     H_    0.344866 0.388886 0.322419 0.150426
H5    H     H_    0.264316 0.624096 0.688180 0.162629
H6    H     H_    0.123207 0.607227 0.179428 0.188620
O13   O     O_3   0.976156 0.761631 0.230384 -0.719756
H7    H     H_    0.004883 0.796330 0.279130 0.333204
O14   O     O_3   0.644670 0.731043 0.501583 -0.699015
H8    H     H_    0.667651 0.804356 0.504015 0.341690
H9    H     H_    0.740665 0.720301 0.511794 0.159459
H10   H     H_    0.037097 0.620732 0.184045 0.205912
O15   O     O_3   0.571602 0.147412 0.378721 -0.685716
H11   H     H_    0.601522 0.101813 0.376471 0.350354
H12   H     H_    0.415624 0.214870 0.624045 0.118592
O16   O     O_3   0.339416 0.096716 0.745127 -0.716418
H13   H     H_    0.344095 0.187950 0.737055 0.323912
H14   H     H_    0.256433 0.391029 0.330208 0.164938
H15   H     H_    0.349783 0.859422 0.730537 0.153089
H16   H     H_    0.416690 0.758434 0.624627 0.143923
O17   O     O_3   0.571665 0.885623 0.373424 -0.688234
H17   H     H_    0.580569 0.930263 0.285919 0.334369
O18   O     O_3   0.577748 0.681958 0.238712 -0.632672
H18   H     H_    0.609837 0.722179 0.257526 0.375419
O19   O     O_3   0.670367 0.612467 0.123871 -0.691805
H19   H     H_    0.665381 0.582006 0.220117 0.337217
O20   O     O_3   0.665743 0.643561 0.834759 -0.705791
H20   H     H_    0.695002 0.636112 0.890774 0.397040
O21   O     O_3   0.572734 0.698138 0.747752 -0.650057
H21   H     H_    0.601672 0.755101 0.734629 0.375479
H22   H     H_    0.432229 0.404773 0.876504 0.132204
H23   H     H_    0.119219 0.458289 0.856655 0.187072
O22   O     O_3   0.644569 0.287408 0.508403 -0.702614
H24   H     H_    0.667553 0.220605 0.513352 0.332587
H25   H     H_    0.740682 0.324774 0.505297 0.159441
O23   O     O_3   0.966789 0.321979 0.809760 -0.677987
H26   H     H_    0.941963 0.274103 0.866160 0.331450
O24   O     O_3   0.025865 0.487541 0.893301 -0.679164
H27   H     H_    0.048975 0.476298 0.968920 0.319434
H28   H     H_    0.351996 0.612123 0.688439 0.148181

loop_
_geom_bond_atom_site_label_1
_geom_bond_atom_site_label_2
_ccdc_geom_bond_type
C10   C27   A    
C21   C26   A    
O19   H19   S    
C12   O7    A    
C41   C42   A    
C19   O4    S    
C7    C55   A    
C23   O9    A    
Cu1   O10   S    
C3    C56   A    
O17   H17   S    
C56   H5    S    
C3    N1    S    
C14   O23   S    
Cu2   O11   S    
C43   O15   S    
C31   H6    S    
C54   H22   S    
C28   C29   A    
C34   O10   A    
O14   H8    S    
C5    C6    A    
Cu1   O1    S    
C9    C22   A    
Cu2   O5    S    
C15   C16   A    
C25   H9    S    
C1    O1    A    
C47   O18   S    
C56   C57   A    
C18   C19   A    
C35   H10   S    
C4    C28   A    
C47   C48   A    
C16   C17   A    
C38   H15   S    
C50   O21   S    
C8    C12   S    
C24   O14   S    
Cu1   O6    S    
C58   H4    S    
Cu1   N4    S    
Cu2   N3    S    
Cu1   Cu2   S    
C23   C46   S    
C21   C22   A    
C27   C30   A    
C36   C41   A    
C4    C7    A    
O23   H26   S    
C21   H25   S    
C44   C46   A    
C17   C18   A    
C57   H28   S    
C1    O5    A    
C7    C31   A    
C51   C52   A    
C20   N2    A    
C2    H14   S    
C24   C25   A    
C10   C14   A    
C39   C40   A    
C54   N4    A    
C25   C26   A    
C53   C54   A    
C5    C45   A    
Cu2   O9    S    
C40   C46   A    
C43   C44   A    
C37   C38   A    
C8    C57   A    
C44   O17   S    
O13   H7    S    
C16   C20   A    
C22   O22   S    
C55   N1    A    
C50   C51   A    
C45   O12   S    
C51   N4    A    
C53   N3    A    
C36   H12   S    
C33   H1    S    
C48   C49   A    
C6    C30   A    
C11   C32   A    
C9    C34   S    
C31   C35   A    
C20   O2    S    
C42   C43   A    
Cu1   O8    S    
O20   H20   S    
C52   N3    A    
C30   O24   S    
C32   O13   S    
C15   H3    S    
C40   C41   A    
C8    C58   A    
C37   O16   S    
C26   N2    S    
C23   O8    A    
C4    C5    A    
C10   C13   A    
C49   O20   S    
C2    C58   A    
C9    C24   A    
O24   H27   S    
C47   C52   A    
O21   H21   S    
C29   C35   A    
C45   N1    A    
O18   H18   S    
C13   C17   A    
C32   C33   A    
C2    C3    A    
O22   H24   S    
C34   O11   A    
C11   C13   A    
C38   C39   A    
C48   O19   S    
Cu2   O7    S    
O16   H13   S    
C19   N2    A    
C18   C33   A    
C39   H16   S    
C55   O3    S    
C1    C42   S    
C11   C29   A    
C53   H2    S    
C36   C37   A    
C49   C50   A    
C27   C28   A    
C6    H23   S    
C14   C15   A    
O15   H11   S    
C12   O6    A    
