data_mof_unit_55562.cif
_audit_creation_date              2012-12-11T15:54:56-0500
_audit_creation_method            fapswitch 2.2
_symmetry_space_group_name_H-M    P1
_symmetry_Int_Tables_number       1
_space_group_crystal_system       triclinic
_cell_length_a                    17.537928
_cell_length_b                    24.384774
_cell_length_c                    15.037273
_cell_angle_alpha                 89.999921
_cell_angle_beta                  125.993813
_cell_angle_gamma                 90.00002
_cell_volume                      5203.04779299

loop_
_atom_site_label
_atom_site_type_symbol
_atom_type_description
_atom_site_fract_x
_atom_site_fract_y
_atom_site_fract_z
_atom_type_partial_charge
C1    C     C_R   0.901246 0.876577 0.091306 -0.134787
C2    C     C_R   0.149305 0.847876 0.090664 -0.150396
C3    C     C_R   0.316031 0.642332 0.997224 0.024808
C4    C     C_R   0.698586 0.000000 0.631405 -0.004141
C5    C     C_R   0.198898 0.500000 0.631228 -0.002242
C6    C     C_R   0.063493 0.999999 0.366562 -0.000283
C7    C     C_R   0.484084 0.500000 0.308841 0.002392
C8    C     C_R   0.267914 0.953983 0.247155 -0.120102
C9    C     C_R   0.267914 0.046017 0.247155 -0.120100
C10   C     C_R   0.768034 0.454000 0.247537 -0.120004
C11   C     C_R   0.768034 0.546000 0.247537 -0.120003
C12   C     C_R   0.018993 0.046062 0.751025 -0.110786
C13   C     C_R   0.652208 0.651317 0.090745 -0.151884
C14   C     C_R   0.018999 0.953940 0.751030 -0.110835
C15   C     C_R   0.449498 0.545797 0.695816 -0.105816
C16   C     C_R   0.449498 0.454203 0.695816 -0.105819
C17   C     C_R   0.652209 0.348683 0.090745 -0.151887
C18   C     C_R   0.324181 0.000000 0.273183 0.007449
C19   C     C_R   0.824312 0.500000 0.273541 0.008357
C20   C     C_R   0.048184 0.000002 0.723948 0.034182
C21   C     C_R   0.432092 0.500000 0.632841 -0.033494
C22   C     C_R   0.118091 0.817025 0.998222 0.012613
C23   C     C_R   0.118091 0.182975 0.998222 0.012613
C24   C     C_R   0.623743 0.318593 0.998174 0.014531
C25   C     C_R   0.901246 0.123422 0.091307 -0.134789
C26   C     C_R   0.623742 0.681407 0.998173 0.014531
C27   C     C_3   0.118337 0.051554 0.539134 -0.424993
C28   C     C_3   0.963785 0.999971 0.427748 -0.380660
C29   C     C_3   0.406460 0.551522 0.377299 -0.398005
C30   C     C_3   0.406453 0.448481 0.377294 -0.398001
C31   C     C_3   0.114731 0.051431 0.638967 -0.344131
C32   C     C_3   0.959675 0.000013 0.526030 -0.409658
C33   C     C_3   0.390904 0.551505 0.467335 -0.412171
C34   C     C_3   0.390897 0.448497 0.467330 -0.412171
C35   C     C_3   0.118422 0.948474 0.539196 -0.424935
C36   C     C_R   0.404692 0.370668 0.090315 -0.131353
C37   C     C_3   0.560512 0.499998 0.503230 -0.421537
C38   C     C_3   0.067339 0.999999 0.466929 0.395473
C39   C     C_3   0.464392 0.500000 0.389659 0.398020
C40   C     C_3   0.060475 0.000002 0.635086 0.326568
C41   C     C_3   0.438198 0.500000 0.540897 0.389035
C42   C     C_R   0.809460 0.123241 0.906870 -0.140524
C43   C     C_R   0.809460 0.876759 0.906869 -0.140524
C44   C     C_R   0.311259 0.626195 0.905930 -0.146194
C45   C     C_R   0.311259 0.373805 0.905930 -0.146194
C46   C     C_3   0.114695 0.948559 0.638943 -0.344209
C47   C     C_R   0.404693 0.629332 0.090315 -0.131354
C48   C     C_3   0.545217 0.499998 0.592553 -0.352932
C49   C     C_3   0.657580 0.186453 0.886575 -0.396638
C50   C     C_3   0.657580 0.813547 0.886573 -0.396638
C51   C     C_3   0.160074 0.689569 0.883750 -0.399202
C52   C     C_3   0.160074 0.310431 0.883750 -0.399201
C53   C     C_3   0.104162 0.737259 0.885098 -0.379792
C54   C     C_3   0.104163 0.262740 0.885096 -0.379797
C55   C     C_3   0.605264 0.236605 0.887015 -0.382270
C56   C     C_3   0.605264 0.763394 0.887013 -0.382271
C57   C     C_3   0.313366 0.740213 0.015721 -0.478504
C58   C     C_R   0.055304 0.848074 0.907524 -0.016518
C59   C     C_3   0.313366 0.259787 0.015720 -0.478506
C60   C     C_3   0.813637 0.235435 0.014365 -0.472747
C61   C     C_3   0.813637 0.764564 0.014366 -0.472749
C62   C     C_3   0.744385 0.177596 0.090833 -0.401384
C63   C     C_3   0.744384 0.822404 0.090831 -0.401385
C64   C     C_3   0.244166 0.678286 0.087327 -0.399519
C65   C     C_3   0.244166 0.321714 0.087327 -0.399524
C66   C     C_3   0.757151 0.182541 0.997475 0.336472
C67   C     C_3   0.757151 0.817459 0.997474 0.336472
C68   C     C_3   0.258725 0.686211 0.995802 0.336971
C69   C     C_R   0.055304 0.151926 0.907524 -0.016514
C70   C     C_3   0.258725 0.313789 0.995802 0.336968
C71   C     C_3   0.166120 0.768714 0.996067 0.259667
C72   C     C_3   0.166120 0.231286 0.996067 0.259666
C73   C     C_3   0.669458 0.268511 0.996983 0.255786
C74   C     C_3   0.669457 0.731489 0.996982 0.255787
C75   C     C_3   0.258626 0.789108 0.014348 0.371660
C76   C     C_3   0.258628 0.210892 0.014352 0.371655
C77   C     C_3   0.762431 0.286116 0.013929 0.366416
C78   C     C_3   0.762432 0.713883 0.013932 0.366415
C79   C     C_3   0.191246 0.728007 0.089302 -0.487815
C80   C     C_R   0.559727 0.349420 0.907017 -0.008530
C81   C     C_3   0.191242 0.271994 0.089299 -0.487807
C82   C     C_3   0.693477 0.228907 0.091496 -0.484138
C83   C     C_3   0.693474 0.771094 0.091494 -0.484138
C84   C     C_3   0.476370 0.948566 0.358425 -0.388390
C85   C     C_3   0.476368 0.051437 0.358431 -0.388393
C86   C     C_3   0.976543 0.448568 0.358390 -0.387136
C87   C     C_3   0.976541 0.551435 0.358395 -0.387140
C88   C     C_R   0.745012 0.954365 0.694844 -0.154525
C89   C     C_R   0.745012 0.045635 0.694844 -0.154525
C90   C     C_R   0.245115 0.454362 0.694803 -0.149434
C91   C     C_R   0.559726 0.650581 0.907017 -0.008530
C92   C     C_R   0.245115 0.545638 0.694803 -0.149434
C93   C     C_3   0.580439 0.948463 0.458559 -0.411467
C94   C     C_3   0.580437 0.051540 0.458565 -0.411468
C95   C     C_3   0.080714 0.448478 0.458349 -0.411244
C96   C     C_3   0.080712 0.551525 0.458354 -0.411243
C97   C     C_3   0.434442 0.999998 0.470773 -0.401306
C98   C     C_3   0.934895 0.499998 0.471002 -0.398765
C99   C     C_3   0.425877 0.000000 0.362035 0.380529
C100  C     C_3   0.926102 0.500000 0.362155 0.377530
C101  C     C_3   0.601775 0.000000 0.530636 0.402359
C102  C     C_R   0.149305 0.152124 0.090664 -0.150389
C103  C     C_3   0.102115 0.500000 0.530477 0.399902
C104  C     C_3   0.537309 0.999998 0.569277 -0.387283
C105  C     C_3   0.037787 0.499998 0.569313 -0.386553
C106  C     C_R   0.048094 0.045702 0.303952 -0.152674
C107  C     C_R   0.048088 0.954296 0.303949 -0.152640
C108  C     C_R   0.505838 0.545968 0.274742 -0.143229
C109  C     C_R   0.505838 0.454032 0.274742 -0.143229
C110  C     C_R   0.812208 0.863154 0.998321 0.020387
C111  C     C_R   0.812208 0.136845 0.998322 0.020386
C112  C     C_R   0.316030 0.357668 0.997223 0.024809
Cl1   Cl    Cl    0.238918 0.838158 0.913165 -0.730618
Cl2   Cl    Cl    0.238926 0.161839 0.913177 -0.730603
Cl3   Cl    Cl    0.744578 0.334159 0.912309 -0.704518
Cl4   Cl    Cl    0.744581 0.665840 0.912315 -0.704517
H1    H     H_    0.930094 0.868095 0.176008 0.088402
H2    H     H_    0.919879 0.036819 0.521453 0.155150
H3    H     H_    0.515037 0.412667 0.304409 0.084005
H4    H     H_    0.289072 0.911552 0.262776 0.087849
H5    H     H_    0.289071 0.088448 0.262775 0.087850
H6    H     H_    0.789360 0.411616 0.263657 0.088333
H7    H     H_    0.789359 0.588384 0.263656 0.088334
H8    H     H_    0.024192 0.088524 0.735275 0.112499
H9    H     H_    0.024210 0.911478 0.735289 0.112540
H10   H     H_    0.439158 0.588418 0.671908 0.085096
H11   H     H_    0.439159 0.411583 0.671908 0.085097
H12   H     H_    0.010882 0.835598 0.822421 0.068806
H13   H     H_    0.314135 0.551829 0.429939 0.153539
H14   H     H_    0.010882 0.164402 0.822421 0.068801
H15   H     H_    0.517878 0.337638 0.821486 0.076274
H16   H     H_    0.517877 0.662362 0.821486 0.076272
H17   H     H_    0.193686 0.165310 0.175378 0.081179
H18   H     H_    0.193686 0.834690 0.175378 0.081182
H19   H     H_    0.695817 0.664823 0.175252 0.082853
H20   H     H_    0.695818 0.335177 0.175253 0.082854
H21   H     H_    0.192878 0.052319 0.567270 0.160985
H22   H     H_    0.926198 0.963132 0.376210 0.153269
H23   H     H_    0.443829 0.590029 0.385268 0.146753
H24   H     H_    0.314128 0.448178 0.429934 0.153539
H25   H     H_    0.443816 0.409973 0.385257 0.146752
H26   H     H_    0.551419 0.963186 0.620795 0.154649
H27   H     H_    0.551418 0.036808 0.620799 0.154650
H28   H     H_    0.051963 0.463187 0.620859 0.155539
H29   H     H_    0.051961 0.536808 0.620861 0.155541
H30   H     H_    0.187480 0.051701 0.716464 0.191321
H31   H     H_    0.919808 0.963251 0.521479 0.155127
H32   H     H_    0.421773 0.589926 0.515347 0.153753
H33   H     H_    0.421761 0.410075 0.515339 0.153752
H34   H     H_    0.192991 0.947785 0.567429 0.161027
H35   H     H_    0.084104 0.910234 0.491920 0.150687
H36   H     H_    0.602226 0.536858 0.512642 0.165470
H37   H     H_    0.930094 0.131903 0.176009 0.088404
H38   H     H_    0.602221 0.463136 0.512639 0.165469
H39   H     H_    0.187411 0.948236 0.716494 0.191360
H40   H     H_    0.079556 0.910132 0.636460 0.162010
H41   H     H_    0.580036 0.536809 0.645541 0.181828
H42   H     H_    0.580032 0.463185 0.645538 0.181828
H43   H     H_    0.662144 0.191459 0.816455 0.160374
H44   H     H_    0.662144 0.808541 0.816454 0.160373
H45   H     H_    0.166509 0.697163 0.815548 0.162418
H46   H     H_    0.166508 0.302839 0.815547 0.162411
H47   H     H_    0.616571 0.148494 0.872274 0.157746
H48   H     H_    0.435908 0.356367 0.172602 0.082536
H49   H     H_    0.616571 0.851505 0.872272 0.157747
H50   H     H_    0.120958 0.650440 0.866405 0.158739
H51   H     H_    0.120957 0.349560 0.866406 0.158742
H52   H     H_    0.539379 0.223396 0.875842 0.158044
H53   H     H_    0.539378 0.776603 0.875838 0.158043
H54   H     H_    0.039180 0.721586 0.873316 0.161122
H55   H     H_    0.039177 0.278411 0.873307 0.161120
H56   H     H_    0.081998 0.764141 0.814088 0.184464
H57   H     H_    0.082005 0.235857 0.814087 0.184463
H58   H     H_    0.584673 0.262577 0.815419 0.186037
H59   H     H_    0.435909 0.643633 0.172602 0.082536
H60   H     H_    0.584675 0.737422 0.815418 0.186038
H61   H     H_    0.326701 0.744888 0.952252 0.207267
H62   H     H_    0.326697 0.255112 0.952249 0.207268
H63   H     H_    0.825040 0.238440 0.949063 0.207152
H64   H     H_    0.825040 0.761559 0.949064 0.207153
H65   H     H_    0.753591 0.130096 0.821406 0.093728
H66   H     H_    0.753591 0.869904 0.821406 0.093727
H67   H     H_    0.255702 0.632964 0.820262 0.093685
H68   H     H_    0.255702 0.367036 0.820262 0.093684
H69   H     H_    0.813427 0.173916 0.172454 0.148036
H70   H     H_    0.083881 0.089767 0.491831 0.150730
H71   H     H_    0.813425 0.826084 0.172452 0.148036
H72   H     H_    0.312497 0.674143 0.169603 0.148454
H73   H     H_    0.312497 0.325855 0.169603 0.148455
H74   H     H_    0.702821 0.140210 0.078531 0.170097
H75   H     H_    0.702820 0.859791 0.078528 0.170098
H76   H     H_    0.203245 0.640141 0.071936 0.170744
H77   H     H_    0.203247 0.359860 0.071937 0.170744
H78   H     H_    0.627941 0.216630 0.082034 0.187432
H79   H     H_    0.627937 0.783372 0.082029 0.187432
H80   H     H_    0.126064 0.714102 0.079076 0.189046
H81   H     H_    0.926099 0.036753 0.376061 0.153255
H82   H     H_    0.126057 0.285901 0.079067 0.189046
H83   H     H_    0.237121 0.747881 0.171226 0.151862
H84   H     H_    0.237113 0.252121 0.171225 0.151860
H85   H     H_    0.740436 0.249129 0.172875 0.150989
H86   H     H_    0.740431 0.750873 0.172874 0.150989
H87   H     H_    0.383643 0.739092 0.096816 0.131284
H88   H     H_    0.383644 0.260909 0.096813 0.131287
H89   H     H_    0.884808 0.233802 0.094277 0.132795
H90   H     H_    0.884807 0.766198 0.094278 0.132796
H91   H     H_    0.303291 0.810182 0.095422 0.064642
H92   H     H_    0.337330 0.551866 0.294908 0.157106
H93   H     H_    0.303293 0.189821 0.095430 0.064641
H94   H     H_    0.808815 0.307052 0.094937 0.064046
H95   H     H_    0.808815 0.692949 0.094941 0.064046
H96   H     H_    0.443650 0.910111 0.360611 0.143945
H97   H     H_    0.443647 0.089890 0.360622 0.143945
H98   H     H_    0.943897 0.410108 0.360691 0.143722
H99   H     H_    0.943895 0.589894 0.360703 0.143722
H100  H     H_    0.471343 0.948310 0.281135 0.168155
H101  H     H_    0.471341 0.051697 0.281140 0.168156
H102  H     H_    0.971335 0.448314 0.280987 0.168597
H103  H     H_    0.337323 0.448141 0.294903 0.157107
H104  H     H_    0.971332 0.551693 0.280992 0.168596
H105  H     H_    0.626912 0.947779 0.430818 0.155266
H106  H     H_    0.626910 0.052228 0.430823 0.155267
H107  H     H_    0.127071 0.447842 0.430431 0.153031
H108  H     H_    0.127068 0.552164 0.430434 0.153031
H109  H     H_    0.732409 0.912037 0.668832 0.085918
H110  H     H_    0.732410 0.087963 0.668832 0.085919
H111  H     H_    0.232593 0.412039 0.668788 0.083643
H112  H     H_    0.232594 0.587961 0.668788 0.083643
H113  H     H_    0.593519 0.910216 0.505714 0.147598
H114  H     H_    0.079690 0.089872 0.636627 0.162038
H115  H     H_    0.593515 0.089785 0.505723 0.147598
H116  H     H_    0.093929 0.410216 0.505508 0.147164
H117  H     H_    0.093926 0.589785 0.505516 0.147164
H118  H     H_    0.399108 0.963213 0.475162 0.154971
H119  H     H_    0.399106 0.036780 0.475165 0.154971
H120  H     H_    0.899635 0.463210 0.475508 0.156611
H121  H     H_    0.899632 0.536783 0.475511 0.156612
H122  H     H_    0.060925 0.088051 0.329839 0.085877
H123  H     H_    0.060910 0.911946 0.329829 0.085854
H124  H     H_    0.515037 0.587333 0.304409 0.084005
N1    N     N_R   0.950530 0.896220 0.057200 -0.040008
N2    N     N_R   0.818150 0.028600 0.792440 -0.032729
N3    N     N_R   0.318150 0.471400 0.792440 -0.033344
N4    N     N_R   0.318150 0.528600 0.792440 -0.033344
N5    N     N_R   0.025710 0.028600 0.207560 -0.032544
N6    N     N_R   0.025710 0.971400 0.207560 -0.032544
N7    N     N_R   0.525710 0.528600 0.207560 -0.034496
N8    N     N_R   0.525710 0.471400 0.207560 -0.034496
N9    N     N_R   0.181850 0.971400 0.207560 -0.039133
N10   N     N_R   0.181850 0.028600 0.207560 -0.039134
N11   N     N_R   0.681850 0.471400 0.207560 -0.041574
N12   N     N_R   0.950530 0.103780 0.057200 -0.040008
N13   N     N_R   0.681850 0.528600 0.207560 -0.041574
N14   N     N_R   0.974290 0.028600 0.792440 -0.046088
N15   N     N_R   0.974290 0.971400 0.792440 -0.046088
N16   N     N_R   0.474290 0.528600 0.792440 -0.031367
N17   N     N_R   0.474290 0.471400 0.792440 -0.031367
N18   N     N_R   0.049470 0.896220 0.942800 -0.037566
N19   N     N_R   0.049470 0.103780 0.942800 -0.037566
N20   N     N_R   0.549470 0.396220 0.942800 -0.042004
N21   N     N_R   0.549470 0.603780 0.942800 -0.042004
N22   N     N_R   0.106670 0.103780 0.057200 -0.030288
N23   N     N_R   0.450530 0.396220 0.057200 -0.038386
N24   N     N_R   0.106670 0.896220 0.057200 -0.030288
N25   N     N_R   0.606670 0.603780 0.057200 -0.032653
N26   N     N_R   0.606670 0.396220 0.057200 -0.032653
N27   N     N_R   0.450530 0.603780 0.057200 -0.038386
N28   N     N_R   0.893330 0.103780 0.942800 -0.042999
N29   N     N_R   0.893330 0.896220 0.942800 -0.042999
N30   N     N_R   0.393330 0.603780 0.942800 -0.042981
N31   N     N_R   0.393330 0.396220 0.942800 -0.042981
N32   N     N_R   0.818150 0.971400 0.792440 -0.032728
Ni1   Ni    Ni4+2 0.065600 0.934400 0.131190 0.210922
Ni2   Ni    Ni4+2 0.065600 0.065600 0.131190 0.210920
Ni3   Ni    Ni4+2 0.565600 0.434400 0.131190 0.210740
Ni4   Ni    Ni4+2 0.565600 0.565600 0.131190 0.210740
Ni5   Ni    Ni4+2 0.934400 0.065600 0.868810 0.209959
Ni6   Ni    Ni4+2 0.934400 0.934400 0.868810 0.209959
Ni7   Ni    Ni4+2 0.434400 0.565600 0.868810 0.212552
Ni8   Ni    Ni4+2 0.434400 0.434400 0.868810 0.212552

loop_
_geom_bond_atom_site_label_1
_geom_bond_atom_site_label_2
_ccdc_geom_bond_type
C76   H93   S    
N27   Ni4   S    
C57   H61   S    
N29   Ni6   S    
C5    C103  S    
C58   H12   S    
C16   C21   A    
C56   H53   S    
C78   H95   S    
N12   Ni2   S    
C23   C69   A    
N16   Ni7   S    
C3    C68   S    
C89   H110  S    
C72   C76   S    
N19   N22   A    
C105  H28   S    
C71   C79   S    
C45   C112  A    
C62   H74   S    
C98   H121  S    
C37   H38   S    
C60   H63   S    
C40   C46   S    
C46   H39   S    
C108  N7    A    
C11   C19   A    
N9    N10   A    
C2    H18   S    
C30   H25   S    
C12   C20   A    
C58   N18   A    
C64   C68   S    
C54   H57   S    
C94   H106  S    
C51   C68   S    
C10   C19   A    
N11   Ni3   S    
C4    C89   A    
C52   H51   S    
N20   Ni8   S    
N27   N30   A    
C63   H75   S    
C24   C73   S    
N11   N13   A    
C23   C102  A    
C27   C38   S    
C47   N27   A    
N3    N4    A    
C97   H119  S    
C31   H114  S    
C29   C33   S    
C31   C40   S    
C10   N11   A    
C86   H102  S    
N1    Ni1   S    
C45   H68   S    
C85   H101  S    
C82   H78   S    
C107  N6    A    
C53   H56   S    
C97   C99   S    
C31   H30   S    
C75   H91   S    
C59   H88   S    
C88   N32   A    
C2    N24   A    
C14   N15   A    
C108  H124  S    
C109  N8    A    
C95   C103  S    
C69   H14   S    
C96   H108  S    
C15   H10   S    
N21   Ni7   S    
C2    C22   A    
C9    H5    S    
C6    C107  A    
C6    C38   S    
C80   N20   A    
C43   C110  A    
C66   C111  S    
C86   C100  S    
C50   C67   S    
N26   Ni3   S    
C5    C90   A    
C91   N21   A    
C61   H90   S    
C69   N19   A    
C52   C54   S    
N23   N31   A    
C65   C70   S    
C62   C82   S    
C60   C66   S    
C25   N12   A    
C80   H15   S    
C90   N3    A    
N16   N17   A    
C13   H19   S    
C29   C39   S    
C34   C41   S    
C35   H35   S    
C55   H52   S    
C81   H84   S    
C83   H86   S    
N22   Ni2   S    
C54   H55   S    
C104  H26   S    
C70   C112  S    
C64   H76   S    
C34   H33   S    
C24   C80   A    
C94   H115  S    
C65   H77   S    
N14   Ni5   S    
C59   H62   S    
C42   H65   S    
C87   H99   S    
C29   H23   S    
C63   C67   S    
C8    N9    A    
C17   C24   A    
C12   N14   A    
C49   C66   S    
C30   C34   S    
C27   C31   S    
C5    C92   A    
C36   N23   A    
C14   C20   A    
C90   H111  S    
C28   C32   S    
C35   C38   S    
C28   H22   S    
C95   H116  S    
C94   C101  S    
N8    Ni3   S    
C67   C110  S    
C93   C101  S    
C60   C77   S    
C33   H13   S    
C62   C66   S    
C75   Cl1   S    
C1    H1    S    
C91   H16   S    
C54   C72   S    
C50   H44   S    
C26   C91   A    
C49   C55   S    
C48   H42   S    
N28   Ni5   S    
N4    Ni7   S    
C95   H107  S    
C79   H80   S    
C7    C109  A    
C63   C83   S    
N5    Ni2   S    
C51   C53   S    
C27   H70   S    
N2    N32   A    
N30   Ni7   S    
C36   C112  A    
C42   C111  A    
C86   H98   S    
C55   H58   S    
N21   N25   A    
C17   N26   A    
C85   C99   S    
C33   H32   S    
C85   H97   S    
C1    C110  A    
C85   C94   S    
C61   C67   S    
N25   Ni4   S    
C65   C81   S    
C76   Cl2   S    
C12   H8    S    
C88   H109  S    
C28   C38   S    
C61   C78   S    
C96   H117  S    
C105  H29   S    
C4    C101  S    
C57   H87   S    
C17   H20   S    
C102  N22   A    
C6    C106  A    
C104  H27   S    
C29   H92   S    
C103  C105  S    
C27   H21   S    
C87   H104  S    
C37   C48   S    
C98   C105  S    
C44   H67   S    
N12   N28   A    
C64   H72   S    
C11   N13   A    
C1    N1    A    
C53   H54   S    
C61   H64   S    
C62   H69   S    
C21   C41   S    
C77   H94   S    
N31   Ni8   S    
C35   H34   S    
C65   H73   S    
C101  C104  S    
C63   H71   S    
C3    C44   A    
N15   Ni6   S    
C74   C78   S    
N18   Ni6   S    
C64   C79   S    
N9    Ni1   S    
C13   C26   A    
N19   Ni5   S    
C18   C99   S    
C8    C18   A    
C57   C68   S    
C42   N28   A    
C53   C71   S    
C73   C82   S    
C81   H82   S    
C32   C40   S    
C109  H3    S    
C44   N30   A    
C87   C100  S    
C93   H113  S    
C45   N31   A    
C8    H4    S    
C32   H31   S    
N32   Ni6   S    
C79   H83   S    
C43   N29   A    
N23   Ni3   S    
C84   C99   S    
C23   C72   S    
N6    Ni1   S    
C78   Cl4   S    
C72   C81   S    
C32   H2    S    
C10   H6    S    
N13   Ni4   S    
C13   N25   A    
N3    Ni8   S    
C22   C58   A    
C82   H85   S    
N18   N24   A    
C19   C100  S    
C84   H96   S    
C87   C96   S    
C4    C88   A    
C11   H7    S    
C56   H60   S    
C46   H40   S    
C48   H41   S    
C43   H66   S    
C98   C100  S    
N24   Ni1   S    
C50   H49   S    
C7    C39   S    
C84   C93   S    
C57   C75   S    
N14   N15   A    
C9    N10   A    
C102  H17   S    
C33   C41   S    
C37   C39   S    
C25   H37   S    
C77   Cl3   S    
C28   H81   S    
C71   C75   S    
C16   N17   A    
C92   N4    A    
C107  H123  S    
C20   C40   S    
C97   H118  S    
C59   C76   S    
C3    C47   A    
C26   C74   S    
C41   C48   S    
N1    N29   A    
C30   C39   S    
C51   H45   S    
C74   C83   S    
C14   H9    S    
N10   Ni2   S    
C106  N5    A    
C83   H79   S    
C60   H89   S    
C16   H11   S    
C50   C56   S    
C49   H47   S    
C97   C104  S    
C52   C70   S    
C86   C95   S    
C25   C111  A    
C59   C70   S    
C55   C73   S    
C9    C18   A    
C15   C21   A    
C98   H120  S    
C92   H112  S    
N17   Ni8   S    
C106  H122  S    
C96   C103  S    
C22   C71   S    
C36   H48   S    
C73   C77   S    
C89   N2    A    
C49   H43   S    
C51   H50   S    
C93   H105  S    
C37   H36   S    
N2    Ni5   S    
N7    Ni4   S    
N5    N6    A    
C35   C46   S    
N20   N26   A    
C15   N16   A    
C7    C108  A    
C56   C74   S    
C47   H59   S    
C84   H100  S    
N7    N8    A    
C52   H46   S    
C30   H103  S    
C34   H24   S    
