data_mof_unit_22331.cif
_audit_creation_date              2012-12-11T14:14:08-0500
_audit_creation_method            fapswitch 2.2
_symmetry_space_group_name_H-M    P1
_symmetry_Int_Tables_number       1
_space_group_crystal_system       triclinic
_cell_length_a                    16.908031
_cell_length_b                    7.228562
_cell_length_c                    17.182578
_cell_angle_alpha                 89.998345
_cell_angle_beta                  99.269769
_cell_angle_gamma                 89.997547
_cell_volume                      2072.64246778

loop_
_atom_site_label
_atom_site_type_symbol
_atom_type_description
_atom_site_fract_x
_atom_site_fract_y
_atom_site_fract_z
_atom_type_partial_charge
O1    O     O_R   0.414560 0.494370 0.416770 -0.534557
O2    O     O_R   0.585440 0.994370 0.583230 -0.534562
O3    O     O_R   0.578370 0.819590 0.429320 -0.543166
O4    O     O_R   0.421630 0.319590 0.570680 -0.543161
C1    C     C_R   0.605122 0.653716 0.413810 0.712517
C2    C     C_R   0.394879 0.153717 0.586190 0.712562
O5    O     O_R   0.414740 0.823790 0.407360 -0.547553
O6    O     O_R   0.585260 0.323790 0.592640 -0.547562
O7    O     O_R   0.420650 0.998510 0.561120 -0.538246
O8    O     O_R   0.579350 0.498510 0.438880 -0.538246
C3    C     C_R   0.385145 0.654253 0.388427 0.711789
C4    C     C_R   0.614855 0.154243 0.611571 0.711789
O9    O     O_3   0.502130 0.662240 0.550470 -0.378193
O10   O     O_3   0.497870 0.162240 0.449530 -0.378196
V1    V     V_3+5 0.499600 0.935390 0.490640 1.384329
V2    V     V_3+5 0.500400 0.435390 0.509360 1.384318
C5    C     C_2   0.799400 0.261229 0.770734 0.167689
C6    C     C_2   0.200595 0.761158 0.229232 0.167346
C7    C     C_2   0.816409 0.120865 0.823772 -0.381048
C8    C     C_2   0.183638 0.620833 0.176178 -0.381322
H1    H     H_    0.773173 0.009519 0.823716 0.116597
H2    H     H_    0.226895 0.509525 0.176231 0.116738
C9    C     C_2   0.719603 0.266083 0.718886 -0.182184
C10   C     C_2   0.280385 0.766084 0.281099 -0.181794
C11   C     C_2   0.692736 0.133294 0.665731 -0.018304
C12   C     C_2   0.307261 0.633323 0.334268 -0.018339
H3    H     H_    0.684615 0.391697 0.720466 0.116489
H4    H     H_    0.315377 0.891677 0.279491 0.116486
C13   C     C_R   0.331936 0.130593 0.637490 -0.114626
C14   C     C_R   0.668066 0.630594 0.362511 -0.114634
C15   C     C_R   0.166294 0.136294 0.861700 -0.053815
C16   C     C_R   0.833704 0.636296 0.138298 -0.053853
C17   C     C_R   0.266895 0.332808 0.815578 -0.186397
C18   C     C_R   0.733092 0.832804 0.184412 -0.186389
C19   C     C_R   0.214692 0.296000 0.868834 -0.160618
C20   C     C_R   0.785296 0.795997 0.131157 -0.160612
C21   C     C_R   0.172794 0.011679 0.800554 -0.247402
C22   C     C_R   0.827212 0.511684 0.199450 -0.247415
C23   C     C_R   0.224929 0.047901 0.745023 0.091362
C24   C     C_R   0.775076 0.547905 0.254980 0.091363
C25   C     C_R   0.272084 0.211836 0.752998 0.148430
C26   C     C_R   0.727911 0.711836 0.246999 0.148414
C27   C     C_R   0.324685 0.252248 0.699308 -0.248620
C28   C     C_R   0.675307 0.752244 0.300686 -0.248595
C29   C     C_R   0.283647 0.970404 0.628631 -0.152677
C30   C     C_R   0.716367 0.470415 0.371379 -0.152695
C31   C     C_R   0.230562 0.925627 0.681558 0.116985
C32   C     C_R   0.769451 0.425632 0.318450 0.117011
H5    H     H_    0.361862 0.375152 0.707237 0.128883
H6    H     H_    0.638120 0.875142 0.292751 0.128881
H7    H     H_    0.289048 0.878888 0.580073 0.142561
H8    H     H_    0.710975 0.378910 0.419945 0.142546
H9    H     H_    0.302715 0.457820 0.822935 0.115443
H10   H     H_    0.697264 0.957812 0.177049 0.115446
H11   H     H_    0.211575 0.394994 0.915571 0.126571
H12   H     H_    0.788408 0.894987 0.084415 0.126574
H13   H     H_    0.134808 0.890596 0.795585 0.120444
H14   H     H_    0.865207 0.390607 0.204426 0.120444
O11   O     O_R   0.920750 0.773600 0.061260 -0.538687
O12   O     O_R   0.079250 0.273600 0.938740 -0.538715
O13   O     O_R   0.085340 0.439850 0.092570 -0.540818
O14   O     O_R   0.914660 0.939850 0.907430 -0.540809
C33   C     C_R   0.111943 0.609430 0.114429 0.731150
C34   C     C_R   0.888082 0.109448 0.885545 0.731142
O15   O     O_R   0.921720 0.444130 0.070790 -0.539057
O16   O     O_R   0.078280 0.944130 0.929210 -0.539078
O17   O     O_R   0.914480 0.269530 0.916840 -0.538517
O18   O     O_R   0.085520 0.769530 0.083160 -0.538497
C35   C     C_R   0.895709 0.614136 0.086166 0.683796
C36   C     C_R   0.104291 0.114134 0.913834 0.683757
O19   O     O_3   0.997840 0.601520 0.949550 -0.379464
O20   O     O_3   0.002160 0.101520 0.050450 -0.379450
V3    V     V_3+5 0.000400 0.328340 0.009360 1.382990
V4    V     V_3+5 0.999600 0.828340 0.990640 1.382990
C37   C     C_3   0.856570 0.421405 0.764565 -0.278116
C38   C     C_3   0.855676 0.484728 0.679463 -0.797952
H15   H     H_    0.870844 0.367465 0.642796 0.232295
H16   H     H_    0.796037 0.540816 0.653857 0.228663
H17   H     H_    0.900763 0.595960 0.678188 0.216327
H18   H     H_    0.839883 0.539728 0.799889 0.172671
H19   H     H_    0.919428 0.381538 0.787169 0.187898
C39   C     C_3   0.143315 0.921163 0.235331 -0.277567
C40   C     C_3   0.144701 0.985942 0.320308 -0.798189
H20   H     H_    0.129989 0.869233 0.357503 0.232364
H21   H     H_    0.204364 0.042760 0.345350 0.228528
H22   H     H_    0.099501 0.096960 0.321522 0.216387
H23   H     H_    0.159514 0.038964 0.199447 0.173136
H24   H     H_    0.080440 0.880427 0.213265 0.187380
C41   C     C_3   0.742096 0.960051 0.654514 -0.327605
C42   C     C_3   0.770195 0.961153 0.574576 -0.770058
H25   H     H_    0.718839 0.969483 0.525617 0.233226
H26   H     H_    0.810540 0.080942 0.571754 0.223093
H27   H     H_    0.804037 0.832423 0.567202 0.215974
H28   H     H_    0.796733 0.943725 0.698552 0.196291
H29   H     H_    0.705438 0.834404 0.659662 0.179211
C43   C     C_3   0.257903 0.460110 0.345498 -0.327802
C44   C     C_3   0.229760 0.461333 0.425415 -0.770086
H30   H     H_    0.281099 0.469699 0.474389 0.233211
H31   H     H_    0.189412 0.581153 0.428186 0.223075
H32   H     H_    0.195907 0.332636 0.432807 0.216090
H33   H     H_    0.203292 0.443724 0.301432 0.196340
H34   H     H_    0.294582 0.334468 0.340404 0.179151
C45   C     C_3   0.180780 0.748236 0.672695 -0.363583
C46   C     C_3   0.190172 0.624789 0.602822 -0.773859
H35   H     H_    0.170666 0.701439 0.547142 0.222010
H36   H     H_    0.253212 0.577874 0.606727 0.230499
H37   H     H_    0.151642 0.500434 0.603113 0.231044
H38   H     H_    0.196733 0.664103 0.727073 0.187901
H39   H     H_    0.116327 0.785866 0.666594 0.180027
C47   C     C_3   0.819235 0.248233 0.327316 -0.363573
C48   C     C_3   0.809841 0.124776 0.397187 -0.773861
H40   H     H_    0.829364 0.201401 0.452868 0.222028
H41   H     H_    0.746798 0.077906 0.393290 0.230506
H42   H     H_    0.848357 0.000390 0.396886 0.231036
H43   H     H_    0.803287 0.164107 0.272938 0.187902
H44   H     H_    0.883689 0.285852 0.333419 0.180028

loop_
_geom_bond_atom_site_label_1
_geom_bond_atom_site_label_2
_ccdc_geom_bond_type
C32   C47   S    
O4    V2    S    
C43   H34   S    
C48   H40   S    
O1    C3    A    
C38   H17   S    
O2    C4    A    
C2    O7    A    
C46   H36   S    
C44   H30   S    
C23   C25   A    
O5    C3    A    
C5    C9    S    
C6    C10   S    
C16   C20   A    
C7    H1    S    
C38   H16   S    
C39   H24   S    
C29   H7    S    
O18   V4    S    
C39   H23   S    
O16   V4    S    
C30   H8    S    
O12   V3    S    
O15   V3    S    
C41   H28   S    
O13   C33   A    
C47   C48   S    
O14   C34   A    
C5    C7    D    
C22   H14   S    
C15   C36   S    
C18   C26   A    
C45   H38   S    
O17   V3    S    
C16   C22   A    
C37   H18   S    
C18   C20   A    
C24   C26   A    
O6    V2    S    
C43   H33   S    
C13   C27   A    
C17   H9    S    
C25   C27   A    
C14   C28   A    
C26   C28   A    
C6    C39   S    
C46   H35   S    
C44   H31   S    
C29   C31   A    
C12   C43   S    
C30   C32   A    
C31   C45   S    
C19   H11   S    
C34   O17   A    
C38   H15   S    
O4    C2    A    
C37   H19   S    
C3    C12   S    
O13   V3    S    
C15   C21   A    
C13   C29   A    
C41   H29   S    
C37   C38   S    
C20   H12   S    
C42   H26   S    
C40   H20   S    
O12   C36   A    
C7    C34   S    
O6    C4    A    
C43   C44   S    
C2    C13   S    
C48   H41   S    
O1    V2    S    
O2    V1    S    
O11   V4    S    
O11   C35   A    
C40   H21   S    
C8    H2    S    
C18   H10   S    
C9    H3    S    
C15   C19   A    
C47   H44   S    
C44   H32   S    
O3    V1    S    
C42   H27   S    
C23   C31   A    
C1    C14   S    
C28   H6    S    
C24   C32   A    
C33   O18   A    
C14   C30   A    
C27   H5    S    
C10   H4    S    
C10   C12   D    
O20   V3    S    
O3    C1    A    
O19   V4    S    
C16   C35   S    
C11   C41   S    
C4    C11   S    
C45   H39   S    
C17   C25   A    
C8    C33   S    
O7    V1    S    
C1    O8    A    
C21   C23   A    
O8    V2    S    
C22   C24   A    
C42   H25   S    
O16   C36   A    
O15   C35   A    
O5    V1    S    
C17   C19   A    
C48   H42   S    
C6    C8    D    
C9    C11   D    
C40   H22   S    
C39   C40   S    
O9    V2    S    
C45   C46   S    
C5    C37   S    
O10   V1    S    
O14   V4    S    
C41   C42   S    
C47   H43   S    
C46   H37   S    
C21   H13   S    
