data_mof_unit_58296.cif
_audit_creation_date              2012-12-11T15:10:46-0500
_audit_creation_method            fapswitch 2.2
_symmetry_space_group_name_H-M    P1
_symmetry_Int_Tables_number       1
_space_group_crystal_system       triclinic
_cell_length_a                    21.136836
_cell_length_b                    7.238268
_cell_length_c                    18.262344
_cell_angle_alpha                 89.958551
_cell_angle_beta                  93.444957
_cell_angle_gamma                 89.95609
_cell_volume                      2788.98008541

loop_
_atom_site_label
_atom_site_type_symbol
_atom_type_description
_atom_site_fract_x
_atom_site_fract_y
_atom_site_fract_z
_atom_type_partial_charge
O1    O     O_R   0.448880 0.506250 0.415280 -0.529149
O2    O     O_R   0.551120 0.006250 0.584720 -0.529307
O3    O     O_R   0.434830 0.174000 0.557310 -0.520949
O4    O     O_R   0.565170 0.674000 0.442690 -0.520948
C1    C     C_R   0.416974 0.344588 0.579633 0.696589
C2    C     C_R   0.583030 0.844572 0.420366 0.696724
O5    O     O_R   0.441680 0.176440 0.414130 -0.530452
O6    O     O_R   0.558320 0.676440 0.585870 -0.530476
O7    O     O_R   0.558020 0.007570 0.440520 -0.519450
O8    O     O_R   0.441980 0.507570 0.559480 -0.519288
C3    C     C_R   0.427999 0.344858 0.388336 0.676214
C4    C     C_R   0.572034 0.844631 0.611660 0.675944
O9    O     O_3   0.538160 0.339670 0.508820 -0.364384
O10   O     O_3   0.461840 0.839670 0.491180 -0.364183
V1    V     V_3+5 0.492920 0.064260 0.498360 1.419262
V2    V     V_3+5 0.507080 0.564260 0.501640 1.419541
C5    C     C_R   0.877015 0.007415 0.687984 0.153785
C6    C     C_R   0.122055 0.494349 0.312765 0.154307
H1    H     H_    0.963764 0.033780 0.755657 0.106428
H2    H     H_    0.035251 0.520657 0.245112 0.105978
H3    H     H_    0.792096 0.007172 0.569444 0.138851
H4    H     H_    0.206739 0.490064 0.431525 0.139062
C7    C     C_R   0.887722 0.944668 0.819159 -0.067766
C8    C     C_R   0.112221 0.443243 0.180827 -0.066938
C9    C     C_R   0.584125 0.802878 0.745322 -0.159593
C10   C     C_R   0.416455 0.310830 0.254322 -0.160142
C11   C     C_R   0.619582 0.795379 0.811807 -0.122318
C12   C     C_R   0.381219 0.306584 0.187648 -0.122101
C13   C     C_R   0.684416 0.831668 0.815251 -0.155959
C14   C     C_R   0.316175 0.339921 0.184323 -0.155918
C15   C     C_R   0.716004 0.877502 0.751476 0.090088
C16   C     C_R   0.284137 0.379285 0.248426 0.090003
C17   C     C_R   0.678840 0.887651 0.683364 0.072453
C18   C     C_R   0.321035 0.385731 0.316772 0.072478
C19   C     C_R   0.783005 0.913805 0.753249 0.044346
C20   C     C_R   0.216940 0.412590 0.246774 0.044640
C21   C     C_R   0.811131 0.964594 0.686932 0.111840
C22   C     C_R   0.188270 0.455860 0.313550 0.111220
C23   C     C_R   0.772931 0.971701 0.621095 -0.202648
C24   C     C_R   0.226256 0.459779 0.379578 -0.202733
C25   C     C_R   0.708516 0.933520 0.619341 -0.199357
C26   C     C_R   0.290913 0.425044 0.381148 -0.198389
C27   C     C_R   0.822991 0.902419 0.818768 -0.221798
C28   C     C_R   0.177255 0.405160 0.180957 -0.221250
C29   C     C_R   0.913913 0.997693 0.754254 -0.197455
C30   C     C_R   0.085408 0.488279 0.246250 -0.197683
C31   C     C_R   0.612629 0.849340 0.680731 -0.082641
C32   C     C_R   0.387470 0.350683 0.319251 -0.082019
H5    H     H_    0.805358 0.864206 0.870765 0.102347
H6    H     H_    0.195303 0.372768 0.128588 0.101612
H7    H     H_    0.533931 0.771676 0.744180 0.107228
H8    H     H_    0.466859 0.282493 0.255329 0.106949
H9    H     H_    0.708230 0.822972 0.868905 0.108436
H10   H     H_    0.292558 0.334072 0.130508 0.108446
H11   H     H_    0.596607 0.759971 0.861336 0.120472
H12   H     H_    0.404551 0.276249 0.137857 0.120452
H13   H     H_    0.681903 0.941394 0.566875 0.112575
H14   H     H_    0.317346 0.430166 0.433776 0.111231
C33   C     C_1   0.864646 0.938968 0.132253 -0.209703
C34   C     C_1   0.135349 0.438928 0.867745 -0.209675
C35   C     C_1   0.821851 0.924909 0.176086 -0.003830
C36   C     C_1   0.178144 0.424878 0.823911 -0.003819
C37   C     C_1   0.771334 0.905775 0.228265 -0.004651
C38   C     C_1   0.228663 0.405765 0.771732 -0.004623
C39   C     C_1   0.728778 0.889128 0.272273 -0.004815
C40   C     C_1   0.271220 0.389138 0.727723 -0.004777
C41   C     C_1   0.678210 0.869987 0.324385 -0.003070
C42   C     C_1   0.321789 0.370018 0.675611 -0.003046
C43   C     C_1   0.635337 0.855922 0.368111 -0.207215
C44   C     C_1   0.364665 0.355962 0.631886 -0.207215
O11   O     O_R   0.058070 0.289240 0.940580 -0.520124
O12   O     O_R   0.941930 0.789240 0.059420 -0.520130
O13   O     O_R   0.058330 0.616740 0.085880 -0.531648
O14   O     O_R   0.941670 0.116740 0.914120 -0.531739
C45   C     C_R   0.071958 0.448764 0.111814 0.696414
C46   C     C_R   0.928030 0.948997 0.888174 0.696415
O15   O     O_R   0.065180 0.619040 0.942700 -0.522248
O16   O     O_R   0.934820 0.119040 0.057300 -0.522252
O17   O     O_R   0.948870 0.787780 0.915270 -0.530300
O18   O     O_R   0.051130 0.287780 0.084730 -0.530223
C47   C     C_R   0.083156 0.450320 0.920159 0.704842
C48   C     C_R   0.916841 0.950336 0.079841 0.705052
O19   O     O_3   0.961870 0.453310 0.991210 -0.365752
O20   O     O_3   0.038130 0.953310 0.008790 -0.365640
V3    V     V_3+5 0.007070 0.728770 0.001630 1.412632
V4    V     V_3+5 0.992930 0.228770 0.998370 1.412686
C49   C     C_3   0.909822 0.068487 0.620352 -0.376408
C50   C     C_3   0.895799 0.271147 0.602369 -0.742295
H15   H     H_    0.844280 0.294583 0.590894 0.228349
H16   H     H_    0.912714 0.360165 0.649065 0.230867
H17   H     H_    0.920877 0.312186 0.553192 0.213485
H18   H     H_    0.962082 0.053225 0.629269 0.177826
H19   H     H_    0.896322 0.978720 0.572721 0.170786
C51   C     C_3   0.088546 0.546120 0.381060 -0.375733
C52   C     C_3   0.100499 0.748093 0.401806 -0.743899
H20   H     H_    0.151809 0.775363 0.413042 0.228438
H21   H     H_    0.082214 0.839937 0.356564 0.230443
H22   H     H_    0.075447 0.781750 0.451837 0.213655
H23   H     H_    0.036472 0.527093 0.371780 0.177834
H24   H     H_    0.102877 0.453151 0.427485 0.170899

loop_
_geom_bond_atom_site_label_1
_geom_bond_atom_site_label_2
_ccdc_geom_bond_type
C2    C43   S    
C40   C42   S    
C49   C50   S    
C37   C39   T    
C7    C29   A    
C11   C13   A    
C52   H20   S    
O1    C3    A    
C33   C48   S    
C7    C46   S    
O2    C4    A    
C26   H14   S    
C2    O7    A    
O12   V3    S    
C12   H12   S    
C52   H22   S    
C23   C25   A    
O5    C3    A    
C14   H10   S    
O14   C46   A    
C16   C20   A    
C19   C21   A    
C5    C29   A    
C11   H11   S    
C17   C31   A    
C7    C27   A    
C34   C36   T    
C35   C37   S    
O18   V4    S    
C39   C41   S    
C18   C26   A    
C36   C38   S    
C15   C17   A    
C51   H24   S    
C19   C27   A    
C45   O18   A    
C9    C31   A    
C10   C32   A    
O16   V4    S    
O5    V1    S    
O15   V3    S    
O6    V2    S    
C22   C24   A    
C49   H18   S    
C13   C15   A    
O13   C45   A    
C3    C32   S    
C4    C31   S    
C6    C30   A    
C33   C35   T    
O20   V3    S    
O4    C2    A    
C27   H5    S    
C41   C43   T    
C38   C40   T    
O4    V2    S    
C9    H7    S    
C1    C44   S    
C10   H8    S    
O11   V4    S    
C34   C47   S    
O16   C48   A    
H3    C23   S    
C50   H17   S    
O15   C47   A    
O6    C4    A    
H4    C24   S    
O19   V4    S    
C52   H21   S    
O1    V2    S    
C5    C21   A    
O14   V4    S    
O2    V1    S    
O13   V3    S    
C50   H16   S    
C6    C51   S    
C15   C19   A    
C20   C28   A    
C18   C32   A    
C20   C22   A    
O17   V3    S    
O3    V1    S    
C28   H6    S    
C5    C49   S    
O3    C1    A    
H1    C29   S    
C8    C45   S    
C9    C11   A    
C10   C12   A    
C17   C25   A    
C12   C14   A    
C6    C22   A    
C8    C30   A    
C1    O8    A    
C21   C23   A    
O8    V2    S    
C14   C16   A    
C13   H9    S    
C51   H23   S    
C8    C28   A    
C49   H19   S    
C24   C26   A    
O7    V1    S    
C51   C52   S    
O12   C48   A    
C25   H13   S    
C46   O17   A    
C50   H15   S    
C42   C44   T    
O9    V2    S    
O10   V1    S    
H2    C30   S    
C16   C18   A    
O11   C47   A    
