data_mof_unit_66949.cif
_audit_creation_date              2013-03-05T15:57:31-0500
_audit_creation_method            fapswitch 2.2
_symmetry_space_group_name_H-M    P1
_symmetry_Int_Tables_number       1
_space_group_crystal_system       triclinic
_cell_length_a                    17.072056
_cell_length_b                    18.389608
_cell_length_c                    8.495824
_cell_angle_alpha                 89.974904
_cell_angle_beta                  102.24719
_cell_angle_gamma                 90.017166
_cell_volume                      2606.54760218

loop_
_atom_site_label
_atom_site_type_symbol
_atom_site_description
_atom_site_fract_x
_atom_site_fract_y
_atom_site_fract_z
_atom_type_partial_charge
P1    P     P_3+3 0.834140 0.419320 0.003900 0.967899
P2    P     P_3+3 0.834140 0.580680 0.503900 0.969521
P3    P     P_3+3 0.334140 0.919320 0.003900 0.969098
P4    P     P_3+3 0.334140 0.080680 0.503900 0.966953
O1    O     O_2   0.841960 0.394640 0.833410 -0.467243
O2    O     O_2   0.841960 0.605360 0.333410 -0.466739
O3    O     O_2   0.341960 0.894640 0.833410 -0.466792
O4    O     O_2   0.341960 0.105360 0.333410 -0.466706
O5    O     O_3   0.907950 0.463080 0.102990 -0.493450
O6    O     O_3   0.907950 0.536920 0.602990 -0.493366
O7    O     O_3   0.407950 0.963080 0.102990 -0.492250
O8    O     O_3   0.407950 0.036920 0.602990 -0.494160
O9    O     O_3   0.972780 0.329600 0.629720 -0.492136
O10   O     O_3   0.972780 0.670400 0.129720 -0.486020
O11   O     O_3   0.472780 0.829600 0.629720 -0.490665
O12   O     O_3   0.472780 0.170400 0.129720 -0.489550
O13   O     O_2   0.840043 0.272153 0.690899 -0.462369
O14   O     O_2   0.839116 0.726712 0.190279 -0.458576
O15   O     O_2   0.339180 0.773182 0.688837 -0.460341
O16   O     O_2   0.339631 0.227329 0.189574 -0.462925
O17   O     O_3   0.750540 0.476687 0.967731 -0.647731
O18   O     O_3   0.750660 0.523133 0.467812 -0.648278
O19   O     O_3   0.250557 0.976706 0.967986 -0.647366
O20   O     O_3   0.250832 0.022962 0.467270 -0.648160
O21   O     O_3   0.944912 0.179574 0.630269 -0.596687
O22   O     O_3   0.943253 0.820037 0.130909 -0.586604
O23   O     O_3   0.443746 0.679400 0.632418 -0.595266
O24   O     O_3   0.444149 0.320768 0.131597 -0.594598
H1    H     H_    0.061430 0.210081 0.729263 0.094948
H2    H     H_    0.063904 0.795622 0.184207 0.070763
H3    H     H_    0.562143 0.705971 0.723656 0.090683
H4    H     H_    0.562449 0.293967 0.223073 0.090491
C1    C     C_3   0.057272 0.108592 0.602510 -0.408519
C2    C     C_3   0.041583 0.899682 0.066961 -0.408087
C3    C     C_3   0.551639 0.604726 0.593663 -0.406745
C4    C     C_3   0.552312 0.395162 0.092676 -0.405635
H5    H     H_    0.615883 0.604635 0.586894 0.077432
H6    H     H_    0.616551 0.395064 0.085885 0.077964
H7    H     H_    0.121685 0.110628 0.597552 0.073538
H8    H     H_    0.104144 0.902612 0.049343 0.083331
H9    H     H_    0.049201 0.075396 0.706707 0.129934
H10   H     H_    0.036444 0.931103 0.175423 0.126843
H11   H     H_    0.542948 0.571104 0.696770 0.130497
H12   H     H_    0.543777 0.428905 0.195653 0.130216
P5    P     P_3+3 0.165830 0.418670 0.685610 1.003801
P6    P     P_3+3 0.165830 0.581330 0.185610 1.005736
P7    P     P_3+3 0.665830 0.918670 0.685610 1.004941
P8    P     P_3+3 0.665830 0.081330 0.185610 1.004253
P9    P     P_3+3 0.102801 0.264682 0.112541 0.954782
P10   P     P_3+3 0.102703 0.735461 0.612306 0.964127
P11   P     P_3+3 0.602710 0.764563 0.112480 0.956156
P12   P     P_3+3 0.602913 0.235300 0.612531 0.956179
O25   O     O_2   0.157990 0.394030 0.856030 -0.485347
O26   O     O_2   0.157990 0.605970 0.356030 -0.481973
O27   O     O_2   0.657990 0.894030 0.856030 -0.484546
O28   O     O_2   0.657990 0.105970 0.356030 -0.484432
O29   O     O_3   0.027110 0.329490 0.059550 -0.473121
O30   O     O_3   0.027110 0.670510 0.559550 -0.464942
O31   O     O_3   0.527110 0.829490 0.059550 -0.472352
O32   O     O_3   0.527110 0.170510 0.559550 -0.472122
O33   O     O_2   0.164871 0.277791 0.007520 -0.491295
O34   O     O_2   0.167444 0.717471 0.516753 -0.481888
O35   O     O_2   0.665517 0.778827 0.009798 -0.489772
O36   O     O_2   0.665845 0.220814 0.510302 -0.488849
O37   O     O_3   0.255929 0.469287 0.734802 -0.598762
O38   O     O_3   0.255984 0.530784 0.234518 -0.599051
O39   O     O_3   0.755923 0.969280 0.735066 -0.596559
O40   O     O_3   0.756027 0.030714 0.235682 -0.599684
O41   O     O_3   0.062404 0.180263 0.046170 -0.604770
O42   O     O_3   0.065536 0.818192 0.527662 -0.587174
O43   O     O_3   0.563351 0.680264 0.042242 -0.603900
O44   O     O_3   0.563878 0.319597 0.541590 -0.603884
C5    C     C_3   0.001502 0.162663 0.127799 0.343996
C6    C     C_3   0.021527 0.851634 0.629090 0.314340
C7    C     C_3   0.502778 0.660650 0.122971 0.341050
C8    C     C_3   0.503710 0.339742 0.622822 0.340984
H13   H     H_    0.943086 0.181726 0.055782 0.108349
H14   H     H_    0.961812 0.825297 0.615406 0.076590
H15   H     H_    0.444162 0.680140 0.052735 0.108877
H16   H     H_    0.444873 0.320340 0.553432 0.109177
H17   H     H_    0.010113 0.186713 0.249965 -0.078865
H18   H     H_    0.053636 0.850183 0.756776 -0.057300
H19   H     H_    0.511636 0.682862 0.246788 -0.078425
H20   H     H_    0.512794 0.317866 0.746984 -0.078329
C9    C     C_3   0.000212 0.080690 0.147140 -0.364795
C10   C     C_3   0.011392 0.931123 0.582715 -0.334479
C11   C     C_3   0.502084 0.578363 0.136487 -0.359320
C12   C     C_3   0.503516 0.422053 0.635272 -0.359597
H21   H     H_    0.490947 0.553609 0.014538 0.154252
H22   H     H_    0.492196 0.446494 0.512962 0.154338
H23   H     H_    0.988820 0.054434 0.026795 0.158006
H24   H     H_    0.982734 0.936697 0.453143 0.166161
H25   H     H_    0.059041 0.061927 0.218164 0.099109
H26   H     H_    0.071374 0.957158 0.604230 0.099086
H27   H     H_    0.561045 0.559432 0.206511 0.099718
H28   H     H_    0.562712 0.440861 0.704468 0.100378
C13   C     C_3   0.247453 0.454905 0.241967 0.489735
C14   C     C_3   0.247574 0.545222 0.740383 0.488481
C15   C     C_3   0.747731 0.954796 0.244161 0.489707
C16   C     C_3   0.747383 0.045149 0.742184 0.490318
H29   H     H_    0.184358 0.435709 0.219190 0.013503
H30   H     H_    0.184548 0.564689 0.715123 0.018878
H31   H     H_    0.684648 0.935622 0.222398 0.011409
H32   H     H_    0.684291 0.064358 0.718960 0.013843
C17   C     C_3   0.293274 0.420400 0.128174 -0.230877
C18   C     C_3   0.294901 0.579003 0.628239 -0.228766
C19   C     C_3   0.793009 0.920220 0.129453 -0.229810
C20   C     C_3   0.793527 0.079656 0.628833 -0.229595
H33   H     H_    0.358079 0.434308 0.161835 0.169760
H34   H     H_    0.359232 0.563445 0.662485 0.168891
H35   H     H_    0.857826 0.934146 0.162190 0.165873
H36   H     H_    0.858272 0.065548 0.662678 0.170078
H37   H     H_    0.285622 0.360704 0.129589 0.122217
H38   H     H_    0.289312 0.638825 0.631323 0.128198
H39   H     H_    0.785484 0.860526 0.131093 0.123198
H40   H     H_    0.786250 0.139361 0.630596 0.123295
H41   H     H_    0.272240 0.441735 0.008227 0.159481
H42   H     H_    0.273396 0.558924 0.507399 0.157730
H43   H     H_    0.771576 0.941542 0.009562 0.159249
H44   H     H_    0.772427 0.058589 0.508699 0.157728
Ba1   Ba    Ba6+2 0.000000 0.447380 0.844850 1.653700
Ba2   Ba    Ba6+2 0.000000 0.552620 0.344850 1.660703
Ba3   Ba    Ba6+2 0.500000 0.947380 0.844850 1.653648
Ba4   Ba    Ba6+2 0.500000 0.052620 0.344850 1.653496
C21   C     C_3   0.769485 0.543875 0.908033 0.269067
C22   C     C_3   0.769662 0.456128 0.407479 0.268695
C23   C     C_3   0.269042 0.043587 0.906072 0.269782
C24   C     C_3   0.271027 0.955672 0.410205 0.268945
H45   H     H_    0.765522 0.538757 0.776917 0.029266
H46   H     H_    0.765442 0.461505 0.276334 0.030106
H47   H     H_    0.261088 0.038573 0.773912 0.029119
H48   H     H_    0.274080 0.961407 0.282147 0.028881
H49   H     H_    0.829729 0.564079 0.968093 0.045895
H50   H     H_    0.830030 0.436012 0.466964 0.046951
H51   H     H_    0.330652 0.062723 0.959338 0.044193
H52   H     H_    0.328477 0.933870 0.481066 0.053337
C25   C     C_3   0.708226 0.599254 0.937860 -0.336524
C26   C     C_3   0.708664 0.400460 0.437394 -0.336403
C27   C     C_3   0.210794 0.100089 0.943929 -0.340490
C28   C     C_3   0.205548 0.901723 0.424364 -0.334424
H53   H     H_    0.647512 0.574912 0.912452 0.137456
H54   H     H_    0.647875 0.424629 0.412509 0.137644
H55   H     H_    0.149784 0.076713 0.926906 0.140727
H56   H     H_    0.146022 0.926637 0.379537 0.127900
H57   H     H_    0.708207 0.647634 0.860132 0.061439
H58   H     H_    0.708654 0.352241 0.359294 0.061999
H59   H     H_    0.209193 0.148238 0.864911 0.064640
H60   H     H_    0.210212 0.852106 0.353208 0.063556
H61   H     H_    0.722580 0.616402 0.065625 0.140277
H62   H     H_    0.723287 0.383083 0.565032 0.140654
H63   H     H_    0.229415 0.117432 0.070962 0.142847
H64   H     H_    0.210680 0.886557 0.552475 0.137636
O45   O     O_3   0.092100 0.536880 0.086720 -0.496170
O46   O     O_3   0.092100 0.463120 0.586720 -0.495616
O47   O     O_3   0.592100 0.036880 0.086720 -0.495132
O48   O     O_3   0.592100 0.963120 0.586720 -0.495979
P13   P     P_3+3 0.898279 0.735911 0.076929 0.978562
P14   P     P_3+3 0.899033 0.263460 0.576973 0.963094
P15   P     P_3+3 0.399083 0.236615 0.076801 0.965210
P16   P     P_3+3 0.398895 0.763548 0.576753 0.964711
C29   C     C_3   0.025697 0.184429 0.618698 0.361347
C30   C     C_3   0.018189 0.821210 0.087233 0.382785
C31   C     C_3   0.523704 0.681696 0.614333 0.358619
C32   C     C_3   0.524110 0.318263 0.113629 0.358841
H65   H     H_    0.033826 0.216081 0.512095 -0.059442
H66   H     H_    0.017477 0.792581 0.971593 -0.100280
H67   H     H_    0.531178 0.713500 0.507443 -0.062373
H68   H     H_    0.531469 0.286346 0.006894 -0.062781
H69   H     H_    0.515729 0.580908 0.481580 0.120489
H70   H     H_    0.516489 0.419025 0.980522 0.120248
H71   H     H_    0.023199 0.083098 0.490694 0.121122
H72   H     H_    0.000566 0.923893 0.960932 0.122392
H73   H     H_    0.454500 0.560728 0.199185 0.135570
H74   H     H_    0.456265 0.440136 0.698334 0.134298
H75   H     H_    0.952492 0.064658 0.211042 0.135645
H76   H     H_    0.974043 0.958695 0.656957 0.120155
C33   C     C_R   0.134461 0.678769 0.925963 -0.245767
C34   C     C_R   0.136116 0.322548 0.424563 -0.250646
C35   C     C_R   0.635660 0.177850 0.925044 -0.249699
C36   C     C_R   0.635670 0.822222 0.424788 -0.251133
C37   C     C_R   0.862602 0.323895 0.266159 -0.285630
C38   C     C_R   0.862244 0.675890 0.766133 -0.282843
C39   C     C_R   0.362805 0.823785 0.265849 -0.285709
C40   C     C_R   0.362766 0.176277 0.765912 -0.284191
C41   C     C_R   0.789804 0.214543 0.299925 -0.065265
C42   C     C_R   0.789440 0.785191 0.799972 -0.061758
C43   C     C_R   0.289868 0.714504 0.299595 -0.066040
C44   C     C_R   0.289931 0.285562 0.799713 -0.064292
C45   C     C_R   0.846972 0.266934 0.363129 -0.021533
C46   C     C_R   0.846465 0.732700 0.863120 -0.029356
C47   C     C_R   0.347250 0.766749 0.362664 -0.023512
C48   C     C_R   0.347191 0.233249 0.862831 -0.022462
C49   C     C_R   0.816394 0.333808 0.110664 0.057446
C50   C     C_R   0.816186 0.666101 0.610571 0.062231
C51   C     C_R   0.316512 0.833753 0.110439 0.058546
C52   C     C_R   0.316404 0.166245 0.610595 0.056570
C53   C     C_R   0.754383 0.282435 0.048515 -0.055122
C54   C     C_R   0.754179 0.717489 0.548420 -0.051537
C55   C     C_R   0.254304 0.782543 0.048422 -0.052350
C56   C     C_R   0.254524 0.217730 0.548352 -0.055167
C57   C     C_R   0.240934 0.721681 0.144814 -0.030598
C58   C     C_R   0.241227 0.278583 0.644719 -0.030808
C59   C     C_R   0.741084 0.221555 0.144909 -0.031605
C60   C     C_R   0.740883 0.778351 0.644809 -0.027565
C61   C     C_R   0.179361 0.669708 0.082892 0.113245
C62   C     C_R   0.179973 0.330778 0.582422 0.110133
C63   C     C_R   0.679804 0.169384 0.082644 0.111284
C64   C     C_R   0.679762 0.830644 0.582446 0.109005
C65   C     C_R   0.150383 0.735675 0.828751 -0.016949
C66   C     C_R   0.152153 0.265769 0.327523 0.003160
C67   C     C_R   0.651614 0.234711 0.827972 0.000507
C68   C     C_R   0.651517 0.765289 0.327840 0.000837
C69   C     C_R   0.207202 0.788585 0.891326 -0.085620
C70   C     C_R   0.207650 0.211985 0.391067 -0.083319
C71   C     C_R   0.707403 0.288312 0.891282 -0.084319
C72   C     C_R   0.707207 0.711636 0.391240 -0.084625
H77   H     H_    0.283590 0.669005 0.373820 0.103591
H78   H     H_    0.283754 0.331106 0.873833 0.103243
H79   H     H_    0.783689 0.168943 0.374031 0.103814
H80   H     H_    0.783336 0.830723 0.874267 0.102676
H81   H     H_    0.714601 0.333142 0.814238 0.096185
H82   H     H_    0.714345 0.666764 0.314340 0.095515
H83   H     H_    0.215050 0.832990 0.813549 0.095373
H84   H     H_    0.214608 0.167027 0.314317 0.096261
H85   H     H_    0.090554 0.638166 0.874565 0.058353
H86   H     H_    0.092412 0.363280 0.372969 0.058831
H87   H     H_    0.591956 0.137110 0.873472 0.058849
H88   H     H_    0.592016 0.862987 0.373154 0.058908
H89   H     H_    0.908509 0.363085 0.315713 0.060957
H90   H     H_    0.908111 0.636680 0.815772 0.058275
H91   H     H_    0.408502 0.863126 0.315673 0.060336
H92   H     H_    0.408787 0.137181 0.815370 0.061052
Br1   Br    Br    0.308152 0.420154 0.444496 -0.736118
Br2   Br    Br    0.306855 0.580432 0.943520 -0.735411
Br3   Br    Br    0.809344 0.920023 0.446706 -0.723109
Br4   Br    Br    0.807745 0.079778 0.944918 -0.735685

loop_
_geom_bond_atom_site_label_1
_geom_bond_atom_site_label_2
_geom_bond_distance
_ccdc_geom_bond_type
P6    C61   1.881592 S    
C15   H31   1.110716 S    
C12   H28   1.111051 S    
P1    O17   1.748958 S    
P5    C62   1.878974 S    
O10   Ba2   2.807936 S    
O1    Ba1   2.849022 S    
C20   H44   1.079730 S    
P3    O19   1.748943 S    
O7    Ba4   2.834521 S    
C2    H10   1.107028 S    
C16   Br4   1.918768 S    
P8    O28   1.549953 D    
P4    O4    1.550244 D    
O6    Ba1   2.834022 S    
C54   C72   1.408414 A    
C28   H60   1.106931 S    
C9    H23   1.110112 S    
C54   C60   1.433395 A    
C12   H74   1.109955 S    
Ba3   Ba4   4.667228 S    
C70   H84   1.075264 S    
Ba3   O47   2.834486 S    
C26   H62   1.106906 S    
C34   C66   1.393405 A    
C1    H7    1.109969 S    
O11   Ba3   2.808956 S    
P7    C64   1.880179 S    
C18   H38   1.105069 S    
C29   H65   1.109567 S    
P1    O1    1.550638 D    
O15   P16   1.545826 D    
O28   Ba4   2.852422 S    
O38   C13   1.405704 S    
C25   H57   1.107713 S    
C3    H5    1.110409 S    
C23   H51   1.110358 S    
O37   C14   1.405560 S    
P6    O38   1.770518 S    
P3    O3    1.550638 D    
C24   H52   1.111143 S    
C43   H77   1.066479 S    
P4    O20   1.748662 S    
O18   C22   1.399146 S    
P7    O48   1.584225 S    
C22   H46   1.105547 S    
C33   C61   1.399711 A    
C21   H49   1.110623 S    
C35   C67   1.393588 A    
C16   H32   1.110801 S    
P9    O29   1.745416 S    
P4    Ba4   3.425603 S    
O22   P13   1.744619 S    
O32   Ba4   2.808217 S    
C33   C65   1.394782 A    
C36   C68   1.393991 A    
P13   C46   1.844970 S    
C17   H33   1.112147 S    
C10   H26   1.109781 S    
O23   C31   1.406297 S    
C30   H66   1.112622 S    
P5    O37   1.770265 S    
C9    H25   1.111184 S    
P11   C68   1.842642 S    
C38   H90   1.082081 S    
C10   H24   1.110453 S    
C60   C64   1.435233 A    
P10   C65   1.846356 S    
O21   C29   1.406119 S    
O16   P15   1.545825 D    
C11   H27   1.110999 S    
P9    C66   1.842098 S    
P2    O18   1.749016 S    
P12   C67   1.842810 S    
C39   C51   1.399514 A    
C40   C48   1.392912 A    
O41   C5    1.404367 S    
C38   C50   1.398788 A    
P4    O8    1.579266 S    
C3    H11   1.107364 S    
C8    C12   1.517471 S    
C43   C47   1.395371 A    
C53   C71   1.408808 A    
C52   C56   1.433597 A    
C13   C17   1.506949 S    
C33   H85   1.082200 S    
C28   H56   1.106160 S    
O26   Ba2   2.852422 S    
P7    O27   1.549558 D    
P5    O25   1.549558 D    
P9    O41   1.743209 S    
C18   H42   1.079559 S    
O12   P15   1.740195 S    
Ba2   O46   2.833988 S    
C17   H41   1.079739 S    
P2    O2    1.550244 D    
P11   O43   1.743796 S    
C6    H18   1.107108 S    
C24   H48   1.105195 S    
C19   H43   1.080151 S    
P3    Ba3   3.425169 S    
C51   C55   1.433464 A    
Ba3   O48   2.971107 S    
P2    Ba2   3.425603 S    
O31   Ba3   2.807198 S    
H4    C32   1.110943 S    
C11   H73   1.109999 S    
H3    C31   1.110928 S    
C8    H20   1.108540 S    
O30   Ba2   2.808217 S    
C16   C20   1.507209 S    
Ba1   O46   2.971107 S    
O10   P13   1.740296 S    
C42   C60   1.406141 A    
P10   O30   1.745599 S    
C68   C72   1.396546 A    
C32   H68   1.109701 S    
C2    H72   1.110071 S    
P11   O35   1.541441 D    
C40   H92   1.082001 S    
C26   H54   1.107415 S    
P14   C45   1.846504 S    
C37   H89   1.082046 S    
O20   C24   1.398872 S    
C37   C45   1.392661 A    
O4    Ba4   2.849543 S    
P5    Ba1   3.427883 S    
O23   P16   1.746696 S    
C40   C52   1.399551 A    
C42   H80   1.067135 S    
O22   C30   1.405760 S    
O24   P15   1.746854 S    
P3    C51   1.870806 S    
C20   H36   1.112202 S    
P2    C50   1.871435 S    
C3    C31   1.515892 S    
C42   C46   1.394974 A    
C1    C29   1.512119 S    
O42   C6    1.400236 S    
P12   O44   1.743500 S    
C14   H30   1.110925 S    
C27   H63   1.105548 S    
O9    Ba1   2.808956 S    
P7    Ba3   3.427883 S    
C14   Br2   1.918722 S    
C35   C63   1.398841 A    
C31   H67   1.109819 S    
C13   Br1   1.919852 S    
P6    O26   1.549953 D    
O5    Ba2   2.834521 S    
C25   H53   1.107359 S    
P1    O5    1.579257 S    
O44   C8    1.403522 S    
P7    O39   1.770228 S    
C6    C10   1.514151 S    
O13   P14   1.546084 D    
C5    C9    1.516954 S    
Ba1   Ba2   4.667228 S    
Ba1   O45   2.834486 S    
O39   C16   1.405495 S    
C5    H17   1.109090 S    
C56   C70   1.408383 A    
C27   H59   1.107752 S    
C7    C11   1.517757 S    
C25   H61   1.106859 S    
P8    O47   1.584216 S    
C12   H22   1.110662 S    
C15   Br3   1.925597 S    
Ba4   O48   2.833988 S    
C53   C59   1.433037 A    
P12   O36   1.541375 D    
P10   O34   1.539882 D    
Ba2   O45   2.971387 S    
C2    H8    1.110773 S    
C4    H12   1.107380 S    
P11   O31   1.745800 S    
O2    Ba2   2.849543 S    
O17   C21   1.399025 S    
C1    H71   1.107426 S    
O27   Ba3   2.852951 S    
C39   H91   1.082141 S    
O9    P14   1.739385 S    
C37   C49   1.399448 A    
O24   C32   1.406184 S    
C55   C57   1.433097 A    
C18   H34   1.112316 S    
C17   H37   1.105840 S    
P4    C52   1.872774 S    
P6    O45   1.584216 S    
C28   H64   1.108787 S    
C22   C26   1.519359 S    
C57   C61   1.435409 A    
C41   H79   1.066706 S    
P1    Ba1   3.425169 S    
C58   C62   1.435386 A    
C55   C69   1.408856 A    
C19   H35   1.112105 S    
P15   C48   1.846633 S    
C8    H16   1.110198 S    
P16   C47   1.846249 S    
O3    Ba3   2.849022 S    
C2    C30   1.516657 S    
C39   C47   1.392466 A    
P8    Ba4   3.427439 S    
C41   C45   1.395218 A    
C44   H78   1.066687 S    
H2    C30   1.111927 S    
C15   C19   1.507301 S    
C43   C57   1.406547 A    
O19   C23   1.399485 S    
C4    H70   1.107723 S    
C14   C18   1.507393 S    
P8    O40   1.772321 S    
C65   C69   1.396921 A    
C44   C48   1.395109 A    
C21   C25   1.519342 S    
C20   H40   1.105461 S    
C23   H47   1.105915 S    
C4    H6    1.110376 S    
C67   C71   1.396634 A    
O12   Ba4   2.807936 S    
O40   C15   1.406576 S    
C1    H9    1.107487 S    
O11   P16   1.740043 S    
O14   P13   1.545513 D    
O25   Ba1   2.852951 S    
C41   C59   1.406437 A    
O43   C7    1.403691 S    
C69   H83   1.076302 S    
P9    O33   1.542035 D    
C7    H19   1.108656 S    
C50   C54   1.433679 A    
O8    Ba3   2.834022 S    
C59   C63   1.435207 A    
C26   H58   1.107708 S    
C49   C53   1.433445 A    
C34   C62   1.398656 A    
P8    C63   1.879167 S    
C44   C58   1.406182 A    
C9    H75   1.110285 S    
C3    H69   1.107691 S    
C36   H88   1.082204 S    
C19   H39   1.105621 S    
C10   H76   1.110234 S    
C35   H87   1.082217 S    
C72   H82   1.075600 S    
P10   O42   1.743688 S    
C34   H86   1.082214 S    
P3    O7    1.579257 S    
O29   Ba1   2.807198 S    
C21   H45   1.105623 S    
C22   H50   1.110628 S    
P12   O32   1.746236 S    
C6    H14   1.112140 S    
Ba4   O47   2.971387 S    
O21   P14   1.745814 S    
C4    C32   1.516265 S    
C11   H21   1.110668 S    
C5    H13   1.110397 S    
P1    C49   1.871471 S    
P6    Ba2   3.427439 S    
C27   H55   1.107443 S    
P5    O46   1.584225 S    
C38   C46   1.392130 A    
H1    C29   1.110921 S    
C66   C70   1.396594 A    
C36   C64   1.398943 A    
C7    H15   1.110228 S    
C23   C27   1.519405 S    
C56   C58   1.433154 A    
C13   H29   1.110743 S    
C71   H81   1.075536 S    
C24   C28   1.518102 S    
P2    O6    1.579266 S    
