data_mof_unit_33585.cif
_audit_creation_date              2013-03-05T16:19:17-0500
_audit_creation_method            fapswitch 2.2
_symmetry_space_group_name_H-M    P1
_symmetry_Int_Tables_number       1
_space_group_crystal_system       triclinic
_cell_length_a                    10.940586
_cell_length_b                    9.782821
_cell_length_c                    23.128821
_cell_angle_alpha                 89.616267
_cell_angle_beta                  88.776017
_cell_angle_gamma                 89.537
_cell_volume                      2474.77461528

loop_
_atom_site_label
_atom_site_type_symbol
_atom_site_description
_atom_site_fract_x
_atom_site_fract_y
_atom_site_fract_z
_atom_type_partial_charge
O1    O     O_R   0.314910 0.616040 0.499990 -0.573985
O2    O     O_R   0.314910 0.383960 0.499990 -0.604375
C1    C     C_R   0.257592 0.500621 0.497677 0.994042
O3    O     O_R   0.500080 0.616070 0.416130 -0.627012
O4    O     O_R   0.500080 0.383930 0.416130 -0.645316
C2    C     C_R   0.503639 0.500530 0.389115 0.855624
Zn1   Zn    Zn3+2 0.500150 0.654960 0.499970 1.045179
Zn2   Zn    Zn3+2 0.500150 0.345040 0.499970 1.018229
O5    O     O_R   0.685320 0.616040 0.499970 -0.606104
O6    O     O_R   0.685320 0.383960 0.499970 -0.606079
O7    O     O_R   0.500150 0.616010 0.583820 -0.536022
O8    O     O_R   0.500150 0.383990 0.583820 -0.564196
C3    C     C_R   0.742409 0.499387 0.498171 0.925482
C4    C     C_R   0.507385 0.499830 0.611520 1.052295
C5    C     C_R   0.686030 0.373390 0.880802 0.636190
N1    N     N_R   0.638386 0.479837 0.850130 -0.351989
C6    C     C_R   0.607813 0.601743 0.875393 0.610444
C7    C     C_R   0.613832 0.616959 0.935754 -0.177767
C8    C     C_R   0.654699 0.504031 0.968666 -0.036653
C9    C     C_R   0.695209 0.383080 0.940850 -0.023535
C10   C     C_R   0.578622 0.739446 0.964205 0.222817
C11   C     C_R   0.577108 0.745657 0.024885 0.239202
C12   C     C_R   0.606593 0.627809 0.057860 -0.166600
C13   C     C_R   0.651507 0.509746 0.029554 -0.040894
C14   C     C_R   0.689483 0.395019 0.062092 0.000010
C15   C     C_R   0.736228 0.278784 0.033791 -0.085100
C16   C     C_R   0.738832 0.272781 0.973739 -0.068497
C17   C     C_R   0.586630 0.620920 0.118177 0.576525
N2    N     N_R   0.621758 0.507503 0.148846 -0.363612
C18   C     C_R   0.676296 0.397722 0.122333 0.534880
O9    O     O_2   0.720579 0.257573 0.853397 -0.432609
O10   O     O_2   0.568985 0.705916 0.841772 -0.422680
O11   O     O_2   0.527042 0.723415 0.145850 -0.476442
O12   O     O_2   0.715647 0.290631 0.154200 -0.517528
C19   C     C_R   0.519350 0.399088 0.232823 -0.063133
C20   C     C_R   0.488058 0.398290 0.291535 -0.210972
C21   C     C_R   0.529623 0.502622 0.327124 -0.037063
C22   C     C_R   0.605324 0.605324 0.304039 -0.190026
C23   C     C_R   0.639208 0.603877 0.245885 -0.065187
C24   C     C_R   0.595189 0.501926 0.209782 0.259811
C25   C     C_R   0.490495 0.436724 0.775209 0.286955
C26   C     C_R   0.455074 0.455458 0.717585 0.178724
C27   C     C_R   0.540733 0.498672 0.674240 -0.269585
C28   C     C_R   0.661985 0.530747 0.691918 0.299265
C29   C     C_R   0.694959 0.506685 0.749271 -0.102563
H1    H     H_    0.784947 0.533536 0.763917 0.225838
C30   C     C_R   0.610683 0.462785 0.790526 0.068485
C31   C     C_3   0.067819 0.653680 0.513481 0.324398
C32   C     C_3   0.068740 0.392072 0.545971 0.354042
C33   C     C_3   0.926267 0.649345 0.504579 0.036545
C34   C     C_3   0.926735 0.413810 0.550601 -0.018020
C35   C     C_3   0.071675 0.461826 0.437754 -0.387010
C36   C     C_3   0.120407 0.502017 0.499021 -0.301566
C37   C     C_3   0.878674 0.498377 0.497661 -0.243785
C38   C     C_3   0.932584 0.435539 0.441200 -0.329377
C39   C     C_3   0.375522 0.081936 0.491690 -0.195962
C40   C     C_3   0.375472 0.921333 0.492645 -0.186837
C41   C     C_3   0.574260 0.081140 0.449552 -0.334515
C42   C     C_3   0.569678 0.918891 0.448243 -0.340879
C43   C     C_3   0.554699 0.079773 0.552348 0.144890
C44   C     C_3   0.556711 0.919122 0.552045 0.155676
N3    N     N_3   0.499750 0.138610 0.498760 -0.144596
N4    N     N_3   0.499750 0.861390 0.498760 -0.145927
N5    N     N_R   0.545619 0.859538 0.932194 0.280299
O13   O     O_R   0.432955 0.878092 0.916821 -0.214304
O14   O     O_R   0.623811 0.958095 0.925381 -0.299620
N6    N     N_R   0.328386 0.446886 0.705848 0.264126
O15   O     O_R   0.267189 0.560260 0.699377 -0.197138
O16   O     O_R   0.269663 0.335946 0.720082 -0.179750
N7    N     N_R   0.751022 0.597678 0.655056 0.201049
O17   O     O_R   0.717051 0.669254 0.611006 -0.406882
O18   O     O_R   0.861620 0.615700 0.673118 -0.285165
N8    N     N_R   0.119822 0.763919 0.476044 0.235591
O19   O     O_R   0.102130 0.890816 0.490934 -0.252401
O20   O     O_R   0.170277 0.740787 0.425591 -0.416975
N9    N     N_R   0.097294 0.246726 0.531435 0.249499
O21   O     O_R   0.103526 0.157572 0.573453 -0.194096
O22   O     O_R   0.093429 0.198697 0.479312 -0.375800
N10   N     N_R   0.092668 0.692619 0.574233 0.193170
O23   O     O_R   0.024438 0.784530 0.599990 -0.206375
O24   O     O_R   0.201335 0.674842 0.594608 -0.271593
N11   N     N_R   0.124551 0.414677 0.602487 0.225202
O25   O     O_R   0.239486 0.384039 0.607092 -0.308009
O26   O     O_R   0.058967 0.424449 0.649969 -0.221194
H2    H     H_    0.880962 0.686762 0.544366 0.201559
H3    H     H_    0.906107 0.480104 0.587755 0.171679
N12   N     N_R   0.886219 0.745340 0.459132 0.247114
O27   O     O_R   0.900791 0.717798 0.404492 -0.382645
O28   O     O_R   0.863692 0.871446 0.473716 -0.319886
N13   N     N_R   0.862013 0.284965 0.562714 0.260201
O29   O     O_R   0.857645 0.188180 0.524497 -0.321788
O30   O     O_R   0.812021 0.264744 0.613563 -0.293260
H4    H     H_    0.086463 0.541198 0.404637 0.260630
H5    H     H_    0.122390 0.375302 0.417834 0.220084
H6    H     H_    0.887130 0.476873 0.402318 0.206721
H7    H     H_    0.914835 0.324438 0.439680 0.261797
H8    H     H_    0.337884 0.118978 0.450015 0.183411
H9    H     H_    0.337433 0.886384 0.451341 0.217034
N14   N     N_R   0.549795 0.873943 0.052277 0.261479
O31   O     O_R   0.632597 0.933824 0.082490 -0.333624
O32   O     O_R   0.446461 0.936409 0.043219 -0.277685
H10   H     H_    0.311546 0.121859 0.524742 0.265489
H11   H     H_    0.312284 0.883316 0.526525 0.262935
H12   H     H_    0.540619 0.122458 0.407854 0.193469
H13   H     H_    0.527970 0.886253 0.407132 0.189327
H14   H     H_    0.651594 0.111941 0.552545 0.174916
H15   H     H_    0.654720 0.887027 0.550773 0.165385
N15   N     N_R   0.499577 0.133111 0.606494 0.255619
O33   O     O_R   0.571081 0.165099 0.648531 -0.279796
O34   O     O_R   0.382567 0.128664 0.617325 -0.250453
N16   N     N_R   0.505706 0.865798 0.607248 0.261147
O35   O     O_R   0.574670 0.866098 0.652413 -0.235777
O36   O     O_R   0.388807 0.851878 0.616125 -0.249558
H16   H     H_    0.670743 0.115002 0.452164 0.224614
H17   H     H_    0.662003 0.874493 0.446317 0.241016
H18   H     H_    0.767518 0.190421 0.057932 0.223089
H19   H     H_    0.772254 0.180130 0.953257 0.226625
H20   H     H_    0.483867 0.320630 0.205116 0.176446
H21   H     H_    0.430589 0.317653 0.309000 0.162034
H22   H     H_    0.640748 0.684864 0.331280 0.176864
H23   H     H_    0.698514 0.683025 0.228617 0.176688
N17   N     N_R   0.401476 0.403899 0.819654 0.237308
O37   O     O_R   0.421368 0.303414 0.855444 -0.279554
O38   O     O_R   0.305425 0.481380 0.827569 -0.251839

loop_
_geom_bond_atom_site_label_1
_geom_bond_atom_site_label_2
_geom_bond_distance
_ccdc_geom_bond_type
C41   N3    1.495814 S    
N12   O27   1.300136 A    
C7    C10   1.417571 A    
N8    O19   1.302369 A    
N16   O35   1.301643 A    
C29   H1    1.082887 S    
C39   C40   1.571161 S    
Zn1   O7    1.973922 S    
C15   C16   1.390231 A    
C42   H13   1.113220 S    
C31   N10   1.489464 S    
C20   C21   1.400293 A    
N9    O22   1.298442 A    
C34   N13   1.473050 S    
O4    C2    1.297375 A    
O7    C4    1.303645 A    
C5    N1    1.362538 A    
N15   O33   1.302199 A    
C34   H3    1.098542 S    
C43   N3    1.498528 S    
C7    C8    1.412493 A    
C25   C26   1.406308 A    
C44   N4    1.507996 S    
C20   H21   1.083370 S    
O5    C3    1.296988 A    
C10   N5    1.432369 S    
C33   H2    1.099355 S    
C8    C9    1.414193 A    
N1    C6    1.367526 A    
C32   C34   1.567891 S    
C12   C13   1.411129 A    
C35   H5    1.106043 S    
N7    O17   1.291842 A    
N2    C18   1.366862 A    
C43   N15   1.475024 S    
C35   C38   1.545648 S    
C22   H22   1.083759 S    
C25   N17   1.437429 S    
C16   H19   1.082891 S    
C10   C11   1.404928 A    
N8    O20   1.300616 A    
C5    C9    1.398500 A    
C39   H8    1.113472 S    
O3    Zn1   1.978606 S    
N1    C30   1.428932 S    
C40   N4    1.485531 S    
C29   C30   1.381445 A    
C31   C36   1.621376 S    
C40   H11   1.098806 S    
C2    C21   1.455767 S    
C18   O12   1.349841 S    
N6    O15   1.300342 A    
N9    O21   1.303961 A    
C38   H6    1.109283 S    
C23   C24   1.400028 A    
N10   O24   1.298175 A    
C14   C15   1.403310 A    
C43   C44   1.571666 S    
O1    C1    1.297966 A    
C19   C20   1.393317 A    
N5    O14   1.300691 A    
C32   N11   1.473285 S    
C27   C28   1.434240 A    
C21   C22   1.402790 A    
N13   O30   1.300985 A    
N14   O31   1.301256 A    
Zn2   O8    1.978930 S    
C6    C7    1.407977 A    
C25   C30   1.395016 A    
C32   N9    1.492360 S    
C35   H4    1.097515 S    
N16   O36   1.299080 A    
C33   C37   1.580222 S    
C12   C17   1.408679 A    
C13   C14   1.411787 A    
C28   N7    1.439400 S    
Zn1   N4    2.019446 S    
C33   N12   1.475990 S    
O3    C2    1.295076 A    
N14   O32   1.301020 A    
O8    C4    1.309316 A    
C17   O11   1.349167 S    
N11   O26   1.302566 A    
N12   O28   1.301376 A    
C26   N6    1.421292 S    
C39   N3    1.484672 S    
C41   H12   1.111978 S    
C26   C27   1.422193 A    
N17   O38   1.301192 A    
C44   N16   1.476147 S    
C43   H14   1.108356 S    
C28   C29   1.400034 A    
C3    C37   1.490565 S    
C14   C18   1.398095 A    
Zn1   O5    2.058312 S    
C37   C38   1.550186 S    
C17   N2    1.369736 A    
C11   N14   1.436036 S    
O1    Zn1   2.065100 S    
C8    C13   1.409434 A    
C31   N8    1.487565 S    
Zn2   O6    2.064360 S    
O2    Zn2   2.059053 S    
C38   H7    1.106557 S    
O6    C3    1.294833 A    
O4    Zn2   1.973603 S    
C5    O9    1.349376 S    
C9    C16   1.402476 A    
C42   N4    1.492256 S    
C23   H23   1.083019 S    
C34   C37   1.570699 S    
N5    O13   1.301129 A    
C19   C24   1.404270 A    
C41   C42   1.588961 S    
C39   H10   1.097062 S    
C1    C36   1.500501 S    
N13   O29   1.301476 A    
C22   C23   1.387662 A    
C32   C36   1.619718 S    
C40   H9    1.107434 S    
N2    C24   1.433697 S    
C31   C33   1.567596 S    
N15   O34   1.300193 A    
O2    C1    1.299099 A    
C44   H15   1.114702 S    
C15   H18   1.083109 S    
N10   O23   1.303047 A    
C42   H17   1.096433 S    
N11   O25   1.296764 A    
Zn2   N3    2.019891 S    
C41   H16   1.111889 S    
C6    O10   1.349156 S    
C11   C12   1.416899 A    
C19   H20   1.082822 S    
N7    O18   1.302213 A    
N6    O16   1.302488 A    
N17   O37   1.300879 A    
C35   C36   1.577957 S    
C4    C27   1.503289 S    
