data_mof_unit_23191.cif
_audit_creation_date              2012-12-11T15:57:51-0500
_audit_creation_method            fapswitch 2.2
_symmetry_space_group_name_H-M    P1
_symmetry_Int_Tables_number       1
_space_group_crystal_system       triclinic
_cell_length_a                    10.728686
_cell_length_b                    10.770103
_cell_length_c                    16.959555
_cell_angle_alpha                 100.019621
_cell_angle_beta                  99.995646
_cell_angle_gamma                 61.035802
_cell_volume                      1679.30381225

loop_
_atom_site_label
_atom_site_type_symbol
_atom_type_description
_atom_site_fract_x
_atom_site_fract_y
_atom_site_fract_z
_atom_type_partial_charge
C1    C     C_R   0.354301 0.775954 0.401814 0.567494
C2    C     C_2   0.325131 0.316123 0.815724 0.304192
C3    C     C_2   0.324827 0.214995 0.756162 -0.067917
C4    C     C_R   0.365803 0.342814 0.358461 0.541076
C5    C     C_2   0.369337 0.204069 0.677159 0.274063
C6    C     C_1   0.846614 0.329189 0.705124 -0.031546
C7    C     C_1   0.894319 0.292935 0.771465 -0.028659
C8    C     C_1   0.359361 0.763101 0.713523 -0.023484
C9    C     C_1   0.325812 0.810987 0.780343 -0.043086
C10   C     C_R   0.891011 0.309459 0.085387 0.540363
C11   C     C_R   0.290376 0.260738 0.121674 0.558689
C12   C     C_2   0.811660 0.340382 0.153500 -0.114162
C13   C     C_R   0.295603 0.889989 0.083305 0.521778
C14   C     C_R   0.944204 0.272597 0.853937 0.561084
C15   C     C_R   0.307750 0.292284 0.893701 0.513888
C16   C     C_R   0.772879 0.377949 0.403259 0.542018
C17   C     C_R   0.280275 0.881109 0.857119 0.525864
C18   C     C_R   0.382168 0.713286 0.631276 0.576540
C19   C     C_R   0.363967 0.345204 0.578541 0.576941
C20   C     C_R   0.776742 0.379514 0.629183 0.530784
C21   C     C_1   0.324165 0.316184 0.276687 -0.052677
C22   C     C_1   0.304014 0.291786 0.205855 -0.062079
C23   C     C_2   0.798055 0.240921 0.184789 -0.024813
C24   C     C_2   0.826009 0.335349 0.325263 -0.127335
C25   C     C_3   0.823851 0.095877 0.139916 -0.231372
C26   C     C_3   0.775948 0.011493 0.179876 -0.451480
C27   C     C_3   0.573890 0.988130 0.700633 -0.083595
C28   C     C_3   0.383398 0.496462 0.875221 -0.097545
C29   C     C_3   0.056242 0.447402 0.607972 -0.098680
C30   C     C_3   0.575614 0.832634 0.346045 -0.241601
C31   C     C_3   0.662601 0.875922 0.304898 -0.459053
C32   C     C_3   0.365032 0.607488 0.107577 -0.099841
C33   C     C_2   0.762863 0.274931 0.267597 -0.126670
C34   C     C_2   0.325741 0.856440 0.334445 -0.066318
C35   C     C_2   0.348645 0.827441 0.159602 0.262386
C36   C     C_2   0.393249 0.901326 0.219721 -0.103905
C37   C     C_2   0.427843 0.865295 0.302546 -0.001966
C38   C     C_2   0.296818 0.319449 0.636899 0.310814
Cr1   Cr    Cr6+3 0.608020 0.610770 0.522990 1.002416
Cr2   Cr    Cr6+3 0.289390 0.599570 0.488050 1.035398
Cr3   Cr    Cr6+3 0.602610 0.289690 0.489020 1.029188
Cr4   Cr    Cr6+3 0.053780 0.052210 0.965970 1.001394
Cr5   Cr    Cr6+3 0.060060 0.372530 0.992430 1.014910
Cr6   Cr    Cr6+3 0.372600 0.061970 0.991430 0.984227
H1    H     H_    0.682406 0.250328 0.281151 0.167775
H2    H     H_    0.764954 0.111845 0.078683 0.168468
H3    H     H_    0.940256 0.028406 0.134785 0.195015
H4    H     H_    0.521342 0.937112 0.724201 0.128033
H5    H     H_    0.615499 0.044718 0.750521 0.132242
H6    H     H_    0.667125 0.901607 0.670980 0.149407
H7    H     H_    0.466691 0.426105 0.919202 0.102128
H8    H     H_    0.280135 0.563925 0.901713 0.129262
H9    H     H_    0.421895 0.568112 0.861433 0.142399
H10   H     H_    0.068607 0.463914 0.547465 0.115591
H11   H     H_    0.038954 0.352483 0.603175 0.106882
H12   H     H_    0.779380 0.445865 0.186267 0.105724
H13   H     H_    0.960239 0.543698 0.628779 0.180944
H14   H     H_    0.683481 0.816822 0.244040 0.154938
H15   H     H_    0.604762 0.992480 0.300118 0.170893
H16   H     H_    0.767226 0.849954 0.341197 0.142201
H17   H     H_    0.563281 0.890391 0.407592 0.172210
H18   H     H_    0.638940 0.716094 0.350372 0.192537
H19   H     H_    0.465057 0.583540 0.082989 0.090933
H20   H     H_    0.273017 0.640487 0.060071 0.135727
H21   H     H_    0.381617 0.506987 0.127090 0.169306
H22   H     H_    0.903494 0.364880 0.312562 0.091325
H23   H     H_    0.403535 0.992015 0.208493 0.098142
H24   H     H_    0.219698 0.891467 0.301468 0.126379
H25   H     H_    0.303935 0.130549 0.767373 0.064716
H26   H     H_    0.836180 0.986690 0.240202 0.155070
H27   H     H_    0.659265 0.072462 0.185484 0.173559
H28   H     H_    0.797668 0.909181 0.142292 0.144360
O1    O     O_R   0.749250 0.499990 0.439200 -0.534436
O2    O     O_R   0.411120 0.181190 0.091480 -0.527348
O3    O     O_R   0.364220 0.944920 0.062310 -0.537452
O4    O     O_R   0.477870 0.725740 0.440280 -0.500129
O5    O     O_R   0.158740 0.906940 0.874970 -0.503809
O6    O     O_R   0.930920 0.176940 0.885610 -0.485592
O7    O     O_R   0.910730 0.394510 0.895320 -0.502463
O8    O     O_R   0.185840 0.361180 0.920280 -0.515005
O9    O     O_R   0.399210 0.173040 0.915160 -0.534731
O10   O     O_R   0.353170 0.937370 0.898860 -0.504153
O11   O     O_3   0.162150 0.162240 0.983280 -0.283313
O12   O     O_R   0.299400 0.468710 0.556310 -0.509757
O13   O     O_R   0.260770 0.742210 0.412610 -0.503529
O14   O     O_R   0.297990 0.466320 0.394220 -0.493971
O15   O     O_R   0.487720 0.253870 0.385870 -0.533916
O16   O     O_R   0.721940 0.304340 0.422320 -0.497460
O17   O     O_R   0.750770 0.502570 0.614050 -0.542893
O18   O     O_R   0.479280 0.728140 0.602370 -0.490972
O19   O     O_R   0.262290 0.744790 0.587460 -0.495762
O20   O     O_3   0.479843 0.080502 0.642875 -0.576074
O21   O     O_3   0.364741 0.416674 0.803088 -0.554474
O22   O     O_3   0.173332 0.433416 0.664861 -0.567648
O23   O     O_R   0.489240 0.256450 0.560730 -0.477356
O24   O     O_3   0.335156 0.711563 0.174749 -0.578656
O25   O     O_R   0.723350 0.306730 0.584410 -0.485029
O26   O     O_3   0.500010 0.500010 0.500020 -0.267965
O27   O     O_R   0.170650 0.915100 0.051290 -0.523433
O28   O     O_R   0.941960 0.184500 0.049060 -0.507735
O29   O     O_R   0.922640 0.402670 0.071640 -0.515015
O30   O     O_R   0.196880 0.368740 0.083740 -0.493814

loop_
_geom_bond_atom_site_label_1
_geom_bond_atom_site_label_2
_ccdc_geom_bond_type
C27   H4    S    
C31   H16   S    
C34   C37   D    
C33   H1    S    
Cr2   O12   S    
C35   C36   D    
Cr6   O11   S    
C36   H23   S    
C15   O9    A    
C4    O15   A    
C35   O24   S    
C12   C23   D    
C18   O19   A    
C31   H14   S    
C36   C37   S    
C3    H25   S    
C13   C35   S    
Cr6   O10   S    
Cr2   O26   S    
C30   C31   S    
C28   H7    S    
C4    O14   A    
C29   H10   S    
Cr5   O7    S    
Cr5   O11   S    
C17   O10   A    
Cr2   O14   S    
C7    C14   S    
C20   O25   A    
C13   O3    A    
C8    C9    T    
C23   C33   S    
C25   H3    S    
Cr1   O18   S    
C27   H6    S    
C24   H22   S    
Cr1   O1    S    
C16   C24   S    
C21   C22   T    
C26   H27   S    
C1    C34   S    
C10   O29   A    
C1    O13   A    
Cr3   O15   S    
C16   O1    A    
C18   O18   A    
C32   H20   S    
Cr6   O9    S    
C34   H24   S    
Cr1   O26   S    
C29   H11   S    
Cr5   O8    S    
C14   O7    A    
C8    C18   S    
C30   C37   S    
C28   O21   S    
Cr2   O13   S    
C13   O27   A    
Cr6   O3    S    
C10   O28   A    
Cr5   O29   S    
C19   C38   S    
Cr4   O28   S    
C15   O8    A    
C38   O22   S    
C17   O5    A    
C27   O20   S    
Cr1   O4    S    
Cr6   O2    S    
C2    C15   S    
C12   H12   S    
C10   C12   S    
C9    C17   S    
C32   O24   S    
C29   H13   S    
Cr4   O6    S    
C30   H18   S    
C29   O22   S    
C26   H26   S    
Cr3   O25   S    
C19   O12   A    
C19   O23   A    
C31   H15   S    
C26   H28   S    
Cr3   O16   S    
C1    O4    A    
C2    O21   S    
Cr4   O11   S    
C32   H19   S    
C3    C5    S    
C11   O2    A    
C28   H9    S    
C6    C7    T    
C6    C20   S    
C20   O17   A    
C11   C22   S    
C24   C33   D    
C2    C3    D    
C25   C26   S    
Cr5   O30   S    
Cr4   O27   S    
C4    C21   S    
C28   H8    S    
Cr3   O23   S    
C11   O30   A    
C14   O6    A    
Cr2   O19   S    
C5    O20   S    
C23   C25   S    
Cr4   O5    S    
C30   H17   S    
C16   O16   A    
Cr3   O26   S    
C5    C38   D    
C25   H2    S    
Cr1   O17   S    
C27   H5    S    
C32   H21   S    
