data_mof_unit_35087.cif
_audit_creation_date              2012-12-11T14:30:53-0500
_audit_creation_method            fapswitch 2.2
_symmetry_space_group_name_H-M    P1
_symmetry_Int_Tables_number       1
_space_group_crystal_system       triclinic
_cell_length_a                    17.430382
_cell_length_b                    24.395639
_cell_length_c                    14.950538
_cell_angle_alpha                 89.875408
_cell_angle_beta                  125.392261
_cell_angle_gamma                 90.122999
_cell_volume                      5182.53239058

loop_
_atom_site_label
_atom_site_type_symbol
_atom_type_description
_atom_site_fract_x
_atom_site_fract_y
_atom_site_fract_z
_atom_type_partial_charge
C1    C     C_R   0.854562 0.653543 0.909097 -0.024334
C2    C     C_R   0.012968 0.502681 0.688149 -0.074879
C3    C     C_R   0.577025 0.003248 0.371002 -0.052930
C4    C     C_R   0.512058 0.002525 0.687391 -0.079686
C5    C     C_R   0.674680 0.500507 0.710724 -0.083550
C6    C     C_R   0.312082 0.499759 0.351849 -0.059383
C7    C     C_R   0.186454 0.999863 0.650483 -0.072195
C8    C     C_R   0.825204 0.000648 0.289281 -0.069107
C9    C     C_3   0.505274 0.452918 0.598722 -0.166093
C10   C     C_3   0.475875 0.453428 0.479389 -0.164916
C11   C     C_3   0.022497 0.953458 0.522157 -0.170378
C12   C     C_R   0.146850 0.653209 0.091820 -0.044760
C13   C     C_3   0.994266 0.953060 0.403301 -0.159596
C14   C     C_3   0.431026 0.497634 0.569907 -0.123779
C15   C     C_3   0.547757 0.498835 0.507519 -0.128922
C16   C     C_3   0.950480 0.998823 0.492976 -0.130271
C17   C     C_3   0.068800 0.997831 0.432919 -0.118643
C18   C     C_3   0.404230 0.498247 0.452817 0.133723
C19   C     C_3   0.575742 0.498660 0.625167 0.137025
C20   C     C_3   0.923737 0.998766 0.375829 0.137327
C21   C     C_3   0.094448 0.998339 0.549496 0.134614
C22   C     C_3   0.475438 0.543525 0.480145 -0.040608
C23   C     C_R   0.351944 0.152802 0.907958 -0.045306
C24   C     C_3   0.503905 0.543199 0.598884 -0.021501
C25   C     C_3   0.995901 0.043359 0.402986 -0.038478
C26   C     C_3   0.023182 0.043571 0.521229 -0.032579
C27   C     C_2   0.108619 0.775431 0.919928 0.586595
C28   C     C_2   0.881708 0.771795 0.081467 0.583948
C29   C     C_2   0.612608 0.273719 0.917910 0.580989
C30   C     C_2   0.386072 0.273444 0.079575 0.588354
C31   C     C_2   0.135151 0.743621 0.006856 -0.270291
C32   C     C_2   0.857812 0.741671 0.994059 -0.266401
C33   C     C_2   0.636464 0.243320 0.005350 -0.258808
C34   C     C_R   0.644290 0.153890 0.090769 -0.021893
C35   C     C_2   0.359576 0.242073 0.992548 -0.273936
C36   C     C_2   0.683857 0.309938 0.926229 -0.270879
C37   C     C_2   0.316652 0.310690 0.071829 -0.274415
C38   C     C_2   0.177565 0.813803 0.928404 -0.264035
C39   C     C_2   0.810149 0.807154 0.073541 -0.279562
C40   C     C_R   0.924570 0.357654 0.091871 0.523325
C41   C     C_R   0.075138 0.357330 0.909201 0.465034
C42   C     C_R   0.421251 0.859670 0.091613 0.525391
C43   C     C_R   0.571570 0.855570 0.908690 0.462746
C44   C     C_2   0.776489 0.298870 0.995061 -0.145733
C45   C     C_R   0.843846 0.335715 0.999435 -0.010618
C46   C     C_2   0.223811 0.299970 0.005265 -0.155981
C47   C     C_2   0.270399 0.803556 0.995542 -0.145057
C48   C     C_2   0.717473 0.795706 0.005316 -0.159187
C49   C     C_2   0.116440 0.461353 0.538271 -0.215717
C50   C     C_2   0.103383 0.469945 0.624886 -0.178824
C51   C     C_2   0.615908 0.961392 0.538007 -0.206034
C52   C     C_2   0.602453 0.969841 0.624279 -0.181217
C53   C     C_2   0.126850 0.504224 0.490163 0.499959
C54   C     C_2   0.034334 0.502761 0.608470 0.521848
C55   C     C_2   0.625899 0.004415 0.489886 0.506499
C56   C     C_R   0.158479 0.337669 0.001738 -0.001183
C57   C     C_2   0.532996 0.002406 0.607427 0.521256
C58   C     C_R   0.053948 0.547801 0.304044 0.039833
C59   C     C_R   0.995950 0.548123 0.728659 -0.004281
C60   C     C_R   0.553771 0.047851 0.303912 0.031011
C61   C     C_R   0.495215 0.048040 0.727928 0.007808
C62   C     C_R   0.731226 0.455183 0.741512 -0.159443
C63   C     C_R   0.260753 0.454603 0.294216 -0.198200
C64   C     C_R   0.238448 0.954653 0.706894 -0.156613
C65   C     C_R   0.768607 0.955221 0.257915 -0.186878
C66   C     C_R   0.058499 0.457337 0.307935 -0.080008
C67   C     C_R   0.336743 0.840851 0.999243 -0.023070
C68   C     C_R   0.996184 0.456412 0.727768 -0.112112
C69   C     C_R   0.558367 0.957370 0.307905 -0.074795
C70   C     C_R   0.495921 0.956306 0.727648 -0.112696
C71   C     C_R   0.729660 0.546680 0.737715 0.444450
C72   C     C_R   0.261155 0.546109 0.298663 0.427470
C73   C     C_R   0.238044 0.046211 0.702581 0.438361
C74   C     C_R   0.770292 0.046770 0.262329 0.439108
C75   C     C_R   0.831226 0.360112 0.909234 -0.140093
C76   C     C_R   0.173186 0.363340 0.091992 -0.112716
C77   C     C_R   0.324287 0.865042 0.908605 -0.122217
C78   C     C_R   0.650947 0.832806 0.001255 0.014968
C79   C     C_R   0.666043 0.858703 0.091202 -0.134061
C80   C     C_R   0.940975 0.651503 0.090705 -0.052786
C81   C     C_R   0.057141 0.652437 0.909996 -0.081232
C82   C     C_R   0.441208 0.151765 0.090082 -0.056260
C83   C     C_R   0.557346 0.152205 0.909418 -0.077330
C84   C     C_R   0.884014 0.684463 0.000270 0.096642
C85   C     C_R   0.114258 0.685219 0.000624 0.107981
C86   C     C_R   0.383265 0.184341 0.999130 0.103208
C87   C     C_R   0.613489 0.185322 0.999576 0.098462
C88   C     C_R   0.077391 0.503173 0.371155 -0.050566
Cl1   Cl    Cl    0.178116 0.566293 0.562242 -0.530838
Cl2   Cl    Cl    0.957500 0.540804 0.486878 -0.550620
Cl3   Cl    Cl    0.675612 0.066774 0.561623 -0.534513
Cl4   Cl    Cl    0.455238 0.039744 0.485123 -0.550529
Cl5   Cl    Cl    0.690256 0.610777 0.672695 -0.653770
Cl6   Cl    Cl    0.276761 0.610398 0.359611 -0.631673
Cl7   Cl    Cl    0.221685 0.110499 0.640939 -0.634944
Cl8   Cl    Cl    0.809476 0.110900 0.327018 -0.649065
H1    H     H_    0.824163 0.670451 0.828581 0.208986
H2    H     H_    0.517013 0.579611 0.650359 0.190080
H3    H     H_    0.983385 0.079801 0.351601 0.189324
H4    H     H_    0.035073 0.080405 0.571225 0.193342
H5    H     H_    0.194827 0.756433 0.087566 0.157548
H6    H     H_    0.796760 0.753672 0.913606 0.155636
H7    H     H_    0.696434 0.255960 0.086007 0.158582
H8    H     H_    0.298766 0.254336 0.912132 0.154202
H9    H     H_    0.659804 0.344763 0.870719 0.190744
H10   H     H_    0.342263 0.346036 0.125997 0.196263
H11   H     H_    0.151917 0.849101 0.873953 0.196576
H12   H     H_    0.181824 0.668690 0.174145 0.202730
H13   H     H_    0.834282 0.842053 0.128710 0.190714
H14   H     H_    0.802843 0.264170 0.050547 0.193611
H15   H     H_    0.195253 0.264908 0.950664 0.192488
H16   H     H_    0.298022 0.768134 0.049062 0.193446
H17   H     H_    0.690275 0.761241 0.949174 0.192086
H18   H     H_    0.090867 0.422219 0.496605 0.161160
H19   H     H_    0.142589 0.444019 0.697329 0.138602
H20   H     H_    0.591152 0.922133 0.496681 0.158602
H21   H     H_    0.642196 0.944251 0.697172 0.138992
H22   H     H_    0.072530 0.589977 0.330162 0.181365
H23   H     H_    0.316494 0.168439 0.825624 0.203833
H24   H     H_    0.997883 0.590702 0.709883 0.151923
H25   H     H_    0.572200 0.090053 0.329917 0.169056
H26   H     H_    0.496697 0.090577 0.708611 0.154542
H27   H     H_    0.707690 0.413617 0.716626 0.139200
H28   H     H_    0.275744 0.412436 0.321395 0.151594
H29   H     H_    0.223079 0.912589 0.679284 0.152122
H30   H     H_    0.791884 0.913533 0.281777 0.140463
H31   H     H_    0.087081 0.417609 0.341403 0.180380
H32   H     H_    0.997106 0.415013 0.704688 0.197049
H33   H     H_    0.586733 0.917600 0.341369 0.180275
H34   H     H_    0.674202 0.170554 0.171296 0.207270
H35   H     H_    0.497275 0.914834 0.705153 0.196512
H36   H     H_    0.782560 0.347069 0.825358 0.165767
H37   H     H_    0.227446 0.354557 0.177127 0.156786
H38   H     H_    0.269547 0.856314 0.823682 0.155540
H39   H     H_    0.714487 0.845959 0.175413 0.166092
H40   H     H_    0.983311 0.663119 0.175819 0.186940
H41   H     H_    0.012294 0.664932 0.825532 0.186976
H42   H     H_    0.484533 0.163833 0.174885 0.184344
H43   H     H_    0.513350 0.164359 0.824655 0.189743
H44   H     H_    0.379855 0.497097 0.591469 0.169526
H45   H     H_    0.520865 0.416110 0.650393 0.174722
H46   H     H_    0.597771 0.499366 0.484195 0.168725
H47   H     H_    0.899698 0.999269 0.515170 0.165015
H48   H     H_    0.120538 0.997363 0.412240 0.170863
H49   H     H_    0.899740 0.840566 0.687065 0.381904
H50   H     H_    0.086949 0.841117 0.311075 0.384212
H51   H     H_    0.407082 0.341397 0.685643 0.378434
H52   H     H_    0.595402 0.340744 0.307640 0.389021
H53   H     H_    0.145877 0.315509 0.342187 0.385701
H54   H     H_    0.854113 0.321302 0.651264 0.395145
H55   H     H_    0.639791 0.813535 0.341044 0.386764
H56   H     H_    0.462212 0.416825 0.428087 0.160199
H57   H     H_    0.348261 0.824957 0.648945 0.393368
H58   H     H_    0.035688 0.916841 0.573462 0.159161
H59   H     H_    0.979060 0.916313 0.351836 0.174205
H60   H     H_    0.463269 0.580441 0.429998 0.193039
N1    N     N_R   0.892320 0.603520 0.941090 -0.071532
N2    N     N_R   0.973240 0.529450 0.794410 -0.063547
N3    N     N_R   0.526760 0.029450 0.205590 -0.075217
N4    N     N_R   0.473240 0.029450 0.794410 -0.062861
N5    N     N_R   0.819350 0.473090 0.793940 -0.050779
N6    N     N_R   0.180650 0.473090 0.206060 -0.060596
N7    N     N_R   0.319350 0.973090 0.793940 -0.057457
N8    N     N_R   0.680650 0.973090 0.206060 -0.059823
N9    N     N_R   0.027860 0.473090 0.206590 -0.051557
N10   N     N_R   0.972140 0.473090 0.793410 -0.037786
N11   N     N_R   0.527860 0.973090 0.206590 -0.052131
N12   N     N_R   0.107680 0.603520 0.058910 -0.064523
N13   N     N_R   0.472140 0.973090 0.793410 -0.037584
N14   N     N_R   0.818250 0.529450 0.792940 -0.085436
N15   N     N_R   0.181750 0.529450 0.207060 -0.091086
N16   N     N_R   0.318250 0.029450 0.792940 -0.088939
N17   N     N_R   0.681750 0.029450 0.207060 -0.091057
N18   N     N_R   0.896320 0.399020 0.944720 -0.071418
N19   N     N_R   0.103680 0.399020 0.055280 -0.070979
N20   N     N_R   0.396320 0.899020 0.944720 -0.070026
N21   N     N_R   0.603680 0.899020 0.055280 -0.071774
N22   N     N_R   0.949790 0.603520 0.054810 -0.073367
N23   N     N_R   0.392320 0.103520 0.941090 -0.064177
N24   N     N_R   0.050210 0.603520 0.945190 -0.075107
N25   N     N_R   0.449790 0.103520 0.054810 -0.072954
N26   N     N_R   0.550210 0.103520 0.945190 -0.075326
N27   N     N_R   0.607680 0.103520 0.058910 -0.071921
N28   N     N_R   0.953790 0.399020 0.058440 -0.107347
N29   N     N_R   0.046210 0.399020 0.941560 -0.105007
N30   N     N_R   0.453790 0.899020 0.058440 -0.107227
N31   N     N_R   0.546210 0.899020 0.941560 -0.104909
N32   N     N_R   0.026760 0.529450 0.205590 -0.076204
Ni1   Ni    Ni4+2 0.934100 0.565890 0.869590 0.267241
Ni2   Ni    Ni4+2 0.065900 0.565890 0.130410 0.258900
Ni3   Ni    Ni4+2 0.434100 0.065890 0.869590 0.273178
Ni4   Ni    Ni4+2 0.565900 0.065890 0.130410 0.253672
Ni5   Ni    Ni4+2 0.068420 0.436630 0.132700 0.274687
Ni6   Ni    Ni4+2 0.931580 0.436630 0.867300 0.299267
Ni7   Ni    Ni4+2 0.568420 0.936630 0.132700 0.275300
Ni8   Ni    Ni4+2 0.431580 0.936630 0.867300 0.296195
O1    O     O_2   0.989451 0.746084 0.709543 -0.281338
O2    O     O_2   0.508161 0.245265 0.290336 -0.273866
O3    O     O_2   0.570498 0.252373 0.179174 -0.300883
O4    O     O_3   0.531482 0.342084 0.238126 -0.521159
O5    O     O_2   0.973385 0.341074 0.295052 -0.291707
O6    O     O_2   0.978746 0.261847 0.198778 -0.247436
O7    O     O_3   0.110151 0.334727 0.270554 -0.580915
O8    O     O_2   0.039119 0.313910 0.724718 -0.289422
O9    O     O_2   0.993146 0.260849 0.825758 -0.238226
O10   O     O_3   0.891645 0.345682 0.715718 -0.564381
O11   O     O_2   0.468471 0.842679 0.294084 -0.291863
O12   O     O_2   0.924490 0.752440 0.817999 -0.301539
O13   O     O_2   0.470314 0.763074 0.196082 -0.253564
O14   O     O_3   0.605314 0.833562 0.270288 -0.578424
O15   O     O_2   0.532386 0.813004 0.722203 -0.285362
O16   O     O_2   0.482850 0.761094 0.820856 -0.234192
O17   O     O_3   0.387322 0.848256 0.714832 -0.570901
O18   O     O_3   0.962386 0.842610 0.758355 -0.524803
O19   O     O_2   0.004205 0.744355 0.292519 -0.270944
O20   O     O_2   0.067134 0.753152 0.182206 -0.286295
O21   O     O_3   0.024272 0.841876 0.239704 -0.539620
O22   O     O_2   0.492213 0.245566 0.707069 -0.277226
O23   O     O_2   0.427507 0.253215 0.815615 -0.287829
O24   O     O_3   0.469033 0.342662 0.757811 -0.542060
S1    S     S_3+6 0.992725 0.777063 0.798507 -0.025935
S2    S     S_3+6 0.998006 0.775798 0.201962 -0.020296
S3    S     S_3+6 0.496719 0.276767 0.796599 -0.024323
S4    S     S_3+6 0.502632 0.276244 0.199746 -0.021379
S5    S     S_3+6 0.996313 0.322457 0.217300 -0.032570
S6    S     S_3+6 0.999651 0.317560 0.791144 -0.037346
S7    S     S_3+6 0.490788 0.823386 0.216153 -0.035457
S8    S     S_3+6 0.493270 0.817610 0.788881 -0.033973

loop_
_geom_bond_atom_site_label_1
_geom_bond_atom_site_label_2
_ccdc_geom_bond_type
C63   N6    A    
C83   C87   A    
C21   C26   S    
C59   H24   S    
C31   C85   S    
H55   O14   S    
N31   Ni8   S    
O14   S7    S    
C14   C18   S    
O2    S4    D    
C67   C77   A    
C60   N3    A    
N29   Ni6   S    
C80   C84   A    
N27   Ni4   S    
C83   H43   S    
C63   H28   S    
N8    Ni7   S    
C82   C86   A    
O22   S3    D    
C7    C73   A    
C22   H60   S    
C42   S7    S    
C44   C45   S    
C1    C84   A    
C6    C72   A    
C29   C36   S    
C50   C54   D    
C12   C85   A    
C17   H48   S    
C24   H2    S    
C31   H5    S    
C57   Cl4   S    
C70   N13   A    
C54   Cl2   S    
O1    S1    D    
N24   Ni1   S    
C66   C88   A    
N22   Ni2   S    
C35   C86   S    
C62   N5    A    
C20   C25   S    
C27   C38   S    
C14   C24   S    
C47   H16   S    
C29   C33   D    
O15   S8    D    
C58   H22   S    
N12   Ni2   S    
C66   H31   S    
N4    Ni3   S    
N32   Ni2   S    
C50   H19   S    
C48   C78   S    
C40   S5    S    
N26   N27   A    
C13   H59   S    
C55   Cl3   S    
H51   O24   S    
C11   H58   S    
C10   H56   S    
H50   O21   S    
C3    C55   S    
C9    C19   S    
C15   C22   S    
N6    N15   A    
C5    C62   A    
C23   C86   A    
C4    C57   S    
O10   S6    S    
N4    N13   A    
C79   N21   A    
C45   C75   A    
N13   Ni8   S    
C9    C10   S    
H53   O7    S    
C23   N23   A    
C66   N9    A    
C34   N27   A    
N1    N22   A    
C72   Cl6   S    
C3    C60   A    
C42   N30   A    
C49   H18   S    
C8    C65   A    
C18   C22   S    
C46   H15   S    
C75   N18   A    
C82   N25   A    
C64   N7    A    
C6    C18   S    
C28   C32   D    
C47   C67   S    
C62   H27   S    
C25   H3    S    
O6    S5    D    
O20   S2    D    
N16   Ni3   S    
C16   C26   S    
C40   C45   A    
C32   C84   S    
C4    C70   A    
C27   S1    S    
N9    N32   A    
C58   N32   A    
C51   C52   S    
O4    S4    S    
C72   N15   A    
C74   Cl8   S    
N30   Ni7   S    
N8    N17   A    
C16   H47   S    
H54   O10   S    
C74   N17   A    
C35   H8    S    
C2    C54   S    
N2    Ni1   S    
C1    H1    S    
C12   H12   S    
C9    H45   S    
C78   C79   A    
H52   O4    S    
C30   S4    S    
C28   C39   S    
O12   S1    D    
C81   H41   S    
C27   C31   D    
C4    C61   A    
C11   C21   S    
C17   C21   S    
C30   C37   S    
N9    Ni5   S    
C61   H26   S    
C43   C78   A    
C80   N22   A    
C6    C63   A    
C15   C19   S    
C9    C14   S    
C69   N11   A    
C41   C56   A    
O18   S1    S    
N12   N24   A    
C38   H11   S    
N19   N29   A    
C15   H46   S    
C11   C16   S    
N14   Ni1   S    
C43   N31   A    
C16   C20   S    
C8    C74   A    
C71   N14   A    
C41   N29   A    
O9    S6    D    
C8    C20   S    
N20   Ni8   S    
C73   N16   A    
N7    N16   A    
C34   H34   S    
C38   C47   D    
C71   Cl5   S    
N5    N14   A    
C30   C35   D    
O11   S7    D    
C2    C59   A    
O5    S5    D    
C14   H44   S    
N18   Ni6   S    
C77   N20   A    
C56   C76   A    
C53   Cl1   S    
C42   C67   A    
C22   C24   S    
C36   C44   D    
C65   N8    A    
C77   H38   S    
C73   Cl7   S    
N18   N28   A    
O19   S2    D    
O7    S5    S    
C75   H36   S    
N2    N10   A    
O21   S2    S    
C29   S3    S    
C68   H32   S    
C41   S6    S    
N15   Ni2   S    
C68   N10   A    
N21   Ni7   S    
C13   C20   S    
C3    C69   A    
C36   H9    S    
C33   H7    S    
N11   Ni7   S    
N3    Ni4   S    
C76   N19   A    
N10   Ni6   S    
C81   N24   A    
C58   C88   A    
C61   N4    A    
C12   N12   A    
C76   H37   S    
N20   N30   A    
C5    C19   S    
C79   H39   S    
N17   Ni4   S    
C2    C68   A    
C51   H20   S    
N21   N31   A    
C13   C17   S    
C10   C15   S    
C17   C25   S    
C65   H30   S    
C1    N1    A    
C19   C24   S    
C25   C26   S    
C37   H10   S    
C5    C71   A    
O17   S8    S    
C7    C21   S    
C43   S8    S    
C82   H42   S    
C23   H23   S    
C11   C13   S    
C64   H29   S    
H57   O17   S    
N7    Ni8   S    
C10   C18   S    
C69   H33   S    
C49   C53   D    
N6    Ni5   S    
C70   H35   S    
C59   N2    A    
N3    N11   A    
N5    Ni6   S    
C53   C88   S    
C32   H6    S    
C34   C87   A    
C33   C87   S    
C60   H25   S    
N1    Ni1   S    
C7    C64   A    
C80   H40   S    
C52   C57   D    
O23   S3    D    
H49   O18   S    
O16   S8    D    
N25   Ni4   S    
C39   H13   S    
N23   Ni3   S    
C83   N26   A    
C28   S2    S    
C49   C50   S    
N26   Ni3   S    
C52   H21   S    
C46   C56   S    
C51   C55   D    
C39   C48   D    
O3    S4    D    
O13   S7    D    
N23   N25   A    
C37   C46   D    
O8    S6    D    
N19   Ni5   S    
O24   S3    S    
C81   C85   A    
N28   Ni5   S    
C26   H4    S    
C48   H17   S    
C40   N28   A    
C44   H14   S    
