data_mof_unit_43978.cif
_audit_creation_date              2012-12-10T20:00:05-0500
_audit_creation_method            fapswitch 2.2
_symmetry_space_group_name_H-M    P1
_symmetry_Int_Tables_number       1
_space_group_crystal_system       triclinic
_cell_length_a                    14.958804
_cell_length_b                    14.175897
_cell_length_c                    8.910492
_cell_angle_alpha                 90.072171
_cell_angle_beta                  89.996505
_cell_angle_gamma                 89.999962
_cell_volume                      1889.50810919

loop_
_atom_site_label
_atom_site_type_symbol
_atom_type_description
_atom_site_fract_x
_atom_site_fract_y
_atom_site_fract_z
_atom_type_partial_charge
C1    C     C_R   0.327657 0.500000 0.500014 0.978300
C2    C     C_R   0.424128 0.895000 0.454831 -0.290558
C3    C     C_R   0.500274 0.499963 0.218540 0.936464
C4    C     C_R   0.500274 0.500037 0.781459 0.936461
C5    C     C_R   0.499885 0.053255 0.499954 0.139876
C6    C     C_R   0.499885 0.946745 0.500047 0.139881
C7    C     C_1   0.500566 0.499947 0.065355 -0.189056
C8    C     C_1   0.500566 0.500053 0.934645 -0.189062
C9    C     C_R   0.092381 0.566101 0.587007 -0.276002
C10   C     C_R   0.906591 0.438118 0.594559 -0.268177
C11   C     C_R   0.906601 0.561893 0.405445 -0.268161
C12   C     C_R   0.672080 0.500000 0.499987 0.938390
C13   C     C_R   0.092386 0.433907 0.413020 -0.275989
C14   C     C_R   0.185380 0.568407 0.585085 0.460789
C15   C     C_R   0.813987 0.439060 0.597573 0.462220
C16   C     C_R   0.813998 0.560944 0.402414 0.462215
C17   C     C_R   0.185384 0.431596 0.414948 0.460774
C18   C     C_R   0.231339 0.500000 0.500017 -0.266972
C19   C     C_R   0.767903 0.500000 0.499991 -0.279490
C20   C     C_R   0.047281 0.500006 0.500011 0.023914
C21   C     C_R   0.951819 0.500007 0.500008 0.006377
C22   C     C_3   0.210255 0.724195 0.642951 -0.286464
C23   C     C_R   0.425842 0.204315 0.545499 0.024842
C24   C     C_3   0.758716 0.422819 0.832807 -0.317698
C25   C     C_3   0.758753 0.577172 0.167173 -0.317707
C26   C     C_3   0.210277 0.275807 0.357123 -0.286424
C27   C     C_R   0.574197 0.795825 0.545159 0.047555
C28   C     C_R   0.574188 0.204175 0.454785 0.047570
C29   C     C_R   0.425833 0.795686 0.454557 0.024843
C30   C     C_R   0.424137 0.105000 0.545226 -0.290558
C31   C     C_R   0.575716 0.895146 0.545153 -0.273813
C32   C     C_R   0.575707 0.104854 0.454790 -0.273814
H1    H     H_    0.367576 0.242815 0.582849 0.131219
H2    H     H_    0.262911 0.770873 0.689652 0.190311
H3    H     H_    0.207475 0.737267 0.519703 0.140150
H4    H     H_    0.720267 0.375368 0.907772 0.196108
H5    H     H_    0.824756 0.435955 0.886454 0.152734
H6    H     H_    0.720432 0.489917 0.823091 0.135515
H7    H     H_    0.720469 0.510072 0.176895 0.135513
H8    H     H_    0.824800 0.564033 0.113534 0.152743
H9    H     H_    0.720312 0.624618 0.092195 0.196105
H10   H     H_    0.146112 0.255583 0.303313 0.155518
H11   H     H_    0.262927 0.229128 0.310396 0.190313
H12   H     H_    0.632719 0.757456 0.581738 0.138038
H13   H     H_    0.207520 0.262748 0.480376 0.140150
H14   H     H_    0.364358 0.069050 0.582812 0.133268
H15   H     H_    0.635477 0.931229 0.582620 0.140902
H16   H     H_    0.635461 0.068771 0.417278 0.140901
H17   H     H_    0.364341 0.930951 0.417291 0.133264
H18   H     H_    0.632703 0.242544 0.418162 0.138014
H19   H     H_    0.367559 0.757186 0.417250 0.131238
H20   H     H_    0.055029 0.614756 0.656797 0.160440
H21   H     H_    0.943119 0.390419 0.667149 0.170045
H22   H     H_    0.943138 0.609592 0.332859 0.170044
H23   H     H_    0.055040 0.385254 0.343227 0.160445
H24   H     H_    0.146099 0.744408 0.696813 0.155536
N1    N     N_R   0.500000 0.252470 0.500000 -0.091581
N2    N     N_R   0.500000 0.747530 0.500000 -0.091585
O1    O     O_R   0.369060 0.579480 0.500010 -0.604574
O2    O     O_3   0.768719 0.378313 0.692179 -0.581178
O3    O     O_3   0.768740 0.621686 0.307795 -0.581185
O4    O     O_3   0.232569 0.370144 0.322883 -0.584535
O5    O     O_R   0.630940 0.420520 0.499990 -0.604866
O6    O     O_R   0.630940 0.579480 0.499990 -0.604879
O7    O     O_R   0.369060 0.420520 0.500010 -0.604573
O8    O     O_R   0.500000 0.579460 0.285340 -0.612100
O9    O     O_R   0.500000 0.420540 0.714660 -0.612102
O10   O     O_R   0.500000 0.579460 0.714660 -0.615265
O11   O     O_R   0.500000 0.420540 0.285340 -0.615270
O12   O     O_3   0.232561 0.629856 0.677151 -0.584537
Zn1   Zn    Zn3+2 0.500000 0.606140 0.500000 0.979595
Zn2   Zn    Zn3+2 0.500000 0.393860 0.500000 0.979594

loop_
_geom_bond_atom_site_label_1
_geom_bond_atom_site_label_2
_ccdc_geom_bond_type
O11   Zn2   S    
C1    O7    A    
C9    C14   A    
C2    H17   S    
C17   O4    S    
C4    O9    A    
O7    Zn2   S    
C32   H16   S    
C15   O2    S    
C14   C18   A    
C9    C20   A    
C24   H6    S    
O8    Zn1   S    
C26   H13   S    
C13   C17   A    
C4    C8    S    
C5    C32   A    
C24   H5    S    
C26   O4    S    
C7    C8    T    
C25   H8    S    
C25   O3    S    
C28   N1    A    
O5    Zn2   S    
C15   C19   A    
C22   H3    S    
C14   O12   S    
C1    C18   S    
C24   H4    S    
C9    H20   S    
O10   Zn1   S    
C22   H2    S    
C29   N2    A    
C12   C19   S    
C11   H22   S    
C3    O11   A    
C30   H14   S    
C26   H11   S    
C17   C18   A    
C3    C7    S    
C10   C15   A    
C1    O1    A    
C10   C21   A    
C16   C19   A    
C5    C6    S    
C12   O6    A    
N2    Zn1   S    
C3    O8    A    
C16   O3    S    
C22   H24   S    
C27   C31   A    
C6    C31   A    
C23   C30   A    
C28   C32   A    
C2    C29   A    
C20   C21   S    
C26   H10   S    
C23   N1    A    
O9    Zn2   S    
C29   H19   S    
O6    Zn1   S    
C25   H9    S    
C4    O10   A    
C10   H21   S    
N1    Zn2   S    
C31   H15   S    
C24   O2    S    
C13   C20   A    
C13   H23   S    
C12   O5    A    
C11   C16   A    
C28   H18   S    
C27   H12   S    
C22   O12   S    
C11   C21   A    
C25   H7    S    
C2    C6    A    
C5    C30   A    
O1    Zn1   S    
C23   H1    S    
C27   N2    A    
