data_mof_unit_34271.cif
_audit_creation_date              2012-12-11T14:44:23-0500
_audit_creation_method            fapswitch 2.2
_symmetry_space_group_name_H-M    P1
_symmetry_Int_Tables_number       1
_space_group_crystal_system       triclinic
_cell_length_a                    25.342381
_cell_length_b                    17.760959
_cell_length_c                    16.001211
_cell_angle_alpha                 89.907636
_cell_angle_beta                  48.458511
_cell_angle_gamma                 89.861825
_cell_volume                      5390.67471833

loop_
_atom_site_label
_atom_site_type_symbol
_atom_type_description
_atom_site_fract_x
_atom_site_fract_y
_atom_site_fract_z
_atom_type_partial_charge
C1    C     C_R   0.355032 0.147098 0.753602 0.260221
C2    C     C_3   0.717517 0.729127 0.593348 -0.317673
C3    C     C_3   0.738439 0.227757 0.608404 -0.302138
C4    C     C_3   0.290330 0.725314 0.393934 -0.233692
C5    C     C_3   0.750505 0.712059 0.396880 -0.214212
C6    C     C_3   0.222287 0.218668 0.601358 -0.323102
C7    C     C_3   0.236979 0.726478 0.604727 -0.203253
C8    C     C_3   0.789732 0.205513 0.400703 -0.287106
C9    C     C_2   0.641049 0.239976 0.126550 -0.095948
C10   C     C_2   0.305692 0.839316 0.978551 -0.115190
C11   C     C_2   0.363246 0.249066 0.857178 -0.109886
C12   C     C_R   0.667183 0.905300 0.185928 0.362443
C13   C     C_2   0.696579 0.844763 0.017418 -0.111604
C14   C     C_2   0.130463 0.758848 0.166464 -0.099753
C15   C     C_2   0.809766 0.329636 0.966803 -0.092236
C16   C     C_2   0.870350 0.760660 0.829109 -0.099742
C17   C     C_2   0.195481 0.344101 0.021052 -0.088927
C18   C     C_2   0.687980 0.287890 0.106973 -0.064006
C19   C     C_2   0.237890 0.826923 0.028930 -0.038200
C20   C     C_2   0.315667 0.295544 0.874541 -0.051692
C21   C     C_2   0.764462 0.831742 0.966400 -0.032935
C22   C     C_2   0.186855 0.793582 0.139564 -0.106253
C23   C     C_R   0.643196 0.148132 0.247446 0.241386
C24   C     C_2   0.756478 0.288339 0.994357 -0.059494
C25   C     C_2   0.814497 0.797116 0.856179 -0.085846
C26   C     C_2   0.249171 0.301057 0.989502 -0.066008
C27   C     C_R   0.613957 0.098778 0.594611 0.151691
C28   C     C_R   0.398444 0.867339 0.409028 0.219637
C29   C     C_R   0.385630 0.099444 0.406208 0.143666
C30   C     C_R   0.600661 0.865624 0.590648 0.214431
C31   C     C_R   0.114928 0.607244 0.589220 0.159510
C32   C     C_R   0.899814 0.366043 0.407538 0.231526
C33   C     C_R   0.883259 0.600629 0.410808 0.155783
C34   C     C_R   0.333575 0.903687 0.813422 0.359084
C35   C     C_R   0.105903 0.377440 0.594880 0.184038
C36   C     C_R   0.692449 0.092495 0.412248 0.411058
C37   C     C_R   0.324866 0.864862 0.596453 0.551563
C38   C     C_R   0.307972 0.094153 0.588472 0.429739
C39   C     C_R   0.671203 0.861051 0.403661 0.558082
C40   C     C_R   0.187267 0.614193 0.404106 0.506635
C41   C     C_R   0.819937 0.371538 0.593411 0.415633
C42   C     C_R   0.811338 0.610901 0.594467 0.496635
C43   C     C_R   0.183567 0.377449 0.410140 0.416717
C44   C     C_R   0.557299 0.137814 0.242710 -0.103061
C45   C     C_R   0.848716 0.640166 0.770795 0.349061
C46   C     C_R   0.423505 0.887868 0.798710 -0.112909
C47   C     C_R   0.443842 0.140904 0.751684 -0.099890
C48   C     C_R   0.578523 0.891960 0.197839 -0.103070
C49   C     C_R   0.051979 0.644377 0.258675 -0.110172
C50   C     C_R   0.924394 0.385075 0.795779 -0.077309
C51   C     C_R   0.948278 0.646127 0.737556 -0.104184
C52   C     C_R   0.079452 0.394522 0.196630 -0.074592
C53   C     C_R   0.389900 0.185816 0.780586 0.000231
C54   C     C_R   0.647098 0.870035 0.135213 0.006606
C55   C     C_R   0.610610 0.183352 0.213290 0.015404
C56   C     C_R   0.166444 0.389148 0.195704 0.221598
C57   C     C_R   0.354702 0.866630 0.861859 0.001489
C58   C     C_R   0.892612 0.689016 0.767939 -0.045268
C59   C     C_R   0.145653 0.366510 0.138803 -0.003827
C60   C     C_R   0.107562 0.687456 0.227925 -0.037708
C61   C     C_R   0.858045 0.357566 0.852476 -0.007141
C62   C     C_R   0.682881 0.110283 0.505157 0.042872
C63   C     C_R   0.341849 0.830453 0.504214 -0.087892
C64   C     C_R   0.316981 0.111614 0.496311 0.070947
C65   C     C_R   0.654054 0.825400 0.495216 -0.099101
C66   C     C_R   0.179822 0.632176 0.494396 -0.038179
C67   C     C_R   0.151398 0.638927 0.226205 0.345623
C68   C     C_R   0.840754 0.331632 0.501540 -0.064949
C69   C     C_R   0.817276 0.624272 0.503743 -0.036565
C70   C     C_R   0.166550 0.345323 0.504154 -0.002855
C71   C     C_3   0.310069 0.238628 0.423658 0.178302
C72   C     C_3   0.665287 0.706873 0.578322 0.181422
C73   C     C_3   0.695884 0.236188 0.570924 0.178594
C74   C     C_3   0.331357 0.704417 0.430807 0.114960
C75   C     C_3   0.803348 0.733504 0.411656 0.161164
C76   C     C_3   0.170752 0.215959 0.580742 0.173527
C77   C     C_3   0.195857 0.748029 0.567906 0.158621
C78   C     C_R   0.834817 0.386215 0.801378 0.216962
C79   C     C_3   0.832398 0.197163 0.438230 0.149323
C80   C     C_3   0.749463 0.789596 0.503317 0.411750
C81   C     C_3   0.223149 0.165817 0.478467 0.525532
C82   C     C_3   0.258512 0.794000 0.470266 0.469950
C83   C     C_3   0.770513 0.153664 0.542919 0.437148
C84   C     C_3   0.258359 0.288599 0.526967 0.572137
C85   C     C_3   0.719287 0.651149 0.486031 0.486198
C86   C     C_3   0.757698 0.278809 0.466452 0.527719
C87   C     C_3   0.268098 0.658084 0.527739 0.415956
C88   C     C_3   0.696943 0.768362 0.490057 -0.129018
C89   C     C_3   0.258217 0.235266 0.403457 -0.310533
C90   C     C_3   0.274455 0.168507 0.498020 -0.198126
C91   C     C_3   0.299917 0.773963 0.506110 -0.131028
C92   C     C_3   0.728078 0.161572 0.505929 -0.162355
C93   C     C_3   0.206602 0.286363 0.506727 -0.165918
C94   C     C_3   0.771187 0.671866 0.501206 -0.159565
C95   C     C_3   0.800128 0.271132 0.502992 -0.144855
C96   C     C_3   0.227126 0.678783 0.492265 -0.154257
H1    H     H_    0.525215 0.146798 0.222132 0.170057
H2    H     H_    0.697458 0.747016 0.675584 0.270478
H3    H     H_    0.716383 0.229371 0.695269 0.252121
H4    H     H_    0.321027 0.734614 0.304354 0.268617
H5    H     H_    0.763254 0.697028 0.318069 0.250546
H6    H     H_    0.206948 0.217003 0.684138 0.263932
H7    H     H_    0.210500 0.713589 0.692185 0.252113
H8    H     H_    0.810106 0.204998 0.314541 0.262754
H9    H     H_    0.220742 0.834960 0.982855 0.198570
H10   H     H_    0.681925 0.312241 0.175077 0.169449
H11   H     H_    0.781973 0.839330 0.012101 0.193384
H12   H     H_    0.446940 0.895123 0.834126 0.174961
H13   H     H_    0.317539 0.311256 0.807030 0.167219
H14   H     H_    0.760506 0.262820 0.928304 0.159855
H15   H     H_    0.203253 0.781638 0.185631 0.198619
H16   H     H_    0.246197 0.273995 0.053811 0.155559
H17   H     H_    0.797652 0.786180 0.810636 0.196863
H18   H     H_    0.324929 0.827314 0.020901 0.167633
H19   H     H_    0.643059 0.224262 0.058731 0.170031
H20   H     H_    0.677169 0.833259 0.975256 0.165873
H21   H     H_    0.365194 0.241219 0.922585 0.172315
H22   H     H_    0.809407 0.354318 0.029272 0.180486
H23   H     H_    0.477971 0.154095 0.766847 0.171276
H24   H     H_    0.112499 0.771762 0.122368 0.180718
H25   H     H_    0.193939 0.369940 0.961114 0.180297
H26   H     H_    0.888786 0.772874 0.872634 0.175556
H27   H     H_    0.883958 0.045121 0.214022 0.415973
H28   H     H_    0.138118 0.821025 0.827757 0.389005
H29   H     H_    0.116536 0.061049 0.806581 0.414090
H30   H     H_    0.853181 0.801697 0.164024 0.392072
H31   H     H_    0.311729 0.726395 0.152588 0.384314
H32   H     H_    0.642778 0.415300 0.708386 0.425462
H33   H     H_    0.691767 0.726873 0.843574 0.386353
H34   H     H_    0.558366 0.906199 0.158655 0.172990
H35   H     H_    0.359490 0.428098 0.291681 0.417714
H36   H     H_    0.821881 0.837305 0.579432 0.345803
H37   H     H_    0.121126 0.076867 0.420746 0.383676
H38   H     H_    0.167254 0.911766 0.418422 0.385107
H39   H     H_    0.854394 0.150988 0.604177 0.336642
H40   H     H_    0.352852 0.335843 0.618394 0.379921
H41   H     H_    0.608321 0.533481 0.471191 0.383508
H42   H     H_    0.670330 0.399243 0.407530 0.379171
H43   H     H_    0.381871 0.531660 0.450415 0.390508
H44   H     H_    0.013436 0.660357 0.253392 0.170844
H45   H     H_    0.947680 0.390072 0.831755 0.168765
H46   H     H_    0.987539 0.665473 0.738965 0.168293
H47   H     H_    0.060637 0.411751 0.156069 0.168122
H48   H     H_    0.272280 0.234125 0.321782 0.244591
I1    I     I_    0.253280 0.178574 0.814877 -0.232714
I2    I     I_    0.432941 0.857011 0.246416 -0.214018
I3    I     I_    0.419089 0.065451 0.250285 -0.175957
I4    I     I_    0.577772 0.864773 0.746032 -0.212258
I5    I     I_    0.078140 0.592696 0.752604 -0.209015
I6    I     I_    0.937459 0.349785 0.243637 -0.178763
I7    I     I_    0.912823 0.562413 0.259150 -0.179924
I8    I     I_    0.080401 0.386942 0.750359 -0.174232
I9    I     I_    0.419350 0.268926 0.290353 -0.177432
I10   I     I_    0.557328 0.671288 0.709478 -0.072865
I11   I     I_    0.587423 0.274345 0.680770 -0.199445
I12   I     I_    0.735307 0.997894 0.077481 -0.199451
I13   I     I_    0.439129 0.665887 0.316753 -0.160537
I14   I     I_    0.913726 0.763478 0.281028 -0.238092
I15   I     I_    0.060456 0.188426 0.705863 -0.131062
I16   I     I_    0.089151 0.791201 0.682739 -0.186430
I17   I     I_    0.940371 0.160183 0.332925 -0.167717
I18   I     I_    0.732188 0.194133 0.217733 -0.278268
I19   I     I_    0.265226 0.994961 0.924984 -0.212270
I20   I     I_    0.764115 0.620203 0.948398 -0.178267
I21   I     I_    0.270951 0.431459 0.093269 -0.095666
I22   I     I_    0.233211 0.615275 0.048558 -0.174444
I23   I     I_    0.731003 0.431558 0.909336 -0.103224
I24   I     I_    0.574467 0.073353 0.757189 -0.189369
N1    N     N_R   0.389620 0.081040 0.705440 -0.078102
N2    N     N_R   0.417680 0.920160 0.443370 -0.113942
N3    N     N_R   0.417680 0.079840 0.443370 -0.112660
N4    N     N_R   0.582320 0.920160 0.556630 -0.111132
N5    N     N_R   0.082320 0.579840 0.556630 -0.117823
N6    N     N_R   0.917680 0.420160 0.443370 -0.109609
N7    N     N_R   0.917680 0.579840 0.443370 -0.119580
N8    N     N_R   0.082320 0.420160 0.556630 -0.111402
N9    N     N_R   0.627920 0.078930 0.443400 -0.127469
N10   N     N_R   0.372080 0.921070 0.556600 -0.138121
N11   N     N_R   0.372080 0.078930 0.556600 -0.127141
N12   N     N_R   0.610380 0.918960 0.294560 -0.099833
N13   N     N_R   0.627920 0.921070 0.443400 -0.130900
N14   N     N_R   0.127920 0.578930 0.443400 -0.141102
N15   N     N_R   0.872080 0.421070 0.556600 -0.128863
N16   N     N_R   0.872080 0.578930 0.556600 -0.139467
N17   N     N_R   0.127920 0.421070 0.443400 -0.129429
N18   N     N_R   0.555090 0.077730 0.294590 -0.069891
N19   N     N_R   0.444910 0.922270 0.705410 -0.080088
N20   N     N_R   0.444910 0.077730 0.705410 -0.066933
N21   N     N_R   0.555090 0.922270 0.294590 -0.080158
N22   N     N_R   0.055090 0.577730 0.294590 -0.069729
N23   N     N_R   0.610380 0.081040 0.294560 -0.076699
N24   N     N_R   0.944910 0.422270 0.705410 -0.072166
N25   N     N_R   0.944910 0.577730 0.705410 -0.065441
N26   N     N_R   0.055090 0.422270 0.294590 -0.075964
N27   N     N_R   0.389620 0.918960 0.705440 -0.098925
N28   N     N_R   0.889620 0.581040 0.705440 -0.090510
N29   N     N_R   0.110380 0.418960 0.294560 -0.090937
N30   N     N_R   0.110380 0.581040 0.294560 -0.091069
N31   N     N_R   0.889620 0.418960 0.705440 -0.093644
N32   N     N_R   0.582320 0.079840 0.556630 -0.112760
Ni1   Ni    Ni4+2 0.382970 0.000000 0.629840 0.329263
Ni2   Ni    Ni4+2 0.617030 0.000000 0.370160 0.330060
Ni3   Ni    Ni4+2 0.882970 0.500000 0.629840 0.319769
Ni4   Ni    Ni4+2 0.117030 0.500000 0.370160 0.319031
Ni5   Ni    Ni4+2 0.514540 0.000000 0.629840 0.251535
Ni6   Ni    Ni4+2 0.485460 0.000000 0.370160 0.246728
Ni7   Ni    Ni4+2 0.014540 0.500000 0.629840 0.252262
Ni8   Ni    Ni4+2 0.985460 0.500000 0.370160 0.248036
O1    O     O_2   0.767775 0.967304 0.347055 -0.204280
O2    O     O_2   0.728414 0.772111 0.225247 -0.334025
O3    O     O_2   0.769592 0.901881 0.183631 -0.244079
O4    O     O_3   0.817814 0.819648 0.242189 -0.474701
O5    O     O_2   0.328824 0.611158 0.244677 -0.222342
O6    O     O_2   0.265045 0.582883 0.186160 -0.233037
O7    O     O_3   0.266512 0.721020 0.230471 -0.590525
O8    O     O_2   0.693955 0.338033 0.795784 -0.283903
O9    O     O_2   0.720723 0.469751 0.738910 -0.194029
O10   O     O_3   0.688507 0.389755 0.650503 -0.453160
O11   O     O_2   0.669883 0.616760 0.753302 -0.210985
O12   O     O_2   0.782880 0.037916 0.201293 -0.205884
O13   O     O_2   0.732115 0.580292 0.812810 -0.220061
O14   O     O_3   0.737394 0.719337 0.766687 -0.618210
O15   O     O_2   0.308620 0.340678 0.207971 -0.273659
O16   O     O_2   0.281710 0.473571 0.257611 -0.193393
O17   O     O_3   0.315857 0.398916 0.347826 -0.470110
O18   O     O_2   0.841483 0.907324 0.408271 -0.156665
O19   O     O_2   0.718290 0.938311 0.556377 -0.197930
O20   O     O_3   0.783528 0.874500 0.611368 -0.428527
O21   O     O_2   0.256110 0.052505 0.339474 -0.205061
O22   O     O_2   0.156210 0.034804 0.541610 -0.157707
O23   O     O_3   0.845922 0.081546 0.267021 -0.494087
O24   O     O_3   0.138730 0.122341 0.431246 -0.530620
O25   O     O_2   0.275900 0.944188 0.440539 -0.179954
O26   O     O_2   0.292675 0.871981 0.294581 -0.256366
O27   O     O_3   0.165456 0.892558 0.478424 -0.436870
O28   O     O_2   0.719547 0.037390 0.689147 -0.138923
O29   O     O_2   0.841846 0.027931 0.512694 -0.149421
O30   O     O_3   0.813033 0.120054 0.663238 -0.495145
O31   O     O_2   0.347028 0.401440 0.476094 -0.214465
O32   O     O_2   0.233219 0.397051 0.669449 -0.169238
O33   O     O_3   0.329258 0.299067 0.606115 -0.566408
O34   O     O_2   0.260276 0.763837 0.762343 -0.315342
O35   O     O_2   0.751354 0.535124 0.352960 -0.209848
O36   O     O_2   0.670236 0.511955 0.557196 -0.175881
O37   O     O_3   0.623256 0.583540 0.476070 -0.498457
O38   O     O_2   0.782939 0.424194 0.418215 -0.166987
O39   O     O_2   0.793942 0.344533 0.282660 -0.267669
O40   O     O_3   0.667996 0.376657 0.466539 -0.458030
O41   O     O_2   0.220675 0.562465 0.695614 -0.176310
O42   O     O_2   0.255674 0.509968 0.523470 -0.214321
O43   O     O_3   0.353435 0.552516 0.526553 -0.437320
O44   O     O_2   0.227858 0.891408 0.828001 -0.259993
O45   O     O_3   0.176675 0.840640 0.751594 -0.466864
O46   O     O_2   0.225184 0.976793 0.642644 -0.195064
O47   O     O_2   0.229310 0.021378 0.782217 -0.219425
O48   O     O_3   0.156142 0.095749 0.753181 -0.496636
S1    S     S_3+6 0.772354 0.043785 0.304329 0.047510
S2    S     S_3+6 0.194333 0.089542 0.446217 0.049869
S3    S     S_3+6 0.249740 0.878501 0.418343 0.090733
S4    S     S_3+6 0.785685 0.080634 0.602156 0.096894
S5    S     S_3+6 0.291451 0.351229 0.570425 0.061171
S6    S     S_3+6 0.692129 0.566051 0.467045 0.057293
S7    S     S_3+6 0.752053 0.358536 0.404889 0.076780
S8    S     S_3+6 0.272932 0.567799 0.570519 0.090977
S9    S     S_3+6 0.248390 0.840618 0.737670 -0.012558
S10   S     S_3+6 0.229271 0.044703 0.693334 0.037630
S11   S     S_3+6 0.745926 0.838421 0.261262 -0.021625
S12   S     S_3+6 0.263951 0.630457 0.263039 -0.011217
S13   S     S_3+6 0.729473 0.391901 0.699681 0.015550
S14   S     S_3+6 0.735450 0.630004 0.735042 -0.010009
S15   S     S_3+6 0.273631 0.397333 0.300660 0.012721
S16   S     S_3+6 0.773666 0.880637 0.517513 0.104870

loop_
_geom_bond_atom_site_label_1
_geom_bond_atom_site_label_2
_ccdc_geom_bond_type
C34   N27   A    
C31   C66   A    
N6    Ni8   S    
C76   I15   S    
C5    C75   S    
O2    S11   D    
N25   Ni7   S    
H32   O10   S    
C86   S7    S    
C1    I1    S    
N13   Ni2   S    
C89   H48   S    
C64   C90   S    
O32   S5    D    
C67   N30   A    
C48   H34   S    
C9    C18   D    
C40   S12   S    
C23   N23   A    
C72   C85   S    
N8    N17   A    
O25   S3    D    
C32   C68   A    
C33   N7    A    
C48   C54   A    
C37   N10   A    
O23   S1    S    
O5    S12   D    
N22   N30   A    
C81   S2    S    
N32   Ni5   S    
C49   C60   A    
C21   C25   S    
H40   O33   S    
N2    N10   A    
N14   Ni4   S    
C35   N8    A    
N8    Ni7   S    
C51   N25   A    
N4    Ni5   S    
C52   C59   A    
C45   I20   S    
C79   I17   S    
N2    Ni6   S    
N12   Ni2   S    
N12   N21   A    
H36   O20   S    
C31   I5    S    
C27   N32   A    
C39   S11   S    
N24   N31   A    
N26   N29   A    
O31   S5    D    
O42   S8    D    
C71   I9    S    
N29   Ni4   S    
C44   H1    S    
O34   S9    D    
N18   N23   A    
O24   S2    S    
C1    C53   A    
O17   S15   S    
C16   H26   S    
C73   C92   S    
C72   C88   S    
C4    C96   S    
C5    C88   S    
N4    N13   A    
C7    C87   S    
O22   S2    D    
O4    S11   S    
N9    N32   A    
C62   C92   S    
C56   I21   S    
C8    C79   S    
C39   N13   A    
H38   O27   S    
O30   S4    S    
C19   C22   S    
C9    C55   S    
O35   S6    D    
C46   N19   A    
C50   N24   A    
C75   C80   S    
O7    S12   S    
C4    C74   S    
C10   H18   S    
C50   H45   S    
C33   C69   A    
O43   S8    S    
C47   C53   A    
O40   S7    S    
C5    C85   S    
O21   S2    D    
C45   N28   A    
C47   H23   S    
C29   C64   A    
C81   C89   S    
N16   Ni3   S    
C7    H7    S    
N31   Ni3   S    
C39   C65   A    
N3    N11   A    
N7    Ni8   S    
C12   I12   S    
C24   H14   S    
C2    C72   S    
O37   S6    S    
O14   S14   S    
C37   C63   A    
C41   C68   A    
C38   C64   A    
N21   Ni6   S    
H42   O40   S    
O26   S3    D    
C45   C58   A    
C75   C94   S    
C5    H5    S    
N20   Ni5   S    
O28   S4    D    
O10   S13   S    
C6    C84   S    
N18   Ni6   S    
C52   H47   S    
N11   Ni1   S    
C2    C94   S    
C70   C93   S    
C52   N26   A    
C60   C67   A    
H27   O23   S    
O19   S16   D    
C34   I19   S    
O20   S16   S    
H33   O14   S    
C16   C58   S    
C49   N22   A    
C42   N16   A    
C6    C90   S    
C32   N6    A    
C11   C20   D    
C42   C69   A    
C82   C91   S    
C46   H12   S    
C36   C62   A    
C9    H19   S    
C74   C91   S    
C42   S14   S    
H29   O48   S    
C18   H10   S    
C79   C95   S    
C10   C57   S    
C83   C92   S    
C27   C62   A    
C25   H17   S    
C76   C93   S    
C34   C57   A    
H41   O37   S    
C85   C94   S    
H35   O17   S    
O1    S1    D    
C71   C89   S    
C61   C78   A    
N25   N28   A    
C7    C91   S    
C87   C96   S    
C73   I11   S    
O29   S4    D    
O3    S11   D    
C15   C61   S    
C13   C21   D    
C83   S4    S    
N5    Ni7   S    
C51   C58   A    
C37   S9    S    
C36   S1    S    
C29   N3    A    
N3    Ni6   S    
C23   C55   A    
C8    H8    S    
C30   N4    A    
C68   C95   S    
C21   H11   S    
C17   C59   S    
C8    C92   S    
C81   C90   S    
C19   H9    S    
C75   I14   S    
C17   H25   S    
C15   C24   D    
N23   Ni2   S    
N5    N14   A    
C69   C94   S    
C43   C70   A    
C14   H24   S    
C48   N21   A    
C35   C70   A    
C46   C57   A    
N30   Ni4   S    
C30   C65   A    
C74   C87   S    
N24   Ni7   S    
C18   C24   S    
C84   S5    S    
C49   H44   S    
H39   O30   S    
O36   S6    D    
C35   I8    S    
C17   C26   D    
C63   C91   S    
C11   H21   S    
O27   S3    S    
C26   H16   S    
O8    S13   D    
N26   Ni8   S    
C67   I22   S    
C65   C88   S    
C66   C96   S    
C56   N29   A    
C31   N5    A    
C10   C19   D    
N22   Ni8   S    
C16   C25   D    
O48   S10   S    
O46   S10   D    
C71   C84   S    
C33   I7    S    
C12   N12   A    
C82   S3    S    
C43   S15   S    
C6    C76   S    
O15   S15   D    
H43   O43   S    
C36   N9    A    
N1    N20   A    
H28   O45   S    
C32   I6    S    
C11   C53   S    
C76   C81   S    
C29   I3    S    
C3    C95   S    
N19   Ni5   S    
C56   C59   A    
C40   N14   A    
C30   I4    S    
C51   H46   S    
N27   Ni1   S    
O47   S10   D    
O6    S12   D    
C72   I10   S    
C14   C60   S    
C13   C54   S    
C77   C96   S    
C28   I2    S    
C15   H22   S    
C7    C77   S    
O11   S14   D    
N28   Ni3   S    
C23   I18   S    
C4    H4    S    
O12   S1    D    
C38   S10   S    
N19   N27   A    
N15   Ni3   S    
C80   C88   S    
H30   O4    S    
O16   S15   D    
C79   C83   S    
C44   C55   A    
C14   C22   D    
C71   C90   S    
C20   C26   S    
C77   C82   S    
C74   I13   S    
C12   C54   A    
O9    S13   D    
C38   N11   A    
C1    N1    A    
C40   C66   A    
O45   S9    S    
C3    C83   S    
C84   C93   S    
C6    H6    S    
O41   S8    D    
C89   C93   S    
C3    C73   S    
O18   S16   D    
C73   C86   S    
H37   O24   S    
C13   H20   S    
C2    C80   S    
C86   C95   S    
O13   S14   D    
C77   I16   S    
N1    Ni1   S    
C20   H13   S    
H31   O7    S    
C28   C63   A    
C3    H3    S    
O44   S9    D    
C4    C82   S    
C2    H2    S    
C8    C86   S    
C22   H15   S    
C78   N31   A    
N10   Ni1   S    
N17   Ni4   S    
C47   N20   A    
C50   C61   A    
C43   N17   A    
N9    Ni2   S    
C41   N15   A    
O33   S5    S    
C41   S13   S    
C80   S16   S    
C78   I23   S    
N6    N15   A    
C87   S8    S    
C85   S6    S    
O39   S7    D    
O38   S7    D    
C28   N2    A    
C27   I24   S    
C44   N18   A    
N7    N16   A    
