data_mof_unit_49438.cif
_audit_creation_date              2012-12-10T16:46:45-0500
_audit_creation_method            fapswitch 2.2
_symmetry_space_group_name_H-M    P1
_symmetry_Int_Tables_number       1
_space_group_crystal_system       triclinic
_cell_length_a                    15.86086
_cell_length_b                    8.681464
_cell_length_c                    7.476084
_cell_angle_alpha                 103.208177
_cell_angle_beta                  94.452867
_cell_angle_gamma                 92.533097
_cell_volume                      997.129546799

loop_
_atom_site_label
_atom_site_type_symbol
_atom_type_description
_atom_site_fract_x
_atom_site_fract_y
_atom_site_fract_z
_atom_type_partial_charge
C1    C     C_R   0.497378 0.199696 0.453084 0.881849
C2    C     C_3   0.952538 0.430277 0.669787 -0.015182
C3    C     C_3   0.917076 0.498736 0.504958 0.219017
C4    C     C_3   0.954777 0.672198 0.535482 -0.492741
C5    C     C_3   0.053138 0.677741 0.523639 0.317424
C6    C     C_1   0.824603 0.498508 0.497136 -0.026081
C7    C     C_1   0.175823 0.502771 0.510336 -0.021784
C8    C     C_1   0.251139 0.501313 0.506736 -0.173182
C9    C     C_2   0.496014 0.031537 0.426961 -0.369392
C10   C     C_2   0.503933 0.968448 0.572995 -0.363297
C11   C     C_R   0.340436 0.499896 0.502017 0.822286
C12   C     C_R   0.502579 0.800300 0.546907 0.872185
C13   C     C_R   0.659587 0.500020 0.498066 0.814435
C14   C     C_3   0.053361 0.435248 0.681435 0.282183
C15   C     C_3   0.041878 0.394973 0.330177 -0.472988
C16   C     C_3   0.944483 0.400744 0.320492 -0.421010
C17   C     C_1   0.749012 0.498969 0.494822 -0.168315
C18   C     C_3   0.083594 0.504401 0.514502 0.268835
Cu1   Cu    Cu3+1 0.509300 0.517380 0.684380 0.977841
Cu2   Cu    Cu3+1 0.490700 0.482620 0.315620 0.956282
H1    H     H_    0.511560 0.040597 0.713432 0.176589
H2    H     H_    0.939313 0.741176 0.672548 0.161450
N1    N     N_2   0.476670 0.456430 0.038530 -0.048930
N2    N     N_2   0.523330 0.543570 0.961470 -0.155173
O1    O     O_R   0.506050 0.286130 0.619770 -0.552422
O2    O     O_R   0.490330 0.256780 0.308370 -0.597567
O3    O     O_R   0.387300 0.514690 0.655770 -0.555784
O4    O     O_R   0.371580 0.485340 0.344370 -0.585357
O5    O     O_R   0.509670 0.743220 0.691630 -0.591883
O6    O     O_R   0.493950 0.713870 0.380230 -0.589720
O7    O     O_R   0.628420 0.514660 0.655630 -0.577255
O8    O     O_R   0.612700 0.485310 0.344230 -0.591280
N3    N     N_3   0.910754 0.274358 0.664616 -0.603368
H3    H     H_    0.931450 0.236537 0.782744 0.216247
H4    H     H_    0.922670 0.189293 0.547787 0.218042
N4    N     N_3   0.087454 0.535293 0.862179 -0.614370
H5    H     H_    0.055830 0.639050 0.900357 0.225765
H6    H     H_    0.152164 0.564578 0.863517 0.250816
H7    H     H_    0.932968 0.510162 0.796689 0.137431
H8    H     H_    0.923149 0.730494 0.432577 0.163266
H9    H     H_    0.488490 0.959357 0.286487 0.177264
N5    N     N_3   0.416802 0.351472 0.922608 -0.389964
H10   H     H_    0.427484 0.238911 0.943937 0.205991
H11   H     H_    0.357666 0.380316 0.968362 0.219511
H12   H     H_    0.566536 0.621835 0.051006 0.199014
N6    N     N_3   0.086717 0.277604 0.672256 -0.587704
H13   H     H_    0.076558 0.240825 0.793128 0.227469
H14   H     H_    0.058597 0.190186 0.561833 0.194051
H15   H     H_    0.065815 0.430052 0.208457 0.209348
H16   H     H_    0.059537 0.270733 0.313117 0.172958
H17   H     H_    0.914387 0.278342 0.286238 0.177838
H18   H     H_    0.922619 0.455762 0.205774 0.178487
N7    N     N_3   0.095154 0.791232 0.686799 -0.633035
H19   H     H_    0.069378 0.901659 0.698672 0.209470
H20   H     H_    0.159376 0.808613 0.669146 0.236015
N8    N     N_3   0.074272 0.732144 0.357864 -0.591708
H21   H     H_    0.066694 0.853931 0.379216 0.206147
H22   H     H_    0.031728 0.679837 0.244187 0.213987

loop_
_geom_bond_atom_site_label_1
_geom_bond_atom_site_label_2
_ccdc_geom_bond_type
C15   C18   S    
N1    N2    D    
C16   H17   S    
C13   C17   S    
C12   O5    A    
C4    H2    S    
C9    C10   D    
C14   C18   S    
C5    N8    S    
C9    H9    S    
Cu1   Cu2   S    
Cu2   N1    S    
C11   O3    A    
C3    C6    S    
Cu1   O7    S    
C7    C18   S    
N4    H6    S    
N3    H3    S    
C7    C8    T    
C14   N6    S    
Cu2   O6    S    
N7    H19   S    
C1    O1    A    
N1    N5    S    
N5    H11   S    
C11   O4    A    
C8    C11   S    
C2    C14   S    
N2    H12   S    
C10   C12   S    
C2    N3    S    
C5    N7    S    
N4    H5    S    
N3    H4    S    
N8    H22   S    
Cu1   N2    S    
C2    C3    S    
C15   H15   S    
C10   H1    S    
C14   N4    S    
C1    O2    A    
Cu1   O1    S    
N6    H14   S    
N5    H10   S    
N7    H20   S    
C3    C4    S    
Cu1   O5    S    
C16   H18   S    
C1    C9    S    
N8    H21   S    
Cu2   O8    S    
C15   H16   S    
C6    C17   T    
N6    H13   S    
C4    C5    S    
C5    C18   S    
Cu2   O4    S    
C12   O6    A    
C13   O8    A    
C2    H7    S    
C13   O7    A    
C15   C16   S    
C3    C16   S    
C4    H8    S    
Cu1   O3    S    
Cu2   O2    S    
