data_mof_unit_21388.cif
_audit_creation_date              2012-12-10T18:57:11-0500
_audit_creation_method            fapswitch 2.2
_symmetry_space_group_name_H-M    P1
_symmetry_Int_Tables_number       1
_space_group_crystal_system       triclinic
_cell_length_a                    10.693488
_cell_length_b                    9.814223
_cell_length_c                    10.695852
_cell_angle_alpha                 90.174339
_cell_angle_beta                  90.163029
_cell_angle_gamma                 88.47591
_cell_volume                      1122.10463088

loop_
_atom_site_label
_atom_site_type_symbol
_atom_type_description
_atom_site_fract_x
_atom_site_fract_y
_atom_site_fract_z
_atom_type_partial_charge
C1    C     C_R   0.259403 0.501997 0.501269 0.955410
C2    C     C_R   0.739638 0.497417 0.511068 0.938849
C3    C     C_R   0.431293 0.074313 0.585661 -0.051613
C4    C     C_R   0.568528 0.069789 0.414211 -0.095137
C5    C     C_R   0.431397 0.930268 0.585703 -0.098756
C6    C     C_R   0.568717 0.925721 0.414371 -0.073182
C7    C     C_R   0.496104 0.499738 0.260058 0.888469
C8    C     C_R   0.499205 0.500336 0.740187 0.864183
C9    C     C_R   0.438943 0.613133 0.064494 0.069890
C10   C     C_R   0.445909 0.615492 0.937148 0.047373
C11   C     C_R   0.479591 0.497030 0.128860 -0.117237
C12   C     C_R   0.486820 0.499268 0.871866 -0.080240
C13   C     C_R   0.501202 0.374315 0.064117 -0.222578
C14   C     C_R   0.504076 0.375332 0.935442 -0.234272
C15   C     C_3   0.477101 0.764427 0.934863 -0.020834
C16   C     C_3   0.469002 0.760618 0.077773 -0.016288
C17   C     C_R   0.063881 0.393701 0.458367 0.320365
C18   C     C_R   0.940339 0.377544 0.485739 0.364809
C19   C     C_R   0.871797 0.489739 0.533670 -0.315605
C20   C     C_R   0.125859 0.505070 0.510047 -0.301708
C21   C     C_R   0.931817 0.596076 0.596544 0.157578
C22   C     C_R   0.061619 0.606301 0.582668 0.146545
H1    H     H_    0.524223 0.279741 0.112003 0.169530
H2    H     H_    0.527780 0.281029 0.887012 0.169853
H3    H     H_    0.402520 0.828217 0.889314 0.164360
H4    H     H_    0.559150 0.776388 0.127400 0.179496
H5    H     H_    0.376353 0.130836 0.654046 0.130672
H6    H     H_    0.623479 0.122743 0.345900 0.146937
H7    H     H_    0.376923 0.877408 0.654343 0.126521
H8    H     H_    0.623827 0.869188 0.346192 0.131415
N1    N     N_R   0.500000 0.857200 0.500000 -0.081376
N2    N     N_R   0.500000 0.142810 0.500000 -0.084788
O1    O     O_R   0.316770 0.614620 0.499990 -0.628017
O2    O     O_R   0.683230 0.614620 0.500010 -0.613771
O3    O     O_R   0.316800 0.385290 0.500000 -0.572067
O4    O     O_R   0.683200 0.385290 0.500000 -0.595948
O5    O     O_R   0.500000 0.614690 0.316780 -0.628448
O6    O     O_R   0.500000 0.614690 0.683220 -0.630651
O7    O     O_R   0.500020 0.385360 0.316780 -0.629983
O8    O     O_R   0.499980 0.385360 0.683220 -0.643370
Zn1   Zn    Zn3+2 0.500000 0.653120 0.500000 0.920616
Zn2   Zn    Zn3+2 0.500000 0.346880 0.500000 0.951788
C23   C     C_3   0.608896 0.796246 0.889483 -0.930380
H9    H     H_    0.637320 0.895642 0.928784 0.239359
H10   H     H_    0.678063 0.716143 0.919176 0.246941
H11   H     H_    0.609476 0.805900 0.786363 0.273161
C24   C     C_3   0.360029 0.846497 0.131261 -0.930670
H12   H     H_    0.380265 0.956299 0.121294 0.243127
H13   H     H_    0.270903 0.825369 0.081990 0.242384
H14   H     H_    0.348630 0.823765 0.232130 0.273282
O9    O     O_3   0.126809 0.291476 0.392369 -0.600467
C25   C     C_3   0.123161 0.324620 0.264053 0.127581
H15   H     H_    0.164273 0.426248 0.247240 0.106201
H16   H     H_    0.024825 0.325456 0.229104 0.148511
C26   C     C_3   0.199683 0.217329 0.191312 -0.309832
H17   H     H_    0.298702 0.218456 0.223152 0.235288
H18   H     H_    0.162809 0.114582 0.210215 0.231341
C27   C     C_3   0.194242 0.244083 0.050835 -0.983134
H19   H     H_    0.096711 0.236238 0.016101 0.265323
H20   H     H_    0.254112 0.167361 0.001126 0.266842
H21   H     H_    0.228517 0.347303 0.029629 0.278549
O10   O     O_3   0.888319 0.251923 0.462306 -0.610448
C28   C     C_3   0.870686 0.183572 0.577750 0.154687
H22   H     H_    0.801832 0.102501 0.561929 0.151170
H23   H     H_    0.828986 0.252100 0.650833 0.131990
C29   C     C_3   0.992571 0.115725 0.626566 -0.354250
H24   H     H_    0.019953 0.028780 0.564760 0.233568
H25   H     H_    0.069607 0.189208 0.626886 0.242978
C30   C     C_3   0.976959 0.065277 0.760375 -1.019488
H26   H     H_    0.953506 0.152193 0.823610 0.269524
H27   H     H_    0.065906 0.016556 0.793334 0.269878
H28   H     H_    0.901407 0.990188 0.765374 0.270643
C31   C     C_3   0.859411 0.689174 0.685449 -0.860748
H29   H     H_    0.765547 0.650842 0.706761 0.241548
H30   H     H_    0.906556 0.692420 0.777937 0.227127
H31   H     H_    0.849831 0.792975 0.645150 0.249056
C32   C     C_3   0.131240 0.721714 0.644849 -0.848229
H32   H     H_    0.169809 0.789055 0.572160 0.251478
H33   H     H_    0.073007 0.789239 0.704645 0.238186
H34   H     H_    0.207513 0.679586 0.705234 0.229128

loop_
_geom_bond_atom_site_label_1
_geom_bond_atom_site_label_2
_ccdc_geom_bond_type
C29   H25   S    
C26   H17   S    
C28   H23   S    
C31   H29   S    
O4    Zn2   S    
C17   O9    S    
C1    O1    A    
C24   H13   S    
C32   H32   S    
C7    C11   S    
C19   C21   A    
C9    C16   S    
C10   C15   S    
C15   H3    S    
C29   C30   S    
C27   H20   S    
C15   C16   S    
C21   C31   S    
C17   C20   A    
C13   H1    S    
C18   C19   A    
C14   H2    S    
C30   H27   S    
O3    Zn2   S    
O7    Zn2   S    
C9    C10   A    
C25   C26   S    
C2    O2    A    
C27   H21   S    
O8    Zn2   S    
C29   H24   S    
C28   C29   S    
C13   C14   A    
C31   H30   S    
C30   H26   S    
O2    Zn1   S    
C8    O6    A    
C16   C24   S    
C4    H6    S    
C25   H16   S    
C24   H14   S    
C5    H7    S    
C32   H33   S    
C16   H4    S    
O9    C25   S    
O6    Zn1   S    
C4    C6    A    
C18   O10   S    
C27   H19   S    
C30   H28   S    
C23   H9    S    
O10   C28   S    
C23   H10   S    
C24   H12   S    
C8    C12   S    
C17   C18   A    
C7    O5    A    
C9    C11   A    
C4    N2    A    
C10   C12   A    
C6    H8    S    
C12   C14   A    
C26   H18   S    
C31   H31   S    
C25   H15   S    
C1    O3    A    
C32   H34   S    
C2    O4    A    
C1    C20   S    
C7    O7    A    
N1    Zn1   S    
C2    C19   S    
C22   C32   S    
C20   C22   A    
C3    C5    A    
O1    Zn1   S    
C3    H5    S    
C15   C23   S    
C11   C13   A    
C6    N1    A    
O5    Zn1   S    
C3    N2    A    
C23   H11   S    
C28   H22   S    
C26   C27   S    
N2    Zn2   S    
C8    O8    A    
C21   C22   A    
C5    N1    A    
