data_mof_unit_63693.cif
_audit_creation_date              2013-03-05T15:39:57-0500
_audit_creation_method            fapswitch 2.2
_symmetry_space_group_name_H-M    P1
_symmetry_Int_Tables_number       1
_space_group_crystal_system       triclinic
_cell_length_a                    16.039708
_cell_length_b                    16.283377
_cell_length_c                    30.102348
_cell_angle_alpha                 92.428559
_cell_angle_beta                  91.872689
_cell_angle_gamma                 89.106811
_cell_volume                      7850.0985517

loop_
_atom_site_label
_atom_site_type_symbol
_atom_site_description
_atom_site_fract_x
_atom_site_fract_y
_atom_site_fract_z
_atom_type_partial_charge
O1    O     O_R   0.591150 0.068800 0.545430 -0.607207
O2    O     O_R   0.408850 0.931200 0.454570 -0.600087
O3    O     O_R   0.588750 0.931200 0.454570 -0.593471
O4    O     O_R   0.411250 0.068800 0.545430 -0.602149
O5    O     O_R   0.590220 0.070350 0.455860 -0.611368
O6    O     O_R   0.409780 0.929650 0.544140 -0.604627
O7    O     O_R   0.589680 0.929650 0.544140 -0.589699
O8    O     O_R   0.410320 0.070350 0.455860 -0.609878
C1    C     C_R   0.618811 0.999320 0.559567 0.882545
C2    C     C_R   0.382292 0.000786 0.440353 0.888476
C3    C     C_R   0.615826 0.999545 0.440852 0.887184
C4    C     C_R   0.382705 0.000796 0.558628 0.888739
Zn1   Zn    Zn3+2 0.500990 0.093570 0.500870 1.066459
Zn2   Zn    Zn3+2 0.499010 0.906430 0.499130 1.085277
C5    C     C_R   0.066564 0.065815 0.322453 -0.092152
C6    C     C_R   0.893086 0.909920 0.702674 -0.050313
C7    C     C_R   0.134655 0.062073 0.353078 -0.048587
C8    C     C_R   0.818334 0.924072 0.678002 -0.094114
C9    C     C_R   0.907128 0.948750 0.312073 -0.088743
C10   C     C_R   0.167556 0.038351 0.729424 -0.029176
C11   C     C_R   0.839214 0.938923 0.339694 -0.065317
C12   C     C_R   0.224099 0.049190 0.694733 -0.115406
C13   C     C_R   0.048893 0.163614 0.224108 -0.027383
C14   C     C_R   0.937904 0.882291 0.802599 -0.052981
C15   C     C_R   0.048505 0.229102 0.194599 -0.037725
C16   C     C_R   0.929616 0.816336 0.830839 -0.015742
C17   C     C_R   0.917363 0.880357 0.208408 -0.001988
C18   C     C_R   0.052523 0.049611 0.831950 -0.124876
C19   C     C_R   0.925378 0.813026 0.177723 0.001657
C20   C     C_R   0.051801 0.120346 0.861000 -0.054898
C21   C     C_R   0.035291 0.945913 0.173569 -0.090388
C22   C     C_R   0.955540 0.119971 0.781062 0.013961
C23   C     C_R   0.035415 0.881631 0.140650 -0.023975
C24   C     C_R   0.965395 0.193445 0.808026 0.004746
C25   C     C_R   0.925265 0.107646 0.182670 -0.107416
C26   C     C_R   0.082891 0.836320 0.788735 -0.070414
C27   C     C_R   0.927743 0.173181 0.153821 -0.019234
C28   C     C_R   0.068980 0.766681 0.813674 -0.046798
C29   C     C_R   0.134070 0.956175 0.275772 -0.030265
C30   C     C_R   0.949127 0.038509 0.678615 -0.089131
C31   C     C_R   0.202815 0.957889 0.306461 -0.008540
C32   C     C_R   0.879114 0.045346 0.648593 -0.062795
C33   C     C_R   0.839562 0.075391 0.283428 -0.061963
C34   C     C_R   0.113980 0.918705 0.686004 -0.135449
C35   C     C_R   0.774745 0.065236 0.313529 -0.050008
C36   C     C_R   0.144944 0.950776 0.647680 -0.107944
C37   C     C_3   0.984032 0.018929 0.248226 -0.120716
C38   C     C_3   0.022063 0.973255 0.751186 -0.017629
C39   C     C_R   0.063959 0.013916 0.281359 -0.036442
C40   C     C_R   0.953008 0.974448 0.711021 -0.121918
C41   C     C_R   0.200967 0.008320 0.344890 0.008944
C42   C     C_R   0.812957 0.990268 0.649853 -0.036840
C43   C     C_R   0.907622 0.014750 0.280449 -0.035684
C44   C     C_R   0.106698 0.973292 0.725086 -0.010914
C45   C     C_R   0.775659 0.997999 0.340816 0.075927
C46   C     C_R   0.210187 0.006534 0.653405 0.074580
C47   C     C_R   0.984576 0.100443 0.220113 -0.009323
C48   C     C_R   0.014336 0.893846 0.779239 -0.016899
C49   C     C_R   0.990456 0.231024 0.159249 -0.022293
C50   C     C_R   0.995709 0.761179 0.836878 -0.047394
C51   C     C_R   0.979993 0.945121 0.211111 -0.006995
C52   C     C_R   0.010893 0.049335 0.787739 -0.076738
C53   C     C_R   0.983530 0.814778 0.144474 -0.010119
C54   C     C_R   0.011520 0.192158 0.848156 -0.090111
C55   C     C_1   0.718111 0.996882 0.375905 0.069929
C56   C     C_1   0.269706 0.008411 0.619129 0.148813
C57   C     C_1   0.671741 0.997179 0.405904 -0.065647
C58   C     C_1   0.320836 0.005238 0.591096 -0.049562
C59   C     C_1   0.267290 0.003575 0.377625 0.029780
C60   C     C_1   0.742365 0.997231 0.619096 0.091844
C61   C     C_1   0.320328 0.001236 0.406158 -0.071909
C62   C     C_1   0.685294 0.999405 0.592255 -0.050913
C63   C     C_1   0.998515 0.289632 0.125691 0.058202
C64   C     C_1   0.993574 0.705406 0.872085 0.038127
C65   C     C_1   0.002079 0.335941 0.096275 -0.063686
C66   C     C_1   0.995454 0.661721 0.902792 -0.054224
C67   C     C_1   0.987890 0.747395 0.112735 0.036937
C68   C     C_1   0.009667 0.261435 0.879813 0.030374
C69   C     C_1   0.990656 0.690927 0.086449 -0.067654
C70   C     C_1   0.008497 0.315066 0.908430 -0.073428
O9    O     O_R   0.065580 0.596830 0.043410 -0.608752
O10   O     O_R   0.934420 0.403170 0.956590 -0.601585
O11   O     O_R   0.928990 0.412290 0.044840 -0.606099
O12   O     O_R   0.071010 0.587710 0.955160 -0.597411
O13   O     O_R   0.069930 0.417270 0.047240 -0.603476
O14   O     O_R   0.930070 0.582730 0.952760 -0.612733
O15   O     O_R   0.924640 0.591850 0.041010 -0.602933
O16   O     O_R   0.075360 0.408150 0.958990 -0.598024
C71   C     C_R   0.993714 0.623792 0.055649 0.893304
C72   C     C_R   0.006158 0.377633 0.942957 0.881297
C73   C     C_R   0.000633 0.390237 0.061095 0.896055
C74   C     C_R   0.999088 0.609680 0.938908 0.885536
Zn3   Zn    Zn3+2 0.094790 0.503330 0.001610 1.072997
Zn4   Zn    Zn3+2 0.905210 0.496670 0.998390 1.065314
C75   C     C_2   0.136553 0.114336 0.395150 0.943369
O17   O     O_2   0.138229 0.189206 0.393632 -0.573342
O18   O     O_R   0.137514 0.077156 0.436189 -0.759108
H1    H     H_    0.139429 0.118692 0.462246 0.365949
C76   C     C_2   0.750125 0.862231 0.677978 0.961089
O19   O     O_2   0.730827 0.833313 0.712967 -0.496542
O20   O     O_R   0.710256 0.835072 0.638147 -0.782120
H2    H     H_    0.665940 0.792827 0.642789 0.364060
C77   C     C_2   0.973728 0.884449 0.316890 0.865984
O21   O     O_2   0.029947 0.895148 0.344849 -0.587681
O22   O     O_R   0.962232 0.806123 0.297065 -0.794834
H3    H     H_    0.005614 0.764685 0.307546 0.397513
C78   C     C_2   0.180346 0.092256 0.769927 0.917388
O23   O     O_2   0.228771 0.070944 0.799544 -0.492777
O24   O     O_R   0.147481 0.172201 0.771246 -0.794759
H4    H     H_    0.165777 0.205116 0.799111 0.359730
C79   C     C_2   0.121913 0.165169 0.255707 0.422213
H5    H     H_    0.124113 0.210254 0.283167 0.155142
O25   O     O_2   0.184845 0.124669 0.248116 -0.534220
C80   C     C_2   0.868733 0.943477 0.803644 0.365680
H6    H     H_    0.875546 0.000227 0.823382 0.050311
O26   O     O_2   0.800982 0.927521 0.786055 -0.468090
C81   C     C_2   0.839109 0.878106 0.233705 0.438986
H7    H     H_    0.829992 0.828828 0.256089 0.141104
O27   O     O_2   0.780294 0.924161 0.226246 -0.539467
C82   C     C_2   0.092527 0.977088 0.852585 0.540350
H8    H     H_    0.054836 0.926633 0.861865 0.052753
O28   O     O_2   0.165397 0.978454 0.865692 -0.430404
C83   C     C_2   0.096426 0.011910 0.167887 0.496536
H9    H     H_    0.143760 0.024880 0.193115 0.161108
O29   O     O_2   0.094443 0.051471 0.134266 -0.503256
C84   C     C_2   0.876200 0.114990 0.753592 0.387306
H10   H     H_    0.840008 0.059866 0.751560 0.106801
O30   O     O_2   0.849666 0.172487 0.732270 -0.478776
C85   C     C_2   0.859947 0.046328 0.170761 0.481776
H11   H     H_    0.805956 0.042501 0.190559 0.173435
O31   O     O_2   0.863401 0.004365 0.136229 -0.501091
C86   C     C_2   0.173208 0.847871 0.779649 0.425368
H12   H     H_    0.209713 0.797007 0.765732 0.126295
O32   O     O_2   0.210269 0.910211 0.790667 -0.484585
C87   C     C_2   0.137644 0.885265 0.243010 0.828961
O33   O     O_2   0.092831 0.826245 0.246548 -0.581292
O34   O     O_R   0.199380 0.881764 0.211181 -0.747028
H13   H     H_    0.198691 0.828418 0.192551 0.375017
C88   C     C_2   0.016111 0.099348 0.673255 0.939526
O35   O     O_2   0.051512 0.099851 0.637907 -0.613868
O36   O     O_R   0.030287 0.162912 0.704821 -0.710735
H14   H     H_    0.072348 0.203727 0.694982 0.384350
C89   C     C_2   0.832086 0.153064 0.258787 0.882967
O37   O     O_2   0.771014 0.164615 0.234260 -0.576305
O38   O     O_R   0.888261 0.216700 0.267222 -0.759451
H15   H     H_    0.874406 0.266717 0.249284 0.369475
C90   C     C_2   0.134946 0.828708 0.687851 0.955169
O39   O     O_2   0.202200 0.803562 0.674144 -0.591188
O40   O     O_R   0.080868 0.772218 0.704217 -0.788836
H16   H     H_    0.103790 0.713818 0.702643 0.382083
C91   C     C_2   0.835818 0.866424 0.368790 0.456183
H17   H     H_    0.892168 0.841891 0.384477 0.113821
O41   O     O_2   0.770070 0.832080 0.374420 -0.520225
C92   C     C_2   0.294366 0.108725 0.701315 0.485732
H18   H     H_    0.289670 0.160781 0.724806 0.099676
O42   O     O_2   0.359280 0.099551 0.681515 -0.543217
C93   C     C_2   0.111035 0.296400 0.199378 0.912402
O43   O     O_2   0.185755 0.280328 0.198985 -0.537613
O44   O     O_R   0.083430 0.378203 0.203000 -0.777600
H19   H     H_    0.131172 0.418382 0.205500 0.366789
C94   C     C_2   0.852507 0.806848 0.856336 0.951791
O45   O     O_2   0.787015 0.788505 0.836754 -0.494905
O46   O     O_R   0.855716 0.817910 0.902659 -0.791407
H20   H     H_    0.799692 0.809282 0.916258 0.367817
C95   C     C_2   0.870357 0.739921 0.178960 0.900469
O47   O     O_2   0.795028 0.747288 0.172322 -0.554296
O48   O     O_R   0.905877 0.662680 0.186654 -0.762340
H21   H     H_    0.862775 0.617753 0.186249 0.364019
C96   C     C_2   0.092023 0.119131 0.906551 0.991877
O49   O     O_2   0.150028 0.164923 0.916555 -0.563674
O50   O     O_R   0.062916 0.065745 0.937578 -0.775313
H22   H     H_    0.095040 0.070521 0.967121 0.377375
C97   C     C_2   0.092597 0.881924 0.102385 0.985294
O51   O     O_2   0.167738 0.889800 0.109009 -0.564156
O52   O     O_R   0.059853 0.872236 0.058886 -0.753593
H23   H     H_    0.104484 0.872999 0.035829 0.366684
C98   C     C_2   0.923451 0.271847 0.795978 1.013471
O53   O     O_2   0.942203 0.304999 0.762076 -0.507048
O54   O     O_R   0.863676 0.307961 0.823696 -0.793846
H24   H     H_    0.840147 0.361355 0.812071 0.361855
C99   C     C_2   0.863556 0.181419 0.117054 0.979259
O55   O     O_2   0.789666 0.187451 0.125663 -0.557465
O56   O     O_R   0.888021 0.181606 0.072899 -0.758279
H25   H     H_    0.838968 0.187643 0.051125 0.364485
C100  C     C_2   0.135172 0.702278 0.819461 0.892557
O57   O     O_2   0.153646 0.656669 0.787886 -0.601280
O58   O     O_R   0.175911 0.694451 0.860864 -0.760265
H26   H     H_    0.219292 0.648503 0.860590 0.365409
C101  C     C_2   0.276291 0.901946 0.300367 0.947056
O59   O     O_2   0.328459 0.917284 0.273307 -0.515025
O60   O     O_R   0.286042 0.833229 0.326420 -0.762459
H27   H     H_    0.338605 0.800355 0.319583 0.364587
C102  C     C_2   0.872759 0.113027 0.616625 0.984610
O61   O     O_2   0.880453 0.184557 0.630022 -0.527734
O62   O     O_R   0.857597 0.094472 0.571330 -0.779948
H28   H     H_    0.854285 0.145381 0.553062 0.362955
C103  C     C_2   0.706058 0.127808 0.318781 0.963861
O63   O     O_2   0.722398 0.199734 0.328125 -0.566397
O64   O     O_R   0.622980 0.103282 0.314034 -0.751077
H29   H     H_    0.582112 0.150704 0.318831 0.366820
C104  C     C_2   0.116120 0.916653 0.602798 0.989527
O65   O     O_2   0.069008 0.858161 0.599818 -0.547467
O66   O     O_R   0.138537 0.954181 0.564064 -0.779363
H30   H     H_    0.113747 0.926126 0.536070 0.371452
C105  C     C_2   0.999285 0.124062 0.337162 0.927902
O67   O     O_2   0.948768 0.101685 0.363542 -0.601655
O68   O     O_R   0.004325 0.207449 0.328832 -0.755959
H31   H     H_    0.961065 0.242126 0.345163 0.397774
C106  C     C_2   0.918017 0.822064 0.699887 1.015526
O69   O     O_2   0.940339 0.792844 0.664008 -0.530938
O70   O     O_R   0.901631 0.769796 0.734029 -0.738403
H32   H     H_    0.917737 0.710497 0.726535 0.369127

loop_
_geom_bond_atom_site_label_1
_geom_bond_atom_site_label_2
_geom_bond_distance
_ccdc_geom_bond_type
C56   C58   1.194804 T    
O66   H30   1.013913 S    
C19   C53   1.391703 A    
C42   C60   1.445168 S    
C14   C80   1.479791 S    
O20   H2    1.013830 S    
O10   Zn4   1.993664 S    
C20   C54   1.390236 A    
C17   C19   1.410426 A    
C78   O24   1.396304 S    
C104  O65   1.223526 D    
C21   C51   1.459838 A    
O22   H3    1.013945 S    
C33   C89   1.494394 S    
C75   O17   1.222686 D    
C1    C62   1.427132 S    
O50   H22   1.013836 S    
C7    C41   1.388520 A    
O18   H1    1.013778 S    
O13   C73   1.290070 A    
C8    C42   1.398942 A    
C87   O33   1.219354 D    
C29   C31   1.415008 A    
C29   C87   1.488051 S    
C105  O67   1.222983 D    
C5    C39   1.468116 A    
C38   C44   1.590577 S    
C4    C58   1.414367 S    
C95   O47   1.223087 D    
C64   C66   1.189356 T    
C11   C91   1.502159 S    
C6    C106  1.479088 S    
C9    C11   1.406939 A    
C6    C40   1.443709 A    
O5    C3    1.286588 A    
C26   C48   1.462287 A    
C81   O27   1.217022 D    
O44   H19   1.013804 S    
O38   H15   1.013944 S    
C68   C70   1.200755 T    
C30   C88   1.489913 S    
C100  O58   1.397933 S    
O6    Zn2   2.023260 S    
C22   C84   1.496187 S    
C89   O37   1.224261 D    
O15   Zn4   1.991378 S    
C99   O55   1.223004 D    
C34   C90   1.501347 S    
C89   O38   1.393519 S    
C96   O49   1.223349 D    
C19   C95   1.495298 S    
O4    Zn1   2.055224 S    
C59   C61   1.190331 T    
C17   C51   1.465713 A    
C90   O39   1.225805 D    
C94   O46   1.397779 S    
C9    C77   1.492086 S    
C33   C43   1.462914 A    
C36   C104  1.500470 S    
C79   O25   1.219678 D    
C79   H5    1.082109 S    
C82   O28   1.221556 D    
C86   H12   1.084358 S    
C102  O62   1.398276 S    
C78   O23   1.221119 D    
C21   C23   1.410590 A    
C7    C75   1.495344 S    
O4    C4    1.287883 A    
C23   C97   1.495901 S    
C49   C63   1.428988 S    
C92   O42   1.220585 D    
C65   C73   1.407400 S    
C37   C43   1.591688 S    
C10   C78   1.482455 S    
O9    C71   1.286661 A    
C2    C61   1.407469 S    
C9    C43   1.465837 A    
C38   C40   1.613332 S    
O64   H29   1.013789 S    
C93   O44   1.398107 S    
C87   O34   1.399077 S    
C93   O43   1.223065 D    
C63   C65   1.190476 T    
C103  O63   1.223260 D    
O36   H14   1.014032 S    
O13   Zn3   2.055677 S    
C104  O66   1.398882 S    
C45   C55   1.426149 S    
C3    C57   1.403467 S    
C80   H6    1.082252 S    
O7    C1    1.295643 A    
C97   O52   1.398366 S    
O14   Zn4   2.055679 S    
C23   C53   1.391394 A    
C90   O40   1.390123 S    
O60   H27   1.013740 S    
C83   H9    1.073070 S    
O3    C3    1.289724 A    
C10   C44   1.450659 A    
C18   C82   1.484805 S    
C99   O56   1.398270 S    
O48   H21   1.013777 S    
C11   C45   1.390909 A    
C12   C46   1.411874 A    
C34   C36   1.395288 A    
C55   C57   1.188313 T    
C97   O51   1.223006 D    
O11   Zn4   2.024863 S    
O7    Zn2   1.984623 S    
O68   H31   1.014163 S    
C22   C24   1.424931 A    
C32   C102  1.493647 S    
O56   H25   1.013756 S    
C20   C96   1.496947 S    
C15   C49   1.391906 A    
C37   C47   1.604389 S    
O9    Zn3   1.993669 S    
C38   C52   1.633381 S    
O52   H23   1.013825 S    
C91   H17   1.084594 S    
C27   C99   1.495562 S    
C24   C54   1.396534 A    
C106  O69   1.223713 D    
C67   C69   1.188638 T    
O1    C1    1.292589 A    
C77   O22   1.397304 S    
C6    C8    1.410655 A    
C5    C105  1.491265 S    
C33   C35   1.417339 A    
C92   H18   1.083932 S    
C27   C49   1.389757 A    
O3    Zn2   2.055229 S    
C66   C74   1.405644 S    
C86   O32   1.212931 D    
C28   C50   1.392592 A    
C14   C48   1.451736 A    
C76   O20   1.398544 S    
O16   C72   1.293749 A    
C98   O53   1.222784 D    
O15   C71   1.287957 A    
C15   C93   1.496313 S    
O1    Zn1   1.988500 S    
C8    C76   1.498403 S    
C10   C12   1.423614 A    
C36   C46   1.397759 A    
O11   C73   1.286139 A    
O2    C2    1.289434 A    
C54   C68   1.446110 S    
C82   H8    1.079100 S    
C25   C27   1.405918 A    
C16   C50   1.391091 A    
C85   H11   1.071267 S    
C53   C67   1.426461 S    
C17   C81   1.490938 S    
C50   C64   1.426214 S    
C13   C47   1.466732 A    
C25   C85   1.483518 S    
O16   Zn3   1.991373 S    
C84   O30   1.220788 D    
C26   C86   1.499196 S    
C29   C39   1.463874 A    
O5    Zn1   2.023263 S    
C12   C92   1.500852 S    
O8    C2    1.288586 A    
C14   C16   1.408164 A    
C30   C32   1.424283 A    
C37   C51   1.606479 S    
C80   O26   1.219964 D    
C88   O35   1.222729 D    
C75   O18   1.398107 S    
C38   C48   1.582663 S    
O54   H24   1.013761 S    
C37   C39   1.601563 S    
C28   C100  1.491986 S    
C13   C79   1.484345 S    
O34   H13   1.013806 S    
C16   C94   1.490213 S    
C81   H7    1.084077 S    
O10   C72   1.291055 A    
C76   O19   1.222621 D    
C31   C101  1.489600 S    
C25   C47   1.458382 A    
C103  O64   1.398184 S    
C22   C52   1.458672 A    
C18   C20   1.416471 A    
O14   C74   1.285607 A    
O40   H16   1.013959 S    
O6    C4    1.294129 A    
C88   O36   1.391329 S    
C100  O57   1.222497 D    
C41   C59   1.429718 S    
C94   O45   1.222520 D    
C84   H10   1.075037 S    
C46   C56   1.429990 S    
C26   C28   1.410737 A    
C106  O70   1.395882 S    
C98   O54   1.397983 S    
O12   Zn3   2.024864 S    
C91   O41   1.221354 D    
C70   C72   1.425219 S    
C101  O59   1.222449 D    
O2    Zn2   1.988502 S    
C69   C71   1.404465 S    
O46   H20   1.013749 S    
C83   O29   1.221771 D    
C21   C83   1.484954 S    
O62   H28   1.013787 S    
O8    Zn1   1.984624 S    
C34   C44   1.450834 A    
C30   C40   1.457335 A    
O58   H26   1.013733 S    
C13   C15   1.416313 A    
C35   C45   1.395912 A    
C95   O48   1.397812 S    
C102  O61   1.223090 D    
O24   H4    1.013751 S    
C77   O21   1.222586 D    
C24   C98   1.486781 S    
C60   C62   1.202113 T    
O12   C74   1.289660 A    
O70   H32   1.013688 S    
C101  O60   1.397300 S    
C5    C7    1.408281 A    
C105  O68   1.395246 S    
C35   C103  1.496533 S    
C31   C41   1.390803 A    
C32   C42   1.402482 A    
C85   O31   1.221841 D    
C96   O50   1.398544 S    
C18   C52   1.469211 A    
