data_mof_unit_39744.cif
_audit_creation_date              2012-12-11T15:12:04-0500
_audit_creation_method            fapswitch 2.2
_symmetry_space_group_name_H-M    P1
_symmetry_Int_Tables_number       1
_space_group_crystal_system       triclinic
_cell_length_a                    8.307904
_cell_length_b                    17.499662
_cell_length_c                    19.084725
_cell_angle_alpha                 95.247628
_cell_angle_beta                  94.302648
_cell_angle_gamma                 95.829958
_cell_volume                      2738.74855719

loop_
_atom_site_label
_atom_site_type_symbol
_atom_type_description
_atom_site_fract_x
_atom_site_fract_y
_atom_site_fract_z
_atom_type_partial_charge
Ba1   Ba    Ba6+2 0.157360 0.537160 0.466280 1.742340
Ba2   Ba    Ba6+2 0.652820 0.462830 0.533660 1.759739
C1    C     C_3   0.531936 0.784905 0.233516 -0.220963
C2    C     C_R   0.864314 0.748673 0.513235 0.031082
C3    C     C_R   0.918512 0.829864 0.524190 0.312798
C4    C     C_3   0.954402 0.747888 0.310040 0.353216
C5    C     C_R   0.820414 0.883497 0.496027 0.013778
C6    C     C_R   0.666044 0.856716 0.462160 -0.280599
C7    C     C_R   0.612572 0.777511 0.452998 -0.022806
C8    C     C_R   0.883290 0.172070 0.483480 0.419003
C9    C     C_R   0.941721 0.252943 0.491071 0.057695
C10   C     C_R   0.192422 0.223667 0.551821 0.011454
C11   C     C_R   0.135762 0.144814 0.545288 -0.178241
C12   C     C_3   0.453285 0.728128 0.279915 0.728760
C13   C     C_R   0.979617 0.118510 0.513025 0.030368
C14   C     C_1   0.922693 0.035604 0.507297 0.098333
C15   C     C_1   0.876138 0.966570 0.502554 0.143182
C16   C     C_3   0.993642 0.827787 0.285631 0.213951
C17   C     C_R   0.092620 0.276974 0.527707 -0.216740
C18   C     C_R   0.609528 0.534677 0.299455 -0.231208
C19   C     C_R   0.457242 0.495718 0.277902 0.064265
C20   C     C_R   0.399059 0.489211 0.206319 0.018131
C21   C     C_R   0.496311 0.519116 0.155477 0.082570
C22   C     C_R   0.653204 0.556029 0.178282 -0.109375
C23   C     C_3   0.503079 0.701753 0.643215 0.626073
C24   C     C_R   0.709704 0.562873 0.250066 0.049411
C25   C     C_R   0.457302 0.572797 0.038507 -0.198008
C26   C     C_R   0.406094 0.565913 0.965650 0.395174
C27   C     C_R   0.336022 0.493804 0.931684 0.019942
C28   C     C_3   0.733983 0.350190 0.315987 0.712879
C29   C     C_R   0.313846 0.430955 0.971964 -0.206533
C30   C     C_R   0.363064 0.438008 0.044884 0.410875
C31   C     C_R   0.437333 0.509549 0.078658 0.015370
C32   C     C_R   0.134673 0.442939 0.827822 -0.168417
C33   C     C_R   0.089874 0.432459 0.754832 -0.035773
C34   C     C_3   0.438566 0.779739 0.657902 -0.328929
C35   C     C_R   0.345479 0.501533 0.732884 0.040743
C36   C     C_R   0.391858 0.511855 0.805579 -0.040884
C37   C     C_R   0.287242 0.482484 0.854059 0.035939
C38   C     C_R   0.198209 0.459197 0.707837 -0.241705
C39   C     C_3   0.656384 0.300695 0.249850 0.266192
C40   C     C_3   0.033637 0.623530 0.677071 0.304845
C41   C     C_3   0.066096 0.643340 0.756513 -0.369248
C42   C     C_3   0.232119 0.299390 0.358530 0.676257
C43   C     C_3   0.152000 0.225534 0.313364 1.025531
C44   C     C_3   0.898825 0.255555 0.737726 0.740812
C45   C     C_3   0.836881 0.187535 0.777229 0.225078
C46   C     C_3   0.366234 0.262065 0.721633 0.825525
C47   C     C_3   0.321065 0.199901 0.770218 -0.344761
C48   C     C_R   0.714746 0.724202 0.475192 0.140807
H1    H     H_    0.581619 0.250004 0.266050 0.034355
H2    H     H_    0.552585 0.698638 0.304667 -0.114957
H3    H     H_    0.604555 0.754354 0.195560 0.055389
H4    H     H_    0.440428 0.675248 0.592134 0.040990
H5    H     H_    0.613247 0.830536 0.266833 0.030583
H6    H     H_    0.021148 0.278743 0.763010 -0.131214
H7    H     H_    0.920859 0.142171 0.772553 0.030442
H8    H     H_    0.251351 0.281580 0.699182 -0.211063
H9    H     H_    0.251517 0.223219 0.813260 0.075500
H10   H     H_    0.432368 0.179082 0.794213 0.122877
H11   H     H_    0.034674 0.743331 0.358323 0.098911
H12   H     H_    0.752641 0.279332 0.218167 0.117325
H13   H     H_    0.213509 0.104083 0.565052 0.095502
H14   H     H_    0.138238 0.337559 0.532967 0.037506
H15   H     H_    0.507605 0.544172 0.824153 0.117375
H16   H     H_    0.511050 0.628200 0.064357 0.087856
H17   H     H_    0.825821 0.741511 0.322793 -0.125210
H18   H     H_    0.279581 0.459358 0.190328 0.124915
H19   H     H_    0.260867 0.375444 0.946058 0.086133
H20   H     H_    0.048651 0.423237 0.863962 0.093237
H21   H     H_    0.732924 0.577104 0.140262 0.072187
H22   H     H_    0.161185 0.453712 0.651849 0.043468
H23   H     H_    0.141466 0.601276 0.655524 -0.033418
H24   H     H_    0.655105 0.537871 0.354307 0.104337
H25   H     H_    0.120058 0.833908 0.270101 0.142636
H26   H     H_    0.637088 0.372312 0.346445 -0.031930
H27   H     H_    0.306638 0.634693 0.268222 0.312344
H28   H     H_    0.506909 0.305899 0.169420 0.331327
H29   H     H_    0.357556 0.324950 0.448080 0.290612
H30   H     H_    0.101745 0.280152 0.230139 0.285361
H31   H     H_    0.014305 0.132608 0.326794 0.342451
H32   H     H_    0.305370 0.206708 0.242059 0.284821
H33   H     H_    0.723059 0.733397 0.684202 0.314834
H34   H     H_    0.928544 0.578549 0.666770 0.083493
H35   H     H_    0.502393 0.811764 0.706737 0.109766
H36   H     H_    0.456923 0.814736 0.612846 0.089633
H37   H     H_    0.306997 0.770912 0.665124 0.099824
H38   H     H_    0.862657 0.890908 0.341481 0.297331
H39   H     H_    0.995000 0.195850 0.664922 0.231246
H40   H     H_    0.714894 0.161622 0.753255 0.073157
H41   H     H_    0.729210 0.235727 0.853532 0.326174
H42   H     H_    0.391910 0.346889 0.795638 0.259765
H43   H     H_    0.245059 0.150409 0.739457 0.054881
H44   H     H_    0.695148 0.182179 0.418572 0.336666
H45   H     H_    0.177690 0.684501 0.768550 0.142853
H46   H     H_    0.587495 0.897358 0.442846 0.134617
H47   H     H_    0.113306 0.817852 0.583984 0.316022
H48   H     H_    0.603426 0.632418 0.500743 0.317806
H49   H     H_    0.470513 0.674907 0.958795 0.307987
H50   H     H_    0.290136 0.329853 0.052024 0.307570
H51   H     H_    0.911452 0.834953 0.238391 0.029758
H52   H     H_    0.867706 0.446716 0.339060 0.298136
H53   H     H_    0.082108 0.590727 0.783025 0.076074
H54   H     H_    0.961768 0.669945 0.777836 0.128201
H55   H     H_    0.134835 0.332002 0.378929 -0.064840
H56   H     H_    0.437413 0.812474 0.203655 0.124626
O1    O     O_2   0.143190 0.684560 0.534150 -0.497146
O2    O     O_2   0.770861 0.457879 0.749769 -0.465424
O3    O     O_3   0.789785 0.311593 0.743021 -0.524630
O4    O     O_3   0.882350 0.590230 0.535560 -0.443790
O5    O     O_3   0.431150 0.462160 0.416880 -0.499952
O6    O     O_2   0.634060 0.535220 0.669530 -0.435349
O7    O     O_3   0.472338 0.657264 0.699517 -0.655634
O8    O     O_2   0.523327 0.225374 0.539275 -0.396927
O9    O     O_3   0.458904 0.230035 0.669880 -0.574647
O10   O     O_3   0.372640 0.639320 0.408320 -0.470136
O11   O     O_2   0.276617 0.774718 0.456759 -0.459617
O12   O     O_3   0.329262 0.342226 0.316023 -0.678311
O13   O     O_3   0.000635 0.690757 0.647019 -0.624577
O14   O     O_3   0.366056 0.769005 0.328828 -0.613437
O15   O     O_2   0.176230 0.464730 0.330450 -0.460325
O16   O     O_3   0.952380 0.601530 0.373300 -0.486209
O17   O     O_2   0.037627 0.547317 0.247876 -0.446581
O18   O     O_3   0.345734 0.673504 0.236986 -0.722423
O19   O     O_3   0.559905 0.343194 0.208661 -0.729231
O20   O     O_3   0.330552 0.277990 0.414516 -0.722920
O21   O     O_3   0.042334 0.244210 0.259051 -0.751505
O22   O     O_3   0.065557 0.179245 0.356992 -0.727446
O23   O     O_3   0.981673 0.691726 0.256036 -0.610969
O24   O     O_3   0.271847 0.183377 0.284860 -0.690659
O25   O     O_3   0.670132 0.712963 0.636869 -0.785405
O26   O     O_3   0.980094 0.885239 0.340373 -0.717540
O27   O     O_3   0.906979 0.230046 0.666401 -0.757341
O28   O     O_3   0.831366 0.211436 0.849103 -0.727013
O29   O     O_3   0.460882 0.324838 0.760506 -0.680561
O30   O     O_3   0.738239 0.142490 0.445921 -0.700198
O31   O     O_3   0.063250 0.859388 0.561941 -0.713456
O32   O     O_3   0.666071 0.646854 0.460816 -0.719193
O33   O     O_3   0.419710 0.629203 0.927368 -0.735953
O34   O     O_2   0.667110 0.315390 0.465830 -0.458953
O35   O     O_3   0.343799 0.375104 0.083262 -0.733540
O36   O     O_3   0.836808 0.410998 0.295765 -0.719816
O37   O     O_3   0.927950 0.409760 0.464380 -0.514451
O38   O     O_3   0.437660 0.360670 0.591630 -0.470058
O39   O     O_3   0.826053 0.302722 0.353623 -0.660306
O40   O     O_3   0.379150 0.537830 0.583060 -0.503117
O41   O     O_3   0.857920 0.398470 0.626650 -0.457030
P1    P     P_3+3 0.970290 0.672580 0.555000 1.054742
P2    P     P_3+3 0.347000 0.441860 0.341200 0.997624
P3    P     P_3+3 0.920105 0.600352 0.281306 1.000673
P4    P     P_3+3 0.840010 0.327410 0.444950 0.991845
P5    P     P_3+3 0.879944 0.399124 0.719064 1.054479
P6    P     P_3+3 0.406896 0.740625 0.413354 0.990559
P7    P     P_3+3 0.456223 0.558096 0.671851 0.977441
P8    P     P_3+3 0.401674 0.259636 0.587372 1.070253

loop_
_geom_bond_atom_site_label_1
_geom_bond_atom_site_label_2
_ccdc_geom_bond_type
C16   H25   S    
Ba2   O38   S    
C46   O29   S    
C16   O26   S    
C6    H46   S    
O7    P7    S    
H39   O27   S    
C5    C6    A    
C42   H55   S    
C25   C31   A    
C42   O20   S    
C47   H10   S    
H48   O32   S    
O16   P3    S    
C4    H11   S    
C26   C27   A    
C22   C24   A    
C32   C33   A    
C35   C38   A    
C8    C13   A    
C36   C37   A    
C40   O13   S    
C43   O22   S    
C13   C14   S    
C2    P1    S    
Ba1   Ba2   S    
C41   H54   S    
O2    P5    D    
C1    H5    S    
C12   H2    S    
C14   C15   T    
C5    C15   S    
O40   P7    S    
C41   H45   S    
C21   C22   A    
C28   C39   S    
Ba1   P2    S    
Ba1   O10   S    
C19   P2    S    
H32   O24   S    
C32   H20   S    
O37   P4    S    
O17   P3    D    
C7    P6    S    
C43   O24   S    
C34   H37   S    
O6    P7    D    
C19   C20   A    
Ba2   O6    S    
Ba2   O37   S    
H49   O33   S    
Ba1   O40   S    
C26   O33   S    
C39   H12   S    
C4    O23   S    
O4    P1    S    
O5    P2    S    
H47   O31   S    
C41   H53   S    
C1    H56   S    
C4    C16   S    
Ba2   O5    S    
C12   O18   S    
C32   C37   A    
C39   O19   S    
C24   P3    S    
O3    P5    S    
C40   H34   S    
C23   H4    S    
C21   C31   S    
C3    C5    A    
C6    C7    A    
C34   H36   S    
O13   P1    S    
C2    C48   A    
C16   H51   S    
O12   P2    S    
H33   O25   S    
C35   C36   A    
Ba1   O37   S    
C23   O7    S    
Ba1   O4    S    
C45   H7    S    
C28   H26   S    
H44   O30   S    
C29   C30   A    
C11   H13   S    
C36   H15   S    
C42   O12   S    
C17   H14   S    
C9    C17   A    
C27   C37   S    
O10   P6    S    
C18   H24   S    
C10   C11   A    
C46   H8    S    
O34   P4    D    
C20   H18   S    
C30   O35   S    
O39   P4    S    
C1    C12   S    
Ba1   O1    S    
C46   O9    S    
C9    P4    S    
C4    H17   S    
H29   O20   S    
C12   O14   S    
C11   C13   A    
C45   O28   S    
O11   P6    D    
C45   H40   S    
H42   O29   S    
C40   C41   S    
H38   O26   S    
C10   P8    S    
C23   O25   S    
O8    P8    D    
C42   C43   S    
C28   O39   S    
Ba2   P4    S    
C44   C45   S    
Ba2   O4    S    
C40   H23   S    
C38   H22   S    
O9    P8    S    
C35   P7    S    
C7    C48   A    
C8    O30   S    
C2    C3    A    
C47   H9    S    
C48   O32   S    
C3    O31   S    
H30   O21   S    
C34   H35   S    
Ba2   O40   S    
C28   O36   S    
H50   O35   S    
Ba2   O34   S    
C30   C31   A    
O38   P8    S    
O41   P5    S    
Ba2   O41   S    
O23   P3    S    
H31   O22   S    
C25   H16   S    
Ba1   O5    S    
C44   O27   S    
O1    P1    D    
C1    H3    S    
H41   O28   S    
C18   C24   A    
C43   O21   S    
C46   C47   S    
C10   C17   A    
O14   P6    S    
O15   P2    D    
C33   C38   A    
Ba1   O15   S    
C8    C9    A    
C23   C34   S    
C29   H19   S    
C18   C19   A    
C27   C29   A    
C33   P5    S    
C44   O3    S    
C44   H6    S    
C25   C26   A    
H27   O18   S    
C20   C21   A    
Ba1   P1    S    
H52   O36   S    
C47   H43   S    
H28   O19   S    
C39   H1    S    
Ba1   O16   S    
C22   H21   S    
