data_mof_unit_65087.cif
_audit_creation_date              2013-03-05T16:16:45-0500
_audit_creation_method            fapswitch 2.2
_symmetry_space_group_name_H-M    P1
_symmetry_Int_Tables_number       1
_space_group_crystal_system       triclinic
_cell_length_a                    13.082766
_cell_length_b                    13.612344
_cell_length_c                    15.797395
_cell_angle_alpha                 90.001327
_cell_angle_beta                  92.765774
_cell_angle_gamma                 85.803384
_cell_volume                      2802.48368489

loop_
_atom_site_label
_atom_site_type_symbol
_atom_site_description
_atom_site_fract_x
_atom_site_fract_y
_atom_site_fract_z
_atom_type_partial_charge
O1    O     O_R   0.402510 0.634760 0.495110 -0.602446
O2    O     O_R   0.572960 0.644530 0.503690 -0.583699
C1    C     C_R   0.481286 0.685164 0.499406 0.895521
O3    O     O_R   0.414740 0.495110 0.618560 -0.581761
O4    O     O_R   0.585180 0.504880 0.627150 -0.584558
C2    C     C_R   0.499392 0.499959 0.661736 0.893910
Zn1   Zn    Zn3+2 0.386190 0.493480 0.494270 1.097084
Zn2   Zn    Zn3+2 0.613810 0.506520 0.505730 1.087507
O5    O     O_R   0.427040 0.355470 0.496310 -0.583613
O6    O     O_R   0.597490 0.365240 0.504890 -0.598997
O7    O     O_R   0.414820 0.495120 0.372850 -0.588687
O8    O     O_R   0.585260 0.504890 0.381440 -0.611513
C3    C     C_R   0.518708 0.314833 0.501192 0.887412
C4    C     C_R   0.500581 0.500116 0.338224 0.878577
C5    C     C_3   0.403440 0.579885 0.946263 -0.329794
C6    C     C_3   0.605676 0.543522 0.953387 0.022756
C7    C     C_3   0.609073 0.525739 0.053138 -0.373298
H1    H     H_    0.460142 0.661205 0.058915 0.225379
H2    H     H_    0.651759 0.453815 0.068223 0.208123
C8    C     C_1   0.501168 0.503153 0.249843 -0.067391
C9    C     C_3   0.497745 0.505686 0.916757 -0.240634
C10   C     C_3   0.420616 0.593172 0.045978 0.090260
C11   C     C_3   0.498824 0.509785 0.083216 -0.048613
C12   C     C_3   0.467630 0.408414 0.049974 -0.454844
C13   C     C_3   0.484782 0.396254 0.952558 0.412541
C14   C     C_1   0.500424 0.506474 0.174862 0.107454
C15   C     C_1   0.497498 0.503076 0.825037 0.200249
C16   C     C_1   0.498018 0.501349 0.750024 0.093953
H3    H     H_    0.385754 0.403218 0.063232 0.269577
H4    H     H_    0.507641 0.347284 0.088026 0.231027
C17   C     C_1   0.533309 0.212105 0.510806 -0.061901
C18   C     C_2   0.544561 0.021775 0.533493 0.173562
C19   C     C_2   0.454773 0.978233 0.529397 0.174332
C20   C     C_1   0.457686 0.874641 0.517425 0.074476
C21   C     C_1   0.541855 0.125362 0.521314 0.078276
C22   C     C_1   0.466442 0.787893 0.507679 -0.061127
N1    N     N_1   0.234540 0.484780 0.486630 -0.048956
C23   C     C_2   0.033441 0.472897 0.474821 -0.219876
C24   C     C_2   0.967186 0.520683 0.529296 -0.221169
C25   C     C_1   0.854615 0.517335 0.519263 0.290627
C26   C     C_1   0.145614 0.480397 0.482246 0.294854
N2    N     N_1   0.765460 0.515220 0.513370 -0.049919
C27   C     C_2   0.300227 0.538471 0.919050 0.981355
O9    O     O_2   0.245809 0.503368 0.970210 -0.505437
O10   O     O_R   0.268881 0.538201 0.833003 -0.747388
H5    H     H_    0.200856 0.508092 0.822153 0.380806
N3    N     N_R   0.323904 0.607908 0.090447 0.246382
O11   O     O_R   0.292089 0.540668 0.139396 -0.310767
O12   O     O_R   0.267477 0.690093 0.079649 -0.268334
N4    N     N_R   0.355948 0.033217 0.527946 0.220613
O13   O     O_R   0.275881 0.995022 0.493131 -0.301291
O14   O     O_R   0.342330 0.113359 0.572213 -0.324436
N5    N     N_R   0.643335 0.966785 0.540992 0.220360
O15   O     O_R   0.723898 0.004938 0.513460 -0.301902
O16   O     O_R   0.656238 0.886689 0.586454 -0.313544
C28   C     C_2   0.004502 0.580237 0.602515 0.979456
O17   O     O_2   0.944080 0.637931 0.637467 -0.538001
O18   O     O_R   0.106790 0.569614 0.633288 -0.777733
H6    H     H_    0.121090 0.614215 0.683219 0.379628
C29   C     C_2   0.996385 0.410996 0.403053 0.985747
O19   O     O_2   0.053946 0.387648 0.346442 -0.551683
O20   O     O_R   0.897832 0.377242 0.400228 -0.784705
H7    H     H_    0.883344 0.335828 0.348267 0.372214
C30   C     C_2   0.397083 0.682319 0.903421 1.027021
O21   O     O_2   0.396697 0.689554 0.826184 -0.558897
O22   O     O_R   0.386063 0.768608 0.951440 -0.710770
H8    H     H_    0.381510 0.830508 0.915348 0.391085
C31   C     C_2   0.700975 0.487868 0.916685 1.031278
O23   O     O_2   0.711033 0.486017 0.840086 -0.553569
O24   O     O_R   0.779662 0.442921 0.969771 -0.724792
H9    H     H_    0.837764 0.410264 0.937225 0.389754
N6    N     N_R   0.612002 0.648672 0.929036 0.201729
O25   O     O_R   0.622801 0.671570 0.850050 -0.295061
O26   O     O_R   0.604533 0.720713 0.983015 -0.322845
C32   C     C_2   0.671092 0.597374 0.104891 1.050851
O27   O     O_2   0.764083 0.594738 0.098782 -0.515631
O28   O     O_R   0.623147 0.666717 0.158235 -0.777289
H10   H     H_    0.673508 0.709524 0.188478 0.371325
N7    N     N_R   0.396213 0.348631 0.912028 0.225102
O29   O     O_R   0.346166 0.288658 0.955897 -0.286987
O30   O     O_R   0.385730 0.342605 0.829886 -0.321014
N8    N     N_R   0.576968 0.329848 0.937329 0.206600
O31   O     O_R   0.632205 0.286013 0.998977 -0.336984
O32   O     O_R   0.597722 0.305221 0.860039 -0.306907

loop_
_geom_bond_atom_site_label_1
_geom_bond_atom_site_label_2
_geom_bond_distance
_ccdc_geom_bond_type
C6    C9    1.619112 S    
C6    N6    1.491306 S    
C27   O9    1.222161 D    
N3    O12   1.300996 A    
O28   H10   1.013759 S    
Zn1   O7    1.972446 S    
C7    C11   1.570140 S    
Zn2   N2    1.994024 S    
O4    C2    1.277823 A    
O7    C4    1.277921 A    
C28   O17   1.223822 D    
C29   O20   1.398806 S    
C11   C14   1.447556 S    
O5    C3    1.282256 A    
C12   H3    1.108612 S    
O1    Zn1   1.950410 S    
C5    C10   1.592597 S    
C2    C16   1.395826 S    
N3    O11   1.302239 A    
C6    C7    1.592299 S    
N4    O14   1.301696 A    
C5    C30   1.544940 S    
O24   H9    1.013913 S    
C6    C31   1.547920 S    
C25   N2    1.168079 T    
C10   N3    1.477581 S    
C9    C15   1.449218 S    
C13   N7    1.487005 S    
O3    Zn1   1.981315 S    
C19   C20   1.420743 S    
N5    O16   1.301701 A    
C18   C21   1.420770 S    
C4    C8    1.397208 S    
C12   C13   1.572869 S    
C23   C26   1.477545 S    
N6    O26   1.300891 A    
C24   C25   1.477656 S    
N7    O30   1.301482 A    
C31   O23   1.223560 D    
C19   N4    1.444937 S    
N5    O15   1.301590 A    
C29   O19   1.223860 D    
O1    C1    1.278377 A    
C30   O22   1.400584 S    
C32   O27   1.222948 D    
O20   H7    1.013969 S    
C32   O28   1.399610 S    
C24   C28   1.495604 S    
Zn2   O8    1.981315 S    
N4    O13   1.301588 A    
Zn1   N1    1.994026 S    
C27   O10   1.400846 S    
C23   C29   1.495704 S    
O3    C2    1.278239 A    
O8    C4    1.278732 A    
N8    O32   1.302121 A    
C13   N8    1.482558 S    
C17   C21   1.188767 T    
C18   N5    1.444955 S    
Zn1   O5    1.915029 S    
C9    C13   1.616746 S    
H1    C10   1.107563 S    
C3    C17   1.404679 S    
O2    Zn2   1.915029 S    
N6    O25   1.302896 A    
O6    C3    1.278367 A    
O4    Zn2   1.972443 S    
C30   O21   1.223855 D    
O2    C1    1.282207 A    
O18   H6    1.013983 S    
C5    C27   1.543160 S    
C18   C19   1.352747 D    
C23   C24   1.380020 D    
C8    C14   1.184922 T    
C1    C22   1.404626 S    
C7    H2    1.111010 S    
C28   O18   1.398902 S    
O22   H8    1.013901 S    
C20   C22   1.188740 T    
N1    C26   1.168004 T    
C12   H4    1.110718 S    
C11   C12   1.551808 S    
N7    O29   1.302863 A    
O10   H5    1.013927 S    
C5    C9    1.622556 S    
Zn2   O6    1.950410 S    
N8    O31   1.302191 A    
C15   C16   1.185580 T    
C7    C32   1.526223 S    
C31   O24   1.400675 S    
C10   C11   1.566310 S    
