data_mof_unit_41696.cif
_audit_creation_date              2013-03-05T15:52:30-0500
_audit_creation_method            fapswitch 2.2
_symmetry_space_group_name_H-M    P1
_symmetry_Int_Tables_number       1
_space_group_crystal_system       triclinic
_cell_length_a                    11.13464
_cell_length_b                    11.14363
_cell_length_c                    18.777106
_cell_angle_alpha                 90.202714
_cell_angle_beta                  89.881164
_cell_angle_gamma                 58.806189
_cell_volume                      1992.98386346

loop_
_atom_site_label
_atom_site_type_symbol
_atom_site_description
_atom_site_fract_x
_atom_site_fract_y
_atom_site_fract_z
_atom_type_partial_charge
O1    O     O_R   0.748670 0.497520 0.427970 -0.544794
O2    O     O_R   0.476470 0.723930 0.429450 -0.497797
C1    C     C_R   0.358356 0.772331 0.397730 0.532675
O3    O     O_R   0.264730 0.744140 0.416740 -0.557642
O4    O     O_R   0.309440 0.472410 0.418220 -0.498170
C2    C     C_R   0.379713 0.350041 0.390816 0.534205
O5    O     O_R   0.501630 0.260530 0.414310 -0.498271
O6    O     O_R   0.727920 0.305730 0.428950 -0.438795
C3    C     C_R   0.783119 0.375066 0.405398 0.552461
O7    O     O_R   0.738670 0.496020 0.588600 -0.520441
O8    O     O_R   0.467190 0.722540 0.578350 -0.510735
C4    C     C_R   0.344454 0.768270 0.604526 0.547228
O9    O     O_R   0.254720 0.742640 0.577370 -0.520977
O10   O     O_R   0.300170 0.471020 0.567120 -0.508739
C5    C     C_R   0.370239 0.350342 0.595866 0.540438
O11   O     O_R   0.491630 0.259030 0.574940 -0.528182
O12   O     O_R   0.718640 0.304340 0.577850 -0.519231
C6    C     C_R   0.763235 0.376388 0.609916 0.535058
Cr1   Cr    Cr6+3 0.601740 0.606840 0.505840 0.999119
Cr2   Cr    Cr6+3 0.291500 0.601560 0.495070 1.003542
Cr3   Cr    Cr6+3 0.606780 0.291630 0.499130 1.039648
O13   O     O_3   0.500010 0.500010 0.500020 -0.256717
C7    C     C_R   0.868255 0.819335 0.150971 -0.118125
C8    C     C_R   0.834532 0.863554 0.220449 -0.091953
C9    C     C_R   0.695104 0.953563 0.242507 -0.068949
C10   C     C_R   0.582972 0.022113 0.193659 0.037079
H1    H     H_    0.483109 0.103146 0.330611 0.134800
C11   C     C_R   0.329570 0.270321 0.176531 -0.006775
C12   C     C_R   0.422264 0.184564 0.292953 -0.148203
C13   C     C_R   0.439954 0.157150 0.218747 -0.022290
C14   C     C_R   0.116170 0.665524 0.335279 -0.046573
C15   C     C_R   0.014547 0.769771 0.381102 -0.053416
C16   C     C_R   0.622958 0.956378 0.124751 -0.070901
C17   C     C_R   0.760823 0.861459 0.103420 -0.143068
C18   C     C_R   0.224297 0.397468 0.208835 -0.168207
C19   C     C_R   0.223499 0.424069 0.280927 -0.036176
C20   C     C_R   0.892069 0.771444 0.397385 -0.120076
C21   C     C_R   0.864570 0.678555 0.362556 -0.123378
C22   C     C_R   0.965886 0.575818 0.317171 -0.117591
C23   C     C_R   0.101103 0.555582 0.311851 0.013544
C24   C     C_R   0.334016 0.319331 0.322366 -0.009803
H2    H     H_    0.783593 0.819047 0.049735 0.100560
H3    H     H_    0.024806 0.854057 0.402050 0.176919
H4    H     H_    0.976234 0.748615 0.134966 0.123893
H5    H     H_    0.918311 0.831156 0.256815 0.175170
H6    H     H_    0.681539 0.971385 0.298630 0.166524
H7    H     H_    0.207903 0.666558 0.317715 0.145713
H8    H     H_    0.557356 0.961207 0.084547 0.203434
H9    H     H_    0.138131 0.477867 0.177967 0.145789
H10   H     H_    0.813294 0.852583 0.431621 0.127784
H11   H     H_    0.762393 0.691582 0.368848 0.148793
H12   H     H_    0.934293 0.521229 0.282840 0.131964
C25   C     C_R   0.927796 0.305734 0.192138 0.012794
C26   C     C_R   0.794651 0.332070 0.209472 -0.010433
C27   C     C_R   0.754978 0.345484 0.280622 0.003427
C28   C     C_R   0.983468 0.290904 0.318907 -0.137222
C29   C     C_R   0.025086 0.275129 0.247131 -0.187820
C30   C     C_3   0.742366 0.234545 0.195258 -0.209781
C31   C     C_3   0.705447 0.245909 0.273178 0.106353
C32   C     C_R   0.843270 0.338566 0.334750 0.069307
H13   H     H_    0.057805 0.272340 0.360781 0.123770
H14   H     H_    0.133512 0.235020 0.234760 0.116144
H15   H     H_    0.826072 0.127631 0.178293 0.188607
H16   H     H_    0.648526 0.283118 0.160258 0.122546
H17   H     H_    0.591747 0.295991 0.284238 0.141622
C33   C     C_R   0.299044 0.928499 0.187315 0.001731
C34   C     C_R   0.433917 0.850845 0.214866 0.019094
C35   C     C_R   0.453184 0.809108 0.285938 0.012206
C36   C     C_R   0.203236 0.933600 0.304613 -0.158438
C37   C     C_R   0.184029 0.966974 0.232647 -0.150421
C38   C     C_3   0.545105 0.709248 0.189276 -0.258490
C39   C     C_3   0.562739 0.663039 0.265648 -0.259819
C40   C     C_R   0.338392 0.847567 0.331271 -0.000446
H18   H     H_    0.112592 0.965055 0.337901 0.180972
H19   H     H_    0.078467 0.019579 0.211787 0.166604
H20   H     H_    0.638509 0.708130 0.167612 0.158266
H21   H     H_    0.503970 0.657348 0.154744 0.153866
H22   H     H_    0.525931 0.589040 0.275872 0.128781
H23   H     H_    0.667845 0.630643 0.286270 0.137109
C41   C     C_R   0.315694 0.325338 0.814901 0.015661
C42   C     C_R   0.429252 0.218607 0.778474 0.023512
C43   C     C_R   0.436585 0.216102 0.705674 0.024913
C44   C     C_R   0.213821 0.434182 0.701721 -0.170421
C45   C     C_R   0.208218 0.435857 0.776291 -0.181258
C46   C     C_3   0.578050 0.177694 0.788328 -0.288668
C47   C     C_3   0.589314 0.168982 0.708701 -0.255784
C48   C     C_R   0.331893 0.327057 0.665975 0.019469
H24   H     H_    0.131034 0.520348 0.672265 0.117557
H25   H     H_    0.121052 0.522650 0.803674 0.113490
H26   H     H_    0.644430 0.075453 0.814780 0.124883
H27   H     H_    0.586529 0.265051 0.811365 0.150008
H28   H     H_    0.608091 0.249366 0.686256 0.181863
H29   H     H_    0.658087 0.060452 0.687954 0.125779
C49   C     C_R   0.827894 0.326725 0.832979 -0.000860
C50   C     C_R   0.791651 0.451189 0.797957 0.045829
C51   C     C_R   0.776043 0.462131 0.725219 0.053492
C52   C     C_R   0.842578 0.219483 0.717391 -0.176427
C53   C     C_R   0.852157 0.210398 0.791912 -0.166930
C54   C     C_3   0.878949 0.517455 0.795399 -0.252298
C55   C     C_3   0.852481 0.538074 0.717177 -0.266839
C56   C     C_R   0.803795 0.346809 0.683947 0.008580
H30   H     H_    0.863234 0.128871 0.686229 0.125721
H31   H     H_    0.885055 0.111558 0.817193 0.140361
H32   H     H_    0.988295 0.436243 0.807696 0.165516
H33   H     H_    0.837119 0.614648 0.826997 0.157727
H34   H     H_    0.782520 0.649183 0.701658 0.138476
H35   H     H_    0.948458 0.478793 0.683986 0.138824
C57   C     C_R   0.303409 0.841394 0.825691 0.017049
C58   C     C_R   0.184990 0.876799 0.784898 0.013707
C59   C     C_R   0.191943 0.869263 0.711385 0.008967
C60   C     C_R   0.434328 0.805653 0.716328 -0.113579
C61   C     C_R   0.429918 0.806178 0.790664 0.108252
C62   C     C_3   0.097962 0.810749 0.788646 -0.277556
C63   C     C_3   0.102517 0.805545 0.708394 -0.264288
C64   C     C_R   0.318346 0.827617 0.675985 -0.017148
H36   H     H_    0.533886 0.772757 0.690747 0.150331
H37   H     H_    0.991137 0.880666 0.810547 0.128402
H38   H     H_    0.156126 0.706143 0.814093 0.138147
H39   H     H_    0.160926 0.697507 0.687263 0.169232
H40   H     H_    0.998988 0.875714 0.683288 0.124523
O14   O     O_R   0.186620 0.923750 0.087000 -0.512149
O15   O     O_R   0.957350 0.194160 0.084660 -0.513547
C65   C     C_R   0.970511 0.289872 0.117999 0.515487
O16   O     O_R   0.935120 0.407280 0.085350 -0.513357
O17   O     O_R   0.203800 0.365060 0.067090 -0.510279
C66   C     C_R   0.304835 0.255820 0.101639 0.535320
O18   O     O_R   0.417470 0.174910 0.067830 -0.542330
O19   O     O_R   0.375160 0.946380 0.070880 -0.548897
C67   C     C_R   0.272853 0.958654 0.111807 0.523930
O20   O     O_R   0.160500 0.919670 0.926690 -0.511790
O21   O     O_R   0.933140 0.190380 0.936050 -0.496332
C68   C     C_R   0.885549 0.308351 0.904306 0.557405
O22   O     O_R   0.909010 0.403210 0.925030 -0.524107
O23   O     O_R   0.179590 0.361290 0.918480 -0.505804
C69   C     C_R   0.297565 0.291002 0.886796 0.560920
O24   O     O_R   0.391360 0.170840 0.907510 -0.529895
O25   O     O_R   0.350950 0.942600 0.922260 -0.500397
C70   C     C_R   0.277038 0.892554 0.898625 0.551906
Cr4   Cr    Cr6+3 0.062440 0.063060 0.008240 1.004106
Cr5   Cr    Cr6+3 0.062950 0.375000 0.998920 0.991435
Cr6   Cr    Cr6+3 0.374550 0.061770 0.992470 0.964757
O26   O     O_3   0.166650 0.166610 0.999880 -0.298140
Cl1   Cl    Cl    0.819647 0.091501 0.323027 -0.737049
N1    N     N_2   0.555482 0.763260 0.829255 -0.516422
H41   H     H_    0.560068 0.723654 0.879424 0.264928
C71   C     C_3   0.604493 0.860183 0.825571 -0.294177
H42   H     H_    0.683927 0.836436 0.867480 0.111069
H43   H     H_    0.515794 0.967535 0.834218 0.211594
H44   H     H_    0.651336 0.854268 0.772526 0.122908

loop_
_geom_bond_atom_site_label_1
_geom_bond_atom_site_label_2
_geom_bond_distance
_ccdc_geom_bond_type
C44   C48   1.403190 A    
C66   O18   1.268918 A    
C27   C31   1.479230 S    
H1    C12   1.073286 S    
C60   C61   1.396464 A    
C17   H2    1.084090 S    
C41   C45   1.399187 A    
O19   C67   1.319539 A    
C52   C53   1.403595 A    
C46   H27   1.111787 S    
C65   O16   1.309779 A    
O4    Cr2   1.969726 S    
C33   C37   1.404480 A    
C46   C47   1.498738 S    
C28   C29   1.404781 A    
O8    Cr1   1.933602 S    
C12   C13   1.416739 A    
C41   C69   1.446416 S    
C8    H5    1.059416 S    
Cr5   O26   1.987235 S    
O15   Cr4   1.941648 S    
C71   H42   1.110617 S    
C39   H23   1.102336 S    
O23   Cr5   1.943236 S    
O4    C2    1.274603 A    
C41   C42   1.383499 A    
Cr4   O26   2.022394 S    
C50   C54   1.495338 S    
C49   C53   1.406166 A    
C5    O11   1.259766 A    
C57   C58   1.395855 A    
C61   N1    1.422154 S    
O18   Cr6   2.105859 S    
C39   H22   1.111621 S    
C14   C23   1.389989 A    
C50   C51   1.375024 A    
C11   C18   1.421286 A    
C68   O22   1.273044 A    
C2    C24   1.485931 S    
C18   H9    1.083843 S    
C7    C8    1.373864 A    
C36   C40   1.395156 A    
C60   H36   1.081472 S    
O19   Cr6   1.955912 S    
C59   C63   1.493696 S    
C63   H39   1.101966 S    
C58   C62   1.491510 S    
C4    C64   1.454393 S    
C27   C32   1.389831 A    
O24   Cr6   2.074958 S    
C44   H24   1.080111 S    
C31   Cl1   1.789866 S    
C14   H7    1.078419 S    
C51   C56   1.388591 A    
C19   C24   1.415841 A    
C49   C50   1.395281 A    
O20   Cr4   2.063661 S    
C9    C10   1.416144 A    
C11   C66   1.457941 S    
C42   C43   1.368560 A    
C71   H43   1.098632 S    
O17   Cr5   1.984879 S    
C30   H16   1.111828 S    
C54   H33   1.101728 S    
C46   H26   1.106485 S    
O1    Cr1   2.052195 S    
C34   C35   1.394823 A    
O10   Cr2   1.955699 S    
C69   O24   1.261658 A    
Cr1   O13   2.026988 S    
O1    C3    1.281363 A    
C8    C9    1.403269 A    
C9    H6    1.067520 S    
N1    C71   1.442249 S    
C25   C65   1.450461 S    
C22   C23   1.405409 A    
C25   C29   1.407314 A    
O6    C3    1.289791 A    
C21   H11   1.075936 S    
C29   H14   1.072564 S    
C30   C31   1.505989 S    
C43   C47   1.498850 S    
C49   C68   1.455042 S    
C7    H4    1.082704 S    
C57   C61   1.411575 A    
C22   H12   1.062639 S    
C6    C56   1.447949 S    
C20   C21   1.384657 A    
C47   H29   1.112179 S    
C71   H44   1.109160 S    
C10   C16   1.435993 A    
C44   C45   1.401091 A    
C19   C23   1.504677 S    
O7    Cr1   2.082685 S    
C35   C39   1.489830 S    
C7    C17   1.369031 A    
C52   C56   1.402423 A    
O12   C6    1.290159 A    
C36   H18   1.077764 S    
C15   C20   1.387640 A    
O23   C69   1.273055 A    
C62   H37   1.107564 S    
Cr2   O13   1.989864 S    
C10   C13   1.591178 S    
O17   C66   1.326030 A    
C43   C48   1.400161 A    
C45   H25   1.078819 S    
C1    O3    1.285062 A    
O20   C70   1.281669 A    
C38   H20   1.109978 S    
C38   H21   1.112509 S    
C5    C48   1.448275 S    
C62   C63   1.507541 S    
C26   C30   1.498421 S    
C30   H15   1.111501 S    
O25   Cr6   1.980191 S    
C26   C27   1.389271 A    
C55   H35   1.109011 S    
C54   H32   1.102709 S    
O9    Cr2   2.083439 S    
C12   C24   1.410390 A    
O2    Cr1   1.960055 S    
O10   C5    1.276152 A    
O16   Cr5   2.060349 S    
C14   C15   1.413320 A    
C52   H30   1.081458 S    
O14   C67   1.295236 A    
N1    H41   1.031810 S    
O21   C68   1.284350 A    
O6    Cr3   1.947885 S    
O8    C4    1.281777 A    
O11   Cr3   2.069010 S    
C25   C26   1.391599 A    
C2    O5    1.278801 A    
O25   C70   1.288599 A    
C55   H34   1.108677 S    
C54   C55   1.493647 S    
C3    C32   1.443635 S    
C33   C67   1.453189 S    
C11   C13   1.461144 A    
O2    C1    1.282977 A    
C35   C40   1.402660 A    
C38   C39   1.503948 S    
C47   H28   1.104561 S    
Cr6   O26   1.984698 S    
C31   H17   1.106150 S    
O5    Cr3   2.109896 S    
C20   H10   1.082672 S    
O14   Cr4   2.076094 S    
C21   C22   1.400299 A    
O7    C6    1.280149 A    
C51   C55   1.486561 S    
C15   H3    1.076421 S    
C16   C17   1.395774 A    
C33   C34   1.389948 A    
C34   C38   1.490636 S    
C36   C37   1.390133 A    
C1    C40   1.457768 S    
C63   H40   1.110699 S    
O21   Cr4   1.956778 S    
C62   H38   1.108964 S    
O3    Cr2   2.074698 S    
C28   C32   1.394848 A    
C4    O9    1.279291 A    
O22   Cr5   2.101577 S    
C58   C59   1.382190 A    
C37   H19   1.080923 S    
C16   H8    1.033537 S    
C28   H13   1.082878 S    
C60   C64   1.406927 A    
C18   C19   1.383760 A    
O15   C65   1.307110 A    
Cr3   O13   1.986409 S    
C59   C64   1.398380 A    
C42   C46   1.485439 S    
C53   H31   1.076646 S    
C57   C70   1.451245 S    
O12   Cr3   1.986240 S    
