data_mof_unit_6595.cif
_audit_creation_date              2013-03-05T15:53:22-0500
_audit_creation_method            fapswitch 2.2
_symmetry_space_group_name_H-M    P1
_symmetry_Int_Tables_number       1
_space_group_crystal_system       triclinic
_cell_length_a                    15.562598
_cell_length_b                    15.444368
_cell_length_c                    15.697535
_cell_angle_alpha                 92.214361
_cell_angle_beta                  71.825925
_cell_angle_gamma                 112.224956
_cell_volume                      3304.89733176

loop_
_atom_site_label
_atom_site_type_symbol
_atom_site_description
_atom_site_fract_x
_atom_site_fract_y
_atom_site_fract_z
_atom_type_partial_charge
Zn1   Zn    Zn3+2 0.574690 0.574670 0.574650 1.040557
Zn2   Zn    Zn3+2 0.583640 0.456100 0.403530 0.974022
Zn3   Zn    Zn3+2 0.447120 0.574690 0.447120 1.005136
Zn4   Zn    Zn3+2 0.394550 0.394550 0.574700 0.966100
O1    O     O_3   0.500000 0.500000 0.500000 -0.507372
O2    O     O_R   0.404710 0.279110 0.530840 -0.666244
O3    O     O_R   0.573760 0.699350 0.573690 -0.611708
O4    O     O_R   0.714470 0.499570 0.411000 -0.657480
O5    O     O_R   0.307050 0.521980 0.484470 -0.611190
O6    O     O_R   0.588830 0.499590 0.285390 -0.644996
O7    O     O_R   0.395900 0.395880 0.699370 -0.658126
O8    O     O_R   0.493280 0.582590 0.315890 -0.647217
O9    O     O_R   0.521980 0.521940 0.699340 -0.607551
O10   O     O_R   0.708210 0.582550 0.530770 -0.623327
O11   O     O_R   0.270260 0.395900 0.573760 -0.662974
O12   O     O_R   0.537060 0.322180 0.411040 -0.625351
O13   O     O_R   0.484470 0.699370 0.484430 -0.629546
C1    C     C_R   0.461084 0.257993 0.463374 0.867625
C2    C     C_R   0.536836 0.742160 0.535060 0.917683
C3    C     C_R   0.755938 0.550996 0.463926 0.890027
C4    C     C_R   0.243138 0.446668 0.532847 0.830667
C5    C     C_R   0.550467 0.549491 0.259874 0.891583
C6    C     C_R   0.453409 0.447231 0.740708 0.917021
C7    C     C_R   0.704593 0.610605 0.022929 0.475147
H1    H     H_    0.753725 0.574188 0.854637 0.193914
C8    C     C_R   0.572653 0.565010 0.164096 -0.287037
C9    C     C_R   0.345845 0.354729 0.883617 -0.316304
C10   C     C_R   0.322779 0.325631 0.973609 0.553431
C11   C     C_R   0.387223 0.373217 0.019605 -0.154784
C12   C     C_R   0.477401 0.447506 0.977256 0.015385
C13   C     C_R   0.510111 0.463213 0.881063 -0.020137
C14   C     C_R   0.538784 0.502631 0.027211 -0.058804
C15   C     C_R   0.639542 0.552683 0.979842 -0.174441
C16   C     C_R   0.675258 0.546684 0.888454 -0.275775
C17   C     C_R   0.612810 0.515065 0.836713 0.495380
C18   C     C_R   0.504560 0.509675 0.121798 0.404298
C19   C     C_R   0.670868 0.617904 0.114588 0.373904
C20   C     C_R   0.438456 0.421977 0.835693 -0.144433
H2    H     H_    0.290854 0.323670 0.850849 0.182734
H3    H     H_    0.368018 0.345361 0.087217 0.190561
C21   C     C_R   0.337631 0.002795 0.432608 0.227643
H4    H     H_    0.275884 0.826727 0.502944 0.218621
C22   C     C_R   0.442597 0.159241 0.453331 -0.182110
C23   C     C_R   0.656257 0.901475 0.545941 0.235099
C24   C     C_R   0.690464 0.998210 0.529450 -0.268051
C25   C     C_R   0.636696 0.039844 0.502857 0.485397
C26   C     C_R   0.537574 0.985808 0.507841 -0.037129
C27   C     C_R   0.498713 0.887085 0.531941 -0.124904
C28   C     C_R   0.477246 0.025285 0.485281 0.066483
C29   C     C_R   0.389654 0.965278 0.469749 -0.108660
C30   C     C_R   0.349837 0.870368 0.500964 -0.195875
C31   C     C_R   0.398593 0.833691 0.541078 0.345359
C32   C     C_R   0.498031 0.121975 0.482549 -0.260767
C33   C     C_R   0.363581 0.100653 0.425729 0.410395
C34   C     C_R   0.561834 0.844183 0.542469 -0.192908
H5    H     H_    0.551744 0.169262 0.510325 0.222881
H6    H     H_    0.764690 0.041073 0.527543 0.201695
C35   C     C_R   0.029875 0.651612 0.363990 0.460692
H7    H     H_    0.201925 0.633071 0.316575 0.195651
C36   C     C_R   0.858501 0.570183 0.448655 -0.224388
C37   C     C_R   0.069030 0.355836 0.616974 -0.278654
C38   C     C_R   0.971690 0.344571 0.644590 -0.217300
C39   C     C_R   0.940548 0.401334 0.604452 0.537304
C40   C     C_R   0.005586 0.461645 0.524505 0.014094
C41   C     C_R   0.104882 0.468901 0.494098 0.035492
C42   C     C_R   0.978365 0.518103 0.475377 0.035366
C43   C     C_R   0.052116 0.586858 0.405497 -0.052510
C44   C     C_R   0.146183 0.586841 0.374209 -0.117768
C45   C     C_R   0.169233 0.523737 0.413085 -0.143507
C46   C     C_R   0.880794 0.507154 0.490324 -0.297750
C47   C     C_R   0.932988 0.645013 0.387692 0.417965
C48   C     C_R   0.137773 0.421848 0.545719 -0.078682
H8    H     H_    0.819627 0.447379 0.530002 0.240830
H9    H     H_    0.091280 0.316193 0.655205 0.192763
H10   H     H_    0.920767 0.296043 0.702658 0.176567
H11   H     H_    0.238677 0.519173 0.377649 0.176961
O14   O     O_3   0.738029 0.670934 0.156091 -0.590210
C49   C     C_3   0.717081 0.749796 0.188765 -0.342725
H12   H     H_    0.665538 0.732464 0.258673 0.176061
H13   H     H_    0.687598 0.778659 0.145449 0.152760
H14   H     H_    0.786112 0.806530 0.190788 0.194610
N1    N     N_R   0.260332 0.942076 0.400381 0.232395
O15   O     O_R   0.272879 0.875646 0.350703 -0.347999
O16   O     O_R   0.178941 0.954954 0.417177 -0.326252
N2    N     N_R   0.723409 0.862731 0.555836 0.224502
O17   O     O_R   0.763053 0.888489 0.619128 -0.386554
O18   O     O_R   0.761606 0.820424 0.490499 -0.373667
O19   O     O_3   0.685276 0.132624 0.467911 -0.616262
C50   C     C_3   0.729088 0.135335 0.374161 -0.285265
H15   H     H_    0.673369 0.099175 0.340494 0.169069
H16   H     H_    0.785620 0.104302 0.358467 0.169005
H17   H     H_    0.766300 0.209798 0.345861 0.203847
N3    N     N_R   0.343002 0.746553 0.597463 0.207312
O20   O     O_R   0.358955 0.735851 0.672233 -0.410378
O21   O     O_R   0.266998 0.683856 0.581750 -0.384010
O22   O     O_3   0.914117 0.715787 0.355087 -0.556506
C51   C     C_3   0.865784 0.683422 0.290448 -0.159081
H18   H     H_    0.786953 0.670684 0.320962 0.179628
H19   H     H_    0.873411 0.619029 0.260216 0.127024
H20   H     H_    0.897283 0.739623 0.234655 0.200261
O23   O     O_3   0.104103 0.725539 0.304722 -0.518686
C52   C     C_3   0.114081 0.700513 0.215757 -0.227482
H21   H     H_    0.117553 0.629846 0.206931 0.119664
H22   H     H_    0.183762 0.752249 0.170237 0.211368
H23   H     H_    0.053854 0.703559 0.194162 0.167509
O24   O     O_3   0.846723 0.397038 0.646408 -0.628499
C53   C     C_3   0.848012 0.455001 0.718017 -0.275402
H24   H     H_    0.888174 0.530332 0.692097 0.172954
H25   H     H_    0.879861 0.436756 0.765746 0.162133
H26   H     H_    0.771419 0.443828 0.756934 0.228978
O25   O     O_3   0.803484 0.656662 0.976237 -0.574663
C54   C     C_3   0.819687 0.746828 0.942525 -0.272849
H27   H     H_    0.771745 0.743914 0.901711 0.143813
H28   H     H_    0.896740 0.779733 0.897829 0.198168
H29   H     H_    0.809429 0.792602 0.997908 0.177899
O26   O     O_3   0.404374 0.477021 0.168641 -0.590725
C55   C     C_3   0.375105 0.404251 0.236771 -0.307679
H30   H     H_    0.363737 0.431533 0.303955 0.164848
H31   H     H_    0.426349 0.367212 0.225673 0.152708
H32   H     H_    0.302408 0.351085 0.238920 0.192066
O27   O     O_3   0.233328 0.256650 0.021151 -0.600095
C56   C     C_3   0.220204 0.171625 0.980158 -0.280014
H33   H     H_    0.286870 0.154589 0.962633 0.160492
H34   H     H_    0.197953 0.173233 0.919688 0.162304
H35   H     H_    0.159854 0.113852 0.028698 0.204369
O28   O     O_3   0.656130 0.522379 0.744155 -0.627104
C57   C     C_3   0.719305 0.617110 0.709833 -0.139259
H36   H     H_    0.787513 0.617361 0.659148 0.181414
H37   H     H_    0.741145 0.666774 0.759530 0.098860
H38   H     H_    0.683213 0.648579 0.676954 0.245248
O29   O     O_3   0.316888 0.138698 0.385118 -0.598533
C58   C     C_3   0.242706 0.158623 0.451185 -0.182645
H39   H     H_    0.268802 0.235030 0.459024 0.143571
H40   H     H_    0.216114 0.118437 0.518164 0.153254
H41   H     H_    0.178724 0.140677 0.427033 0.207778

loop_
_geom_bond_atom_site_label_1
_geom_bond_atom_site_label_2
_geom_bond_distance
_ccdc_geom_bond_type
C27   C34   1.425981 A    
C28   C32   1.402615 A    
O23   C52   1.411465 S    
O25   C54   1.411003 S    
C49   H14   1.109028 S    
C54   H28   1.109145 S    
C51   H18   1.109657 S    
C26   C28   1.426787 A    
N2    O17   1.300828 A    
O6    C5    1.277474 A    
C33   O29   1.385864 S    
C24   H6    1.083970 S    
C38   C39   1.398219 A    
C45   H11   1.077933 S    
Zn1   O1    1.945611 S    
C14   C18   1.427633 A    
C10   C11   1.385788 A    
C58   H41   1.109337 S    
C55   H31   1.115491 S    
C12   C13   1.432987 A    
C49   H13   1.115500 S    
C35   C47   1.399646 A    
O24   C53   1.409996 S    
C9    C20   1.404823 A    
O8    C5    1.283680 A    
O26   C55   1.419890 S    
O9    C6    1.259350 A    
C52   H23   1.108331 S    
C16   C17   1.394775 A    
C50   H17   1.109278 S    
Zn3   O8    1.950507 S    
C22   C32   1.388784 A    
C9    H2    1.082617 S    
C44   C45   1.377665 A    
C53   H24   1.112488 S    
C50   H16   1.113144 S    
Zn2   O12   1.910131 S    
O14   C49   1.414431 S    
H4    C30   1.082736 S    
C42   C43   1.425077 A    
N3    O21   1.301787 A    
C53   H25   1.113570 S    
C52   H21   1.114253 S    
C7    O25   1.385710 S    
C54   H27   1.113419 S    
C51   H19   1.116260 S    
C7    C19   1.385468 A    
C25   O19   1.381415 S    
N2    O18   1.301521 A    
O2    C1    1.267999 A    
C4    C48   1.483370 S    
C30   C31   1.394227 A    
O10   C3    1.279974 A    
Zn4   O2    1.930865 S    
C55   H32   1.109458 S    
C10   O27   1.386115 S    
C58   H39   1.109077 S    
C47   O22   1.386674 S    
C36   C47   1.405408 A    
C29   C30   1.397024 A    
C24   C25   1.390526 A    
C19   O14   1.386949 S    
C43   C44   1.391431 A    
C39   O24   1.378561 S    
C40   C42   1.438638 A    
C17   O28   1.386470 S    
C57   H37   1.111031 S    
C41   C48   1.425629 A    
C11   C12   1.409512 A    
Zn3   O5    1.911915 S    
H7    C44   1.082865 S    
C22   C33   1.406757 A    
C26   C27   1.427562 A    
C36   C46   1.393588 A    
O22   C51   1.413397 S    
C46   H8    1.075234 S    
C15   C16   1.380872 A    
C31   N3    1.441054 S    
C35   O23   1.384749 S    
O4    C3    1.277990 A    
Zn4   O7    1.962900 S    
C52   H22   1.109174 S    
O27   C56   1.412077 S    
C23   N2    1.433821 S    
C37   C48   1.396989 A    
C8    C18   1.415681 A    
C28   C29   1.417994 A    
N1    O16   1.300648 A    
C53   H26   1.105486 S    
C13   C17   1.435676 A    
C38   H10   1.083285 S    
Zn2   O1    1.950870 S    
C3    C36   1.449811 S    
C56   H34   1.111278 S    
C57   H36   1.109098 S    
C18   O26   1.394511 S    
C21   C29   1.416529 A    
C51   H20   1.108952 S    
C23   C24   1.387339 A    
C32   H5    1.078490 S    
C2    C34   1.482573 S    
C25   C26   1.427614 A    
Zn1   O3    1.931798 S    
O12   C1    1.275127 A    
Zn2   O4    1.928412 S    
Zn4   O1    1.909402 S    
Zn3   O1    1.978690 S    
C8    C19   1.403944 A    
C37   H9    1.083197 S    
C6    C20   1.479619 S    
N3    O20   1.301660 A    
H1    C16   1.083544 S    
O3    C2    1.292607 A    
C7    C15   1.406373 A    
C13   C20   1.442035 A    
C40   C41   1.428755 A    
Zn4   O11   1.946896 S    
C56   H33   1.115417 S    
C57   H38   1.106713 S    
C1    C22   1.453108 S    
C14   C15   1.417515 A    
C12   C14   1.432747 A    
C49   H12   1.109269 S    
C23   C34   1.416984 A    
O5    C4    1.280934 A    
C42   C46   1.405683 A    
O11   C4    1.289869 A    
C56   H35   1.109506 S    
O28   C57   1.428198 S    
C41   C45   1.408739 A    
C21   N1    1.439456 S    
C11   H3    1.068167 S    
O7    C6    1.279314 A    
O13   C2    1.299445 A    
Zn3   O13   1.915025 S    
C37   C38   1.381951 A    
C21   C33   1.408065 A    
C39   C40   1.432403 A    
C35   C43   1.413292 A    
C27   C31   1.423408 A    
Zn1   O9    1.945115 S    
O19   C50   1.410533 S    
C58   H40   1.116508 S    
N1    O15   1.301375 A    
C5    C8    1.441706 S    
C9    C10   1.391795 A    
Zn1   O10   1.931150 S    
C50   H15   1.113468 S    
C55   H30   1.107566 S    
C54   H29   1.110141 S    
O29   C58   1.414297 S    
Zn2   O6    1.964343 S    
