data_mof_unit_19840.cif
_audit_creation_date              2012-12-11T16:28:22-0500
_audit_creation_method            fapswitch 2.2
_symmetry_space_group_name_H-M    P1
_symmetry_Int_Tables_number       1
_space_group_crystal_system       triclinic
_cell_length_a                    16.580708
_cell_length_b                    7.255354
_cell_length_c                    15.198194
_cell_angle_alpha                 89.998928
_cell_angle_beta                  94.802404
_cell_angle_gamma                 89.999161
_cell_volume                      1821.90749475

loop_
_atom_site_label
_atom_site_type_symbol
_atom_type_description
_atom_site_fract_x
_atom_site_fract_y
_atom_site_fract_z
_atom_type_partial_charge
O1    O     O_R   0.663460 0.361760 0.165970 -0.530317
O2    O     O_R   0.336540 0.638240 0.834030 -0.530317
O3    O     O_R   0.836540 0.861760 0.334030 -0.530402
O4    O     O_R   0.163460 0.138240 0.665970 -0.530403
O5    O     O_R   0.827100 0.689870 0.163730 -0.535024
O6    O     O_R   0.172900 0.310130 0.836270 -0.535025
O7    O     O_R   0.672900 0.189870 0.336270 -0.535027
O8    O     O_R   0.327100 0.810130 0.663730 -0.535030
C1    C     C_R   0.853330 0.522948 0.143637 0.699516
C2    C     C_R   0.146670 0.477052 0.856363 0.699516
C3    C     C_R   0.646670 0.022949 0.356362 0.699509
C4    C     C_R   0.353330 0.977051 0.643638 0.699508
O9    O     O_R   0.663490 0.691370 0.155500 -0.534100
O10   O     O_R   0.336510 0.308630 0.844500 -0.534099
O11   O     O_R   0.836510 0.191370 0.344500 -0.534004
O12   O     O_R   0.163490 0.808630 0.655500 -0.534003
O13   O     O_R   0.671770 0.863320 0.325740 -0.528220
O14   O     O_R   0.328230 0.136680 0.674260 -0.528218
O15   O     O_R   0.828230 0.363320 0.174260 -0.528216
O16   O     O_R   0.171770 0.636680 0.825740 -0.528214
C5    C     C_R   0.635807 0.522988 0.134236 0.774991
C6    C     C_R   0.364194 0.477012 0.865764 0.774990
C7    C     C_R   0.864193 0.022981 0.365763 0.775020
C8    C     C_R   0.135806 0.977019 0.634236 0.775020
O17   O     O_3   0.752910 0.528800 0.305860 -0.372274
O18   O     O_3   0.247090 0.471200 0.694140 -0.372273
O19   O     O_3   0.747090 0.028800 0.194140 -0.372278
O20   O     O_3   0.252910 0.971200 0.805860 -0.372278
V1    V     V_3+5 0.749460 0.803010 0.239640 1.456794
V2    V     V_3+5 0.250540 0.196990 0.760360 1.456797
V3    V     V_3+5 0.750540 0.303010 0.260360 1.456840
V4    V     V_3+5 0.249460 0.696990 0.739640 1.456836
C9    C     C_1   0.468841 0.994759 0.530141 -0.006609
C10   C     C_1   0.531159 0.005240 0.469859 -0.006609
C11   C     C_1   0.031159 0.494761 0.969860 -0.006592
C12   C     C_1   0.968840 0.505239 0.030140 -0.006592
H1    H     H_    0.760150 0.012832 0.653718 0.126085
H2    H     H_    0.239850 0.987158 0.346281 0.126084
H3    H     H_    0.739765 0.516780 0.846208 0.126059
H4    H     H_    0.260235 0.483254 0.153791 0.126060
C13   C     C_R   0.034599 0.015343 0.318124 0.183707
C14   C     C_R   0.965400 0.984653 0.681875 0.183708
C15   C     C_R   0.465428 0.513582 0.181914 0.183725
C16   C     C_R   0.534572 0.486435 0.818085 0.183725
C17   C     C_R   0.115298 0.007569 0.297543 -0.162792
C18   C     C_R   0.884702 0.992425 0.702457 -0.162793
C19   C     C_R   0.384756 0.504714 0.202516 -0.162787
C20   C     C_R   0.615243 0.495317 0.797483 -0.162786
C21   C     C_R   0.177805 0.992846 0.363396 -0.149562
C22   C     C_R   0.822195 0.007148 0.636603 -0.149561
C23   C     C_R   0.322260 0.489783 0.136662 -0.149559
C24   C     C_R   0.677739 0.510243 0.863337 -0.149559
C25   C     C_R   0.161135 0.985966 0.451226 -0.134370
C26   C     C_R   0.838865 0.014030 0.548774 -0.134370
C27   C     C_R   0.338914 0.483843 0.048811 -0.134453
C28   C     C_R   0.661086 0.516168 0.951188 -0.134453
C29   C     C_R   0.080659 0.993015 0.475842 0.005273
C30   C     C_R   0.919340 0.006984 0.524158 0.005273
C31   C     C_R   0.419364 0.491968 0.024175 0.005267
C32   C     C_R   0.580636 0.508036 0.975824 0.005267
C33   C     C_R   0.015388 0.007269 0.408426 0.074338
C34   C     C_R   0.984612 0.992730 0.591574 0.074338
C35   C     C_R   0.484628 0.506326 0.091594 0.074368
C36   C     C_R   0.515372 0.493680 0.908406 0.074368
C37   C     C_R   0.065689 0.986428 0.566536 -0.166142
C38   C     C_R   0.934311 0.013571 0.433464 -0.166142
C39   C     C_R   0.434315 0.486383 0.933461 -0.166143
C40   C     C_R   0.565685 0.513618 0.066538 -0.166143
C41   C     C_1   0.416042 0.986176 0.581515 -0.197770
C42   C     C_1   0.583958 0.013824 0.418485 -0.197770
C43   C     C_1   0.083959 0.486177 0.918486 -0.197778
C44   C     C_1   0.916041 0.513823 0.081514 -0.197778
H5    H     H_    0.212587 0.974893 0.499591 0.091041
H6    H     H_    0.787412 0.025102 0.500409 0.091041
H7    H     H_    0.287468 0.472632 0.000446 0.091138
H8    H     H_    0.712532 0.527375 0.999553 0.091138
H9    H     H_    0.129561 0.013538 0.229328 0.120540
H10   H     H_    0.870438 0.986453 0.770671 0.120540
H11   H     H_    0.370503 0.510024 0.270747 0.120562
H12   H     H_    0.629496 0.490021 0.729251 0.120561
N1    N     N_3   0.973594 0.032829 0.246030 -0.666598
H13   H     H_    0.978431 0.920418 0.203716 0.225857
H14   H     H_    0.985045 0.152842 0.211045 0.225562
N2    N     N_3   0.026405 0.967165 0.753970 -0.666598
H15   H     H_    0.021569 0.079578 0.796283 0.225856
H16   H     H_    0.014953 0.847154 0.788956 0.225562
N3    N     N_3   0.526413 0.531455 0.254005 -0.666609
H17   H     H_    0.521823 0.418820 0.296241 0.225967
H18   H     H_    0.514721 0.651197 0.289081 0.225467
N4    N     N_3   0.473587 0.468567 0.745993 -0.666610
H19   H     H_    0.478167 0.581223 0.703768 0.225970
H20   H     H_    0.485287 0.348846 0.710906 0.225466

loop_
_geom_bond_atom_site_label_1
_geom_bond_atom_site_label_2
_ccdc_geom_bond_type
O17   V3    S    
C4    C41   S    
O1    C5    A    
C28   H8    S    
C27   C31   A    
O19   V1    S    
O13   V1    S    
O3    C7    A    
C11   C12   S    
C1    C44   S    
C19   H11   S    
N3    H17   S    
O15   V3    S    
N1    H13   S    
C3    C42   S    
C15   C35   A    
H2    C21   S    
C16   C36   A    
O18   V4    S    
C22   C26   A    
C7    C38   S    
O9    V1    S    
N2    H16   S    
C26   C30   A    
O4    C8    A    
O1    V3    S    
O2    V4    S    
C14   C18   A    
O3    V1    S    
C31   C39   A    
C26   H6    S    
C33   C38   A    
C30   C38   A    
C2    O16   A    
O2    C6    A    
O14   V2    S    
C13   C33   A    
C10   C42   T    
C9    C41   T    
C27   H7    S    
C2    C43   S    
O11   C7    A    
H3    C24   S    
C11   C43   T    
O12   C8    A    
O10   V2    S    
N1    H14   S    
C1    O15   A    
O5    V1    S    
O7    V3    S    
O8    V4    S    
C36   C39   A    
C14   N2    S    
N2    H15   S    
C18   H10   S    
C25   C29   A    
C19   C23   A    
C28   C32   A    
O7    C3    A    
O5    C1    A    
N4    H20   S    
C17   C21   A    
O8    C4    A    
C13   N1    S    
C9    C10   S    
O9    C5    A    
C29   C33   A    
C30   C34   A    
C8    C37   S    
O6    V2    S    
N3    H18   S    
C5    C40   S    
C16   N4    S    
O16   V4    S    
C14   C34   A    
C35   C40   A    
C3    O13   A    
C34   C37   A    
C25   H5    S    
C29   C37   A    
O6    C2    A    
O11   V3    S    
O12   V4    S    
H4    C23   S    
C18   C22   A    
C31   C35   A    
C32   C36   A    
C15   N3    S    
O10   C6    A    
O20   V2    S    
H1    C22   S    
C20   H12   S    
N4    H19   S    
C24   C28   A    
C21   C25   A    
C23   C27   A    
C6    C39   S    
C16   C20   A    
C20   C24   A    
C32   C40   A    
C4    O14   A    
C13   C17   A    
C17   H9    S    
C15   C19   A    
O4    V2    S    
C12   C44   T    
