data_mof_unit_11320.cif
_audit_creation_date              2012-12-10T16:57:32-0500
_audit_creation_method            fapswitch 2.2
_symmetry_space_group_name_H-M    P1
_symmetry_Int_Tables_number       1
_space_group_crystal_system       triclinic
_cell_length_a                    18.704734
_cell_length_b                    18.935785
_cell_length_c                    18.99495
_cell_angle_alpha                 110.1111
_cell_angle_beta                  110.15347
_cell_angle_gamma                 109.433217
_cell_volume                      5095.14461282

loop_
_atom_site_label
_atom_site_type_symbol
_atom_type_description
_atom_site_fract_x
_atom_site_fract_y
_atom_site_fract_z
_atom_type_partial_charge
C1    C     C_R   0.621315 0.618948 0.502404 0.852116
C2    C     C_3   0.189162 0.419813 0.193783 0.449373
C3    C     C_3   0.222427 0.469930 0.292265 -0.121793
C4    C     C_3   0.317530 0.502521 0.310901 -0.087335
C5    C     C_R   0.791968 0.758911 0.663564 -0.301326
C6    C     C_R   0.870625 0.829046 0.741237 0.417611
C7    C     C_R   0.918352 0.906142 0.744063 0.273740
C8    C     C_R   0.889126 0.908454 0.665866 0.282871
C9    C     C_R   0.823429 0.829720 0.584499 -0.037974
C10   C     C_R   0.767471 0.758027 0.584252 -0.114733
C11   C     C_R   0.690924 0.685635 0.504094 -0.219355
C12   C     C_R   0.383107 0.501924 0.380224 0.879965
C13   C     C_R   0.679054 0.678148 0.423894 0.414657
C14   C     C_R   0.735206 0.748067 0.423933 0.254568
C15   C     C_R   0.810123 0.821851 0.503558 -0.205024
C16   C     C_R   0.570047 0.329965 0.626685 0.453796
C17   C     C_R   0.547780 0.266740 0.649584 -0.287463
C18   C     C_R   0.613068 0.262086 0.706098 -0.346951
C19   C     C_R   0.703179 0.324209 0.745561 0.510234
C20   C     C_R   0.724123 0.405169 0.746536 -0.026731
C21   C     C_R   0.655931 0.407323 0.684271 -0.124519
C22   C     C_R   0.674663 0.487973 0.686439 -0.166049
C23   C     C_R   0.375603 0.380428 0.493559 0.922181
C24   C     C_R   0.752620 0.565952 0.756522 0.384204
C25   C     C_R   0.821150 0.562842 0.811987 -0.337799
C26   C     C_R   0.809329 0.484520 0.807750 -0.114794
C27   C     C_R   0.194028 0.240042 0.327336 0.287290
C28   C     C_R   0.104108 0.178668 0.259295 0.286821
C29   C     C_R   0.058663 0.101061 0.256237 0.321595
C30   C     C_R   0.092871 0.096733 0.330856 -0.243364
C31   C     C_R   0.168056 0.170861 0.410279 -0.048665
C32   C     C_R   0.224553 0.241270 0.408319 -0.078392
C33   C     C_R   0.306204 0.310149 0.488245 -0.049063
C34   C     C_R   0.613685 0.494548 0.619368 0.924351
C35   C     C_R   0.326475 0.309020 0.565855 -0.184455
C36   C     C_R   0.267188 0.243421 0.567754 -0.208837
C37   C     C_R   0.187183 0.175527 0.491169 -0.035787
C38   C     C_R   0.001068 0.618915 0.119514 0.842212
C39   C     C_R   0.124021 0.500158 0.122683 0.797825
C40   C     C_R   0.004465 0.381366 0.885688 0.863960
C41   C     C_R   0.882555 0.493405 0.879126 0.883023
C42   C     C_R   0.004353 0.123240 0.618801 0.867822
C43   C     C_R   0.880017 0.883245 0.500875 0.941792
C44   C     C_R   0.998240 0.879061 0.381628 0.791585
C45   C     C_3   0.324229 0.584845 0.307740 -0.200225
C46   C     C_R   0.119579 0.115631 0.497596 0.768648
C47   C     C_R   0.833478 0.609192 0.091935 -0.258258
C48   C     C_R   0.752540 0.598404 0.083442 0.489996
C49   C     C_R   0.751826 0.653392 0.153835 -0.204417
C50   C     C_R   0.831102 0.722196 0.230365 -0.226231
C51   C     C_R   0.913581 0.737043 0.238626 0.090420
C52   C     C_R   0.914859 0.676675 0.170593 -0.035969
C53   C     C_R   0.997426 0.685909 0.182824 -0.116624
C54   C     C_R   0.077534 0.756894 0.259040 0.399348
C55   C     C_R   0.075387 0.818558 0.323483 -0.307327
C56   C     C_3   0.227597 0.551573 0.287748 -0.256761
C57   C     C_R   0.994846 0.809493 0.313780 -0.114892
C58   C     C_R   0.159716 0.364724 0.926849 -0.218027
C59   C     C_R   0.237380 0.362430 0.945705 -0.245442
C60   C     C_R   0.244149 0.309878 0.878527 0.442374
C61   C     C_R   0.170907 0.256997 0.793148 -0.162009
C62   C     C_R   0.088887 0.253157 0.773457 0.011107
C63   C     C_R   0.084906 0.311236 0.840753 0.014194
C64   C     C_R   0.007166 0.316281 0.819865 -0.128524
C65   C     C_R   0.936655 0.268254 0.732902 0.371221
C66   C     C_R   0.937773 0.205708 0.668569 -0.283289
C67   C     C_3   0.193124 0.500015 0.189215 -0.114126
C68   C     C_R   0.011598 0.195736 0.688095 -0.133744
C69   C     C_3   0.288439 0.531981 0.208883 0.446408
C70   C     C_3   0.284145 0.450206 0.212111 -0.368542
Cu1   Cu    Cu3+1 0.500510 0.438210 0.438680 0.911916
Cu2   Cu    Cu3+1 0.499490 0.561790 0.561320 0.946976
Cu3   Cu    Cu3+1 0.942090 0.438230 0.003820 0.943256
Cu4   Cu    Cu3+1 0.065710 0.561800 0.003800 1.001480
Cu5   Cu    Cu3+1 0.937720 0.000020 0.437740 0.963271
Cu6   Cu    Cu3+1 0.062280 0.999990 0.562270 0.947723
H1    H     H_    0.203189 0.592216 0.317485 0.170993
H2    H     H_    0.479389 0.215656 0.616920 0.164760
H3    H     H_    0.590993 0.206055 0.713361 0.159218
H4    H     H_    0.882866 0.623881 0.862580 0.162915
H5    H     H_    0.389065 0.359712 0.625825 0.155615
H6    H     H_    0.381725 0.652543 0.355070 0.145747
H7    H     H_    0.056970 0.036088 0.327014 0.202192
H8    H     H_    0.282969 0.246981 0.629832 0.160897
H9    H     H_    0.831368 0.564901 0.036068 0.150569
H10   H     H_    0.689406 0.643760 0.148544 0.171005
H11   H     H_    0.826716 0.762551 0.283065 0.200688
H12   H     H_    0.137084 0.874443 0.381554 0.148563
H13   H     H_    0.159524 0.409577 0.980422 0.154392
H14   H     H_    0.293083 0.403477 0.012375 0.136148
H15   H     H_    0.181176 0.222127 0.742813 0.169715
H16   H     H_    0.880503 0.164914 0.602551 0.159765
H17   H     H_    0.308377 0.409960 0.181516 0.125040
H18   H     H_    0.195877 0.443304 0.327213 0.141931
H19   H     H_    0.753645 0.702638 0.664648 0.219086
O1    O     O_R   0.590610 0.538000 0.448220 -0.601720
O2    O     O_R   0.055390 0.642370 0.093280 -0.544579
O3    O     O_R   0.042570 0.447830 0.094680 -0.594228
O4    O     O_R   0.146970 0.552180 0.094660 -0.537872
O5    O     O_R   0.952410 0.357660 0.914340 -0.596387
O6    O     O_R   0.056810 0.462010 0.914320 -0.584649
O7    O     O_R   0.860830 0.447850 0.912960 -0.569204
O8    O     O_R   0.965230 0.552200 0.912940 -0.604573
O9    O     O_R   0.946680 0.090170 0.536920 -0.586083
O10   O     O_R   0.051870 0.090150 0.642080 -0.584486
O11   O     O_R   0.857220 0.909850 0.447420 -0.599641
O12   O     O_R   0.589760 0.642360 0.551800 -0.585497
O13   O     O_R   0.962410 0.909820 0.552580 -0.574470
O14   O     O_R   0.948130 0.909870 0.357940 -0.590388
O15   O     O_R   0.053320 0.909840 0.463100 -0.588013
O16   O     O_R   0.037590 0.090200 0.447440 -0.583261
O17   O     O_R   0.142780 0.090170 0.552600 -0.597739
O18   O     O_R   0.409560 0.447830 0.357350 -0.592801
O19   O     O_R   0.408700 0.552190 0.460930 -0.592308
O20   O     O_R   0.410240 0.357640 0.448200 -0.566081
O21   O     O_R   0.409390 0.462000 0.551780 -0.607057
O22   O     O_R   0.591300 0.447810 0.539070 -0.589216
O23   O     O_R   0.590440 0.552170 0.642650 -0.583221
O24   O     O_R   0.950990 0.538020 0.093300 -0.605744
O25   O     O_3   0.988658 0.979418 0.824311 -0.611298
C71   C     C_3   0.067860 0.007058 0.822173 0.047351
H20   H     H_    0.070175 0.044649 0.788426 0.190478
H21   H     H_    0.074530 0.950563 0.788179 0.122950
C72   C     C_3   0.147244 0.067181 0.916089 -0.357179
H22   H     H_    0.140526 0.122462 0.952153 0.229186
H23   H     H_    0.148977 0.029874 0.950146 0.215639
C73   C     C_3   0.234153 0.103974 0.917607 -0.897169
H24   H     H_    0.243328 0.049956 0.883450 0.253964
H25   H     H_    0.290507 0.147351 0.986456 0.254968
H26   H     H_    0.234354 0.142828 0.885126 0.279834
O26   O     O_3   0.917470 0.986682 0.667694 -0.740266
H27   H     H_    0.938282 0.034240 0.726299 0.335176
O27   O     O_3   0.716722 0.741204 0.344460 -0.766829
H28   H     H_    0.710393 0.791782 0.347050 0.338900
O28   O     O_3   0.761697 0.645778 0.769219 -0.614855
C74   C     C_3   0.771982 0.695079 0.851261 0.116185
H29   H     H_    0.843815 0.740713 0.900910 0.165236
H30   H     H_    0.742782 0.653651 0.875019 0.101425
C75   C     C_3   0.725889 0.747582 0.843304 -0.294841
H31   H     H_    0.751291 0.788454 0.817805 0.257763
H32   H     H_    0.653572 0.701794 0.796187 0.217924
C76   C     C_3   0.740826 0.806783 0.931725 -0.921735
H33   H     H_    0.714063 0.767130 0.957738 0.248011
H34   H     H_    0.706258 0.843611 0.923728 0.257960
H35   H     H_    0.812720 0.854424 0.979468 0.280498
O29   O     O_3   0.505547 0.318897 0.553271 -0.616164
C77   C     C_3   0.473211 0.239312 0.476495 0.097231
H36   H     H_    0.404850 0.217539 0.427928 0.161382
H37   H     H_    0.466298 0.183530 0.486619 0.119799
C78   C     C_3   0.530824 0.252598 0.435762 -0.325028
H38   H     H_    0.525349 0.297276 0.411529 0.234131
H39   H     H_    0.601321 0.282296 0.485911 0.219407
C79   C     C_3   0.501590 0.165951 0.358904 -0.962710
H40   H     H_    0.510912 0.121332 0.381882 0.264698
H41   H     H_    0.542056 0.178054 0.328585 0.261332
H42   H     H_    0.430717 0.134033 0.308583 0.259480
O30   O     O_3   0.771318 0.308028 0.779168 -0.557411
C80   C     C_3   0.746697 0.228167 0.778380 0.141604
H43   H     H_    0.801404 0.214893 0.784861 0.190874
H44   H     H_    0.688603 0.170609 0.714533 0.102841
C81   C     C_3   0.737022 0.235689 0.857333 -0.368520
H45   H     H_    0.800307 0.289743 0.918864 0.248499
H46   H     H_    0.684652 0.251294 0.856296 0.207725
C82   C     C_3   0.714517 0.150990 0.858330 -0.941705
H47   H     H_    0.650680 0.095904 0.797962 0.259957
H48   H     H_    0.708241 0.158375 0.916131 0.262098
H49   H     H_    0.767821 0.135760 0.862668 0.260249
O31   O     O_3   0.248911 0.300496 0.316582 -0.609906
C83   C     C_3   0.250645 0.257577 0.239491 0.159655
H50   H     H_    0.282181 0.307342 0.225463 0.166372
H51   H     H_    0.183936 0.211087 0.179642 0.178821
C84   C     C_3   0.304420 0.211857 0.250152 -0.398938
H52   H     H_    0.375277 0.261457 0.299590 0.245235
H53   H     H_    0.280076 0.166542 0.272089 0.208397
C85   C     C_3   0.297227 0.159751 0.163834 -0.961164
H54   H     H_    0.227322 0.107161 0.113508 0.262204
H55   H     H_    0.338323 0.129174 0.173418 0.265306
H56   H     H_    0.321182 0.203593 0.140362 0.254250
O32   O     O_3   0.061150 0.194328 0.196001 -0.622299
C86   C     C_3   0.028688 0.247615 0.228886 0.105926
H57   H     H_    0.019137 0.280627 0.191291 0.216617
H58   H     H_    0.076506 0.300767 0.299049 0.124363
C87   C     C_3   0.938299 0.192720 0.215454 -0.388083
H59   H     H_    0.892709 0.138290 0.145973 0.236369
H60   H     H_    0.946046 0.164470 0.258116 0.239130
C88   C     C_3   0.897281 0.248206 0.237966 -0.915226
H61   H     H_    0.941562 0.302829 0.307389 0.258257
H62   H     H_    0.832564 0.207006 0.228575 0.262846
H63   H     H_    0.886016 0.275397 0.194543 0.257724
O33   O     O_3   0.978762 0.030399 0.183624 -0.729858
H64   H     H_    0.966123 0.040300 0.133869 0.350836
O34   O     O_3   0.157004 0.763663 0.269830 -0.724640
H65   H     H_    0.206600 0.816705 0.326951 0.317829
O35   O     O_3   0.672948 0.531389 0.007737 -0.608268
C89   C     C_3   0.659786 0.553052 0.941977 0.027821
H66   H     H_    0.695760 0.535321 0.909525 0.142699
H67   H     H_    0.683048 0.624245 0.968962 0.129320
C90   C     C_3   0.560777 0.501359 0.873849 -0.305040
H68   H     H_    0.536757 0.430107 0.841479 0.231504
H69   H     H_    0.524165 0.514645 0.907161 0.231179
C91   C     C_3   0.541529 0.526970 0.804537 -0.909831
H70   H     H_    0.568172 0.598592 0.835730 0.253766
H71   H     H_    0.468861 0.492990 0.759842 0.255019
H72   H     H_    0.571722 0.507980 0.765793 0.261450
O36   O     O_3   0.315400 0.564992 0.160641 -0.605506
C92   C     C_3   0.400322 0.578761 0.180064 0.071602
H73   H     H_    0.400864 0.516726 0.164374 0.141372
H74   H     H_    0.450339 0.628791 0.250573 0.166434
C93   C     C_3   0.424678 0.611532 0.123776 -0.319784
H75   H     H_    0.369394 0.567744 0.054239 0.234355
H76   H     H_    0.434735 0.678407 0.146219 0.221402
C94   C     C_3   0.508450 0.613649 0.128710 -0.919243
H77   H     H_    0.564342 0.655422 0.197691 0.300030
H78   H     H_    0.525903 0.641018 0.089943 0.253954
H79   H     H_    0.497307 0.546281 0.101042 0.251232
O37   O     O_3   0.869376 0.286506 0.711510 -0.718409
H80   H     H_    0.825603 0.247794 0.647654 0.319898
O38   O     O_3   0.321649 0.309523 0.893823 -0.748642
H81   H     H_    0.367005 0.350402 0.957100 0.317472
O39   O     O_3   0.117205 0.332879 0.140689 -0.608408
C95   C     C_3   0.098927 0.296058 0.053983 0.040875
H82   H     H_    0.157525 0.296204 0.051368 0.126704
H83   H     H_    0.078611 0.332433 0.024483 0.149820
C96   C     C_3   0.022016 0.201464 0.000506 -0.277970
H84   H     H_    0.045157 0.160900 0.020805 0.230339
H85   H     H_    0.967929 0.198907 0.013607 0.231779
C97   C     C_3   0.984798 0.163312 0.902380 -0.905066
H86   H     H_    0.954991 0.198911 0.879924 0.250832
H87   H     H_    0.932068 0.093569 0.866229 0.280823
H88   H     H_    0.037815 0.167887 0.887135 0.263722
O40   O     O_3   0.608015 0.604958 0.344204 -0.604370
C98   C     C_3   0.631296 0.540650 0.316522 0.105796
H89   H     H_    0.569907 0.475587 0.278972 0.162837
H90   H     H_    0.680035 0.541841 0.371913 0.124710
C99   C     C_3   0.667067 0.548589 0.256465 -0.339141
H91   H     H_    0.621892 0.553451 0.204829 0.244196
H92   H     H_    0.733730 0.608302 0.295317 0.246981
C100  C     C_3   0.675235 0.469755 0.212791 -0.923195
H93   H     H_    0.720746 0.463666 0.263191 0.253619
H94   H     H_    0.702363 0.478302 0.170777 0.280674
H95   H     H_    0.609190 0.408788 0.171068 0.256167
O41   O     O_3   0.895325 0.823013 0.815530 -0.584776
C101  C     C_3   0.971262 0.814365 0.838384 0.102063
H96   H     H_    0.988212 0.811837 0.899223 0.158914
H97   H     H_    0.029669 0.872578 0.855256 0.148315
C102  C     C_3   0.955798 0.730570 0.767398 -0.407780
H98   H     H_    0.892482 0.673460 0.744174 0.265555
H99   H     H_    0.951841 0.737235 0.710480 0.199970
C103  C     C_3   0.030883 0.713448 0.802372 -0.892959
H100  H     H_    0.095194 0.769659 0.825597 0.250530
H101  H     H_    0.018698 0.653721 0.749325 0.264487
H102  H     H_    0.034367 0.703071 0.857305 0.261971

loop_
_geom_bond_atom_site_label_1
_geom_bond_atom_site_label_2
_ccdc_geom_bond_type
C34   O23   A    
Cu3   O5    S    
C66   C68   A    
C102  H99   S    
O33   H64   S    
Cu3   O24   S    
O27   H28   S    
C46   O17   A    
C25   H4    S    
C99   H92   S    
C91   H70   S    
C19   C20   A    
C1    C11   S    
C42   O10   A    
C77   H36   S    
Cu5   Cu6   S    
C96   H84   S    
C4    C70   S    
C81   H45   S    
C35   H5    S    
C7    C8    A    
C85   H55   S    
C53   C54   A    
C52   C53   A    
C100  H95   S    
Cu2   O23   S    
C103  H100  S    
C16   C21   A    
C54   O34   S    
C47   H9    S    
C22   C24   A    
C28   C29   A    
C77   H37   S    
O29   C77   S    
C95   C96   S    
C87   H60   S    
C5    C6    A    
C75   C76   S    
C92   H74   S    
C11   C13   A    
C101  H96   S    
Cu2   O19   S    
C30   H7    S    
C93   C94   S    
C41   O7    A    
Cu1   O18   S    
C16   O29   S    
C18   C19   A    
C83   H50   S    
C55   H12   S    
C97   H86   S    
C17   H2    S    
C71   C72   S    
C80   C81   S    
C5    H19   S    
C40   O6    A    
C54   C55   A    
O30   C80   S    
C45   H6    S    
C45   C56   S    
C84   H53   S    
C16   C17   A    
C101  H97   S    
C78   C79   S    
C17   C18   A    
C86   H57   S    
C99   H91   S    
C94   H79   S    
C73   H24   S    
C90   H68   S    
C51   C57   A    
C79   H41   S    
C9    C10   A    
C61   C62   A    
C37   C46   S    
C84   C85   S    
C27   O31   S    
C89   C90   S    
C44   O14   A    
C34   O22   A    
O35   C89   S    
C23   O21   A    
C59   C60   A    
Cu6   O13   S    
C13   C14   A    
C80   H44   S    
C91   H72   S    
C83   H51   S    
C76   H35   S    
C82   H47   S    
C18   H3    S    
C91   H71   S    
C90   C91   S    
C74   C75   S    
C49   H10   S    
O39   C95   S    
C81   H46   S    
C86   H58   S    
C93   H75   S    
C85   H56   S    
C12   O19   A    
C4    C45   S    
C82   H49   S    
Cu3   Cu4   S    
Cu3   O3    S    
C22   C34   S    
C100  H94   S    
C103  H101  S    
Cu5   O14   S    
Cu1   O22   S    
C45   C69   S    
C51   C52   A    
C19   O30   S    
O28   C74   S    
C77   C78   S    
O37   H80   S    
C65   O37   S    
C74   H30   S    
C2    C67   S    
C100  H93   S    
C87   C88   S    
C92   H73   S    
C8    C9    A    
C39   O3    A    
C66   H16   S    
Cu1   O1    S    
Cu4   O8    S    
C23   C33   S    
C58   C59   A    
O36   C92   S    
C98   C99   S    
C56   H1    S    
C31   C37   A    
C96   H85   S    
C60   C61   A    
C67   C69   S    
C43   O11   A    
C87   H59   S    
C73   H25   S    
C29   C30   A    
C60   O38   S    
C13   O40   S    
C95   H82   S    
C3    C56   S    
C39   O4    A    
C47   C48   A    
Cu2   O12   S    
C44   C57   S    
Cu6   O17   S    
C101  C102  S    
C46   O16   A    
C70   H17   S    
C62   C63   A    
C98   H90   S    
C50   C51   A    
O25   C71   S    
Cu1   O20   S    
C94   H77   S    
Cu5   O16   S    
C24   C25   A    
C79   H42   S    
C71   H20   S    
C6    C7    A    
C50   H11   S    
C1    O12   A    
Cu4   O6    S    
C38   O24   A    
C24   O28   S    
O31   C83   S    
C97   H87   S    
C94   H78   S    
C49   C50   A    
C55   C57   A    
Cu5   O9    S    
C99   C100  S    
C78   H39   S    
C4    C12   S    
C88   H62   S    
C3    C4    S    
C2    O39   S    
C96   C97   S    
C27   C28   A    
C81   C82   S    
C84   H52   S    
C72   H23   S    
C12   O18   A    
C58   C63   A    
C8    O26   S    
C92   C93   S    
C102  H98   S    
C36   C37   A    
C103  H102  S    
C48   O35   S    
C27   C32   A    
C14   C15   A    
C39   C67   S    
C7    O25   S    
C31   C32   A    
C35   C36   A    
C74   H29   S    
C42   O9    A    
C40   O5    A    
C75   H31   S    
C86   C87   S    
C47   C52   A    
C14   O27   S    
O32   C86   S    
C89   H66   S    
C56   C67   S    
Cu2   O21   S    
Cu4   O4    S    
C69   O36   S    
C40   C64   S    
C62   C68   A    
O34   H65   S    
C88   H63   S    
C82   H48   S    
C2    C3    S    
C25   C26   A    
C73   H26   S    
C15   C43   S    
Cu1   Cu2   S    
C95   H83   S    
C85   H54   S    
C2    C70   S    
O26   H27   S    
C32   C33   A    
C75   H32   S    
C30   C31   A    
O38   H81   S    
C80   H43   S    
C38   C53   S    
C20   C26   A    
C36   H8    S    
C1    O1    A    
C48   C49   A    
O41   C101  S    
C64   C65   A    
C98   H89   S    
C33   C35   A    
C58   H13   S    
C3    H18   S    
C76   H34   S    
C43   O13   A    
C42   C68   S    
C9    C15   A    
C69   C70   S    
C28   O32   S    
C71   H21   S    
C10   C11   A    
C23   O20   A    
C63   C64   A    
C41   O8    A    
C5    C10   A    
C97   H88   S    
C72   H22   S    
C20   C21   A    
Cu5   O11   S    
Cu6   O15   S    
C65   C66   A    
C72   C73   S    
O40   C98   S    
C76   H33   S    
C93   H76   S    
C29   O33   S    
C6    O41   S    
C90   H69   S    
C83   C84   S    
C89   H67   S    
C88   H61   S    
C21   C22   A    
C59   H14   S    
Cu6   O10   S    
Cu3   O7    S    
Cu4   O2    S    
C61   H15   S    
C26   C41   S    
C38   O2    A    
C78   H38   S    
C79   H40   S    
C102  C103  S    
C44   O15   A    
