data_mof_unit_14461.cif
_audit_creation_date              2013-03-05T16:18:16-0500
_audit_creation_method            fapswitch 2.2
_symmetry_space_group_name_H-M    P1
_symmetry_Int_Tables_number       1
_space_group_crystal_system       triclinic
_cell_length_a                    8.34067
_cell_length_b                    19.14725
_cell_length_c                    22.696935
_cell_angle_alpha                 99.773726
_cell_angle_beta                  89.164821
_cell_angle_gamma                 92.339727
_cell_volume                      3569.02548656

loop_
_atom_site_label
_atom_site_type_symbol
_atom_site_description
_atom_site_fract_x
_atom_site_fract_y
_atom_site_fract_z
_atom_type_partial_charge
P1    P     P_3+3 0.933470 0.664380 0.557030 0.501767
O1    O     O_2   0.108070 0.674980 0.540650 -0.315706
O2    O     O_3   0.861930 0.586170 0.535430 -0.418270
O3    O     O_3   0.366390 0.628250 0.433820 -0.332313
O4    O     O_2   0.306019 0.751926 0.493830 -0.406133
O5    O     O_3   0.933470 0.690632 0.634772 -0.532363
O6    O     O_3   0.311466 0.750685 0.378840 -0.552085
C1    C     C_3   0.427868 0.821606 0.310272 -1.015001
H1    H     H_    0.312670 0.833210 0.290999 0.264948
H2    H     H_    0.454891 0.863904 0.349040 0.224108
P2    P     P_3+3 0.383600 0.440030 0.365120 0.525460
P3    P     P_3+3 0.945993 0.588853 0.325161 0.543626
O7    O     O_2   0.211060 0.461230 0.357810 -0.256787
O8    O     O_3   0.958150 0.591500 0.402390 -0.369245
O9    O     O_2   0.079012 0.539770 0.297212 -0.277148
O10   O     O_3   0.313250 0.351034 0.358649 -0.543642
O11   O     O_3   0.010931 0.672122 0.309669 -0.514412
C2    C     C_3   0.885068 0.719819 0.319986 1.091457
H3    H     H_    0.808235 0.708579 0.357861 -0.062709
C3    C     C_3   0.954486 0.795365 0.339667 -0.984677
H4    H     H_    0.008065 0.800312 0.384720 0.248261
H5    H     H_    0.049362 0.808273 0.308254 0.250193
C4    C     C_3   0.847605 0.332558 0.323501 1.299749
H6    H     H_    0.750150 0.367311 0.342537 -0.219645
C5    C     C_3   0.789449 0.264232 0.281903 -1.083309
H7    H     H_    0.707944 0.231395 0.306061 0.221209
H8    H     H_    0.730876 0.275130 0.241431 0.199369
H9    H     H_    0.892202 0.230968 0.266657 0.322908
Ba1   Ba    Ba6+2 0.157290 0.533910 0.474710 1.653585
C6    C     C_3   0.939834 0.633139 0.664881 0.383009
H10   H     H_    0.067548 0.622879 0.671705 0.086196
H11   H     H_    0.878445 0.584448 0.640950 0.120979
C7    C     C_3   0.857590 0.653741 0.725416 -0.872701
H12   H     H_    0.928036 0.697302 0.753311 0.267970
H13   H     H_    0.845441 0.608056 0.749343 0.210794
H14   H     H_    0.735295 0.671958 0.719150 0.274743
C8    C     C_3   0.414571 0.300134 0.328791 0.939902
H15   H     H_    0.535224 0.310828 0.347228 -0.172739
C9    C     C_3   0.416719 0.297877 0.260645 -0.084856
H16   H     H_    0.478254 0.249753 0.239266 0.110894
H17   H     H_    0.485420 0.344195 0.248937 -0.027133
P4    P     P_3+3 0.876840 0.335610 0.442930 0.504828
O12   O     O_2   0.702240 0.324970 0.459330 -0.413375
O13   O     O_3   0.948380 0.413820 0.464520 -0.361378
O14   O     O_3   0.443920 0.371740 0.566130 -0.354134
O15   O     O_3   0.931097 0.307284 0.367763 -0.579096
P5    P     P_3+3 0.864441 0.423166 0.675831 0.477772
O16   O     O_3   0.358830 0.538360 0.571050 -0.388399
O17   O     O_3   0.852160 0.408490 0.597560 -0.388097
O18   O     O_2   0.693407 0.439582 0.700298 -0.406540
O19   O     O_3   0.905903 0.342142 0.697931 -0.521777
Ba2   Ba    Ba6+2 0.652900 0.466090 0.525240 1.589923
P6    P     P_3+3 0.402452 0.719494 0.438163 0.452694
C10   C     C_3   0.418923 0.748737 0.329863 0.904069
H18   H     H_    0.543118 0.737116 0.340458 -0.072299
H19   H     H_    0.524230 0.823239 0.276161 0.261543
O20   O     O_3   0.451480 0.461630 0.428900 -0.380545
C11   C     C_3   0.483032 0.684732 0.618587 0.261364
H20   H     H_    0.599511 0.662661 0.602090 0.036929
H21   H     H_    0.395378 0.675148 0.581498 0.143954
C12   C     C_3   0.509612 0.764621 0.638313 -0.114569
H22   H     H_    0.609081 0.774574 0.671145 0.143153
H23   H     H_    0.545549 0.789574 0.599118 0.058544
P7    P     P_3+3 0.419376 0.561589 0.645556 0.473002
O21   O     O_2   0.599240 0.538720 0.642170 -0.378091
O22   O     O_3   0.425532 0.653843 0.667106 -0.539954
H24   H     H_    0.858822 0.834259 0.341217 0.221377
C13   C     C_3   0.831362 0.286108 0.658135 0.255450
H25   H     H_    0.715399 0.301603 0.642481 0.136804
H26   H     H_    0.907849 0.272485 0.617962 0.004305
C14   C     C_3   0.799296 0.220332 0.688094 0.596641
H27   H     H_    0.693164 0.190932 0.665018 -0.002143
P8    P     P_3+3 0.397849 0.285104 0.574622 0.407481
C15   C     C_3   0.357660 0.320355 0.687800 0.202695
H28   H     H_    0.225953 0.312151 0.681384 0.122983
O23   O     O_2   0.519976 0.242274 0.533329 -0.446098
O24   O     O_3   0.440755 0.271328 0.646692 -0.581756
H29   H     H_    0.395196 0.375144 0.682611 0.110414
C16   C     C_3   0.400198 0.310019 0.750810 0.139906
H30   H     H_    0.529562 0.324313 0.757722 0.179253
H31   H     H_    0.384429 0.252709 0.754222 0.120037
C17   C     C_R   0.949362 0.200130 0.474872 -0.339798
H32   H     H_    0.867876 0.177853 0.439360 0.153658
C18   C     C_R   0.982136 0.274849 0.484223 0.360986
C19   C     C_R   0.128570 0.190826 0.554934 -0.276582
H33   H     H_    0.167875 0.167823 0.592046 0.205096
C20   C     C_R   0.194361 0.257807 0.549653 0.210264
C21   C     C_R   0.684160 0.810965 0.449210 -0.326663
H34   H     H_    0.645170 0.835166 0.412828 0.127075
C22   C     C_R   0.614187 0.744586 0.455173 0.188304
C23   C     C_R   0.864939 0.800814 0.528628 -0.299420
H35   H     H_    0.947196 0.822265 0.564070 0.191265
C24   C     C_R   0.827371 0.727042 0.519661 0.303266
C25   C     C_R   0.015115 0.155861 0.513250 0.055780
C26   C     C_R   0.112625 0.301839 0.519010 -0.407424
H36   H     H_    0.156716 0.355833 0.519340 0.168025
C27   C     C_R   0.801791 0.844849 0.490071 0.100616
C28   C     C_R   0.695408 0.700701 0.485656 -0.421643
H37   H     H_    0.649298 0.647104 0.485996 0.153640
C29   C     C_R   0.225702 0.037780 0.543840 -0.132799
C30   C     C_R   0.318939 0.986504 0.561309 -0.087950
C31   C     C_R   0.277748 0.915904 0.542640 -0.039078
C32   C     C_R   0.136692 0.897458 0.511233 -0.160781
C33   C     C_R   0.018531 0.947597 0.508974 0.049646
C34   C     C_R   0.068534 0.021727 0.521112 0.114400
C35   C     C_R   0.857442 0.924115 0.492965 -0.051833
C36   C     C_R   0.750968 0.978322 0.483752 0.108257
C37   C     C_R   0.801916 0.052146 0.495326 0.069859
C38   C     C_R   0.962815 0.075856 0.510428 -0.002729
C39   C     C_R   0.590346 0.962707 0.464495 -0.194108
C40   C     C_R   0.494632 0.014181 0.449051 -0.119508
C41   C     C_R   0.537479 0.084432 0.468093 -0.112974
C42   C     C_R   0.683600 0.102304 0.495756 -0.143468
H38   H     H_    0.288020 0.087511 0.545174 0.125242
H39   H     H_    0.434719 0.001307 0.581721 0.144449
H40   H     H_    0.361087 0.876095 0.548951 0.163334
H41   H     H_    0.119536 0.843383 0.489427 0.185125
H42   H     H_    0.527046 0.913508 0.465282 0.135382
H43   H     H_    0.375873 0.999798 0.431150 0.135708
H44   H     H_    0.451379 0.124211 0.466289 0.129794
H45   H     H_    0.704429 0.155614 0.518148 0.180332
H46   H     H_    0.036749 0.479140 0.097613 0.198745
H47   H     H_    0.951213 0.468533 0.994277 0.177462
C43   C     C_R   0.650033 0.518072 0.333316 -0.353919
C44   C     C_R   0.444195 0.548928 0.935177 -0.050849
C45   C     C_R   0.386595 0.553122 0.877943 0.545256
O25   O     O_2   0.468919 0.585410 0.845736 -0.590026
N1    N     N_R   0.237784 0.522254 0.858575 -0.155468
C46   C     C_R   0.134111 0.498979 0.900792 0.522299
O26   O     O_2   0.002504 0.472045 0.886214 -0.614712
C47   C     C_R   0.180511 0.504464 0.961120 -0.060052
C48   C     C_R   0.338895 0.526284 0.977430 -0.010578
C49   C     C_R   0.604992 0.567121 0.951165 -0.074140
C50   C     C_R   0.660505 0.560434 0.007657 -0.136899
C51   C     C_R   0.554522 0.539728 0.050907 -0.025977
C52   C     C_R   0.392061 0.525923 0.036428 -0.009842
C53   C     C_R   0.073621 0.486452 0.005295 -0.131001
C54   C     C_R   0.122619 0.492411 0.064658 -0.061675
C55   C     C_R   0.282568 0.511849 0.080729 -0.097771
C56   C     C_R   0.335015 0.518464 0.140246 0.599217
N2    N     N_R   0.498466 0.523314 0.153711 -0.163160
C57   C     C_R   0.607729 0.531028 0.107847 0.505695
C58   C     C_2   0.046660 0.504357 0.772065 -0.183488
C59   C     C_3   0.016100 0.494166 0.704772 0.132165
C60   C     C_1   0.300957 0.511872 0.692913 0.221096
C61   C     C_2   0.333589 0.506953 0.748469 -0.144680
C62   C     C_2   0.199891 0.511281 0.794134 0.177220
C63   C     C_R   0.697598 0.555794 0.238156 -0.156959
C64   C     C_R   0.747922 0.552591 0.296306 0.104681
C65   C     C_R   0.507655 0.482579 0.312124 0.154292
C66   C     C_R   0.462721 0.481478 0.252811 -0.154223
C67   C     C_R   0.553403 0.520035 0.214653 0.163883
O27   O     O_2   0.234045 0.521678 0.179953 -0.536425
O28   O     O_2   0.751537 0.528477 0.115633 -0.641464
C68   C     C_2   0.168175 0.482233 0.668977 -0.427463
H48   H     H_    0.785640 0.573435 0.017942 0.162795
H49   H     H_    0.771929 0.586758 0.212376 0.202329
H50   H     H_    0.689608 0.584371 0.919400 0.173026
H51   H     H_    0.452627 0.492742 0.759313 0.191541
H52   H     H_    0.942250 0.512907 0.800714 0.187320
H53   H     H_    0.356105 0.450786 0.237466 0.206604
H54   H     H_    0.687745 0.517023 0.378562 0.161463
H55   H     H_    0.167354 0.452686 0.623640 0.161015
N3    N     N_R   0.364132 0.692916 0.281449 0.251845
O29   O     O_R   0.351341 0.628091 0.291240 -0.344450
O30   O     O_R   0.332985 0.705966 0.228409 -0.409533
O31   O     O_3   0.356105 0.232701 0.338652 -0.620615
C69   C     C_3   0.384301 0.223936 0.397900 -0.071308
H56   H     H_    0.511040 0.210097 0.402533 0.125258
H57   H     H_    0.303759 0.179885 0.407865 0.134153
H58   H     H_    0.356494 0.271602 0.431197 0.150823
N4    N     N_R   0.256231 0.292446 0.235480 0.298117
O32   O     O_R   0.218546 0.335189 0.199533 -0.410699
O33   O     O_R   0.170417 0.234165 0.234998 -0.344894
N5    N     N_R   0.363895 0.796439 0.665051 0.288020
O34   O     O_R   0.235678 0.795917 0.633028 -0.356952
O35   O     O_R   0.363011 0.827564 0.720638 -0.334662
N6    N     N_R   0.936390 0.174220 0.679798 0.204194
O36   O     O_R   0.072977 0.195228 0.704954 -0.445248
O37   O     O_R   0.917331 0.109077 0.652327 -0.439341
O38   O     O_3   0.766916 0.241891 0.749814 -0.613707
C70   C     C_3   0.699439 0.184614 0.774825 -0.167729
H59   H     H_    0.787329 0.142450 0.774519 0.189749
H60   H     H_    0.587696 0.162208 0.751509 0.126290
H61   H     H_    0.667045 0.204354 0.822119 0.164231
O39   O     O_3   0.313734 0.355881 0.794318 -0.643817
C71   C     C_3   0.187776 0.318226 0.818808 -0.032468
H62   H     H_    0.230089 0.270838 0.835537 0.112515
H63   H     H_    0.090228 0.303480 0.785868 0.220541
H64   H     H_    0.137102 0.352959 0.857936 0.175227
O40   O     O_3   0.785140 0.714696 0.269127 -0.690381
C72   C     C_3   0.870836 0.728086 0.217706 -0.186728
H65   H     H_    0.981191 0.697136 0.209375 0.207239
H66   H     H_    0.899659 0.785656 0.220448 0.154343
H67   H     H_    0.792525 0.711665 0.178287 0.175738
O41   O     O_3   0.958420 0.372740 0.293346 -0.576130
C73   C     C_3   0.890252 0.392495 0.242064 -0.097938
H68   H     H_    0.902986 0.349676 0.202872 0.180216
H69   H     H_    0.957610 0.439218 0.230471 0.212285
H70   H     H_    0.762181 0.405600 0.248417 0.028613

loop_
_geom_bond_atom_site_label_1
_geom_bond_atom_site_label_2
_geom_bond_distance
_ccdc_geom_bond_type
C43   C64   1.390518 A    
C45   O25   1.221536 D    
C17   C25   1.442396 A    
C16   O39   1.415239 S    
O3    P6    1.746984 S    
C14   O38   1.416856 S    
C3    H24   1.109629 S    
C26   H36   1.081900 S    
C12   N5    1.459465 S    
O14   P8    1.729421 S    
N1    C46   1.397780 Am   
C39   H42   1.063634 S    
C33   C35   1.431387 A    
N6    O36   1.299701 A    
C69   H58   1.111707 S    
C58   H52   1.080276 S    
P5    O17   1.754693 S    
C19   H33   1.075542 S    
C5    H9    1.104985 S    
C58   C62   1.372659 D    
C29   C34   1.418449 A    
C30   C31   1.377234 A    
O1    Ba1   2.899054 S    
C14   N6    1.463620 S    
O7    Ba1   2.817848 S    
N3    O29   1.297500 A    
C8    H15   1.093667 S    
C2    H3    1.109718 S    
C3    H5    1.105914 S    
C6    H10   1.108830 S    
P7    C60   1.810177 S    
O2    Ba2   2.807730 S    
O12   Ba2   2.899800 S    
O16   P7    1.750359 S    
C35   C36   1.436663 A    
C11   H21   1.109651 S    
C58   C59   1.530325 S    
C7    H14   1.110155 S    
C37   C38   1.426669 A    
N5    O35   1.300692 A    
C40   H43   1.083299 S    
P1    O1    1.511908 D    
P4    O15   1.758681 S    
C73   H69   1.104418 S    
C39   C40   1.386098 A    
C33   C34   1.444561 A    
C71   H64   1.105040 S    
C43   C65   1.393983 A    
C32   C33   1.411033 A    
C31   C32   1.386401 A    
C70   H59   1.111522 S    
C11   O22   1.405398 S    
C51   C57   1.410925 A    
C50   H48   1.082572 S    
C40   C41   1.375380 A    
C13   H25   1.104075 S    
C66   H53   1.074382 S    
C15   O24   1.403208 S    
C20   C26   1.385327 A    
C4    O41   1.420191 S    
C66   C67   1.421114 A    
O3    Ba1   2.725923 S    
C56   O27   1.220045 D    
O19   C13   1.409389 S    
O13   Ba2   2.934078 S    
C11   C12   1.527130 S    
C69   H57   1.108111 S    
O31   C69   1.407445 S    
C4    O15   1.393323 S    
C1    H19   1.111032 S    
C32   H41   1.073974 S    
P4    O13   1.589064 S    
C52   C55   1.400995 A    
P1    Ba1   3.451236 S    
C41   C42   1.382739 A    
N4    O33   1.299454 A    
C60   C61   1.313523 D    
P5    O18   1.548044 D    
C43   H54   1.082067 S    
C19   C20   1.397541 A    
C2    O40   1.421178 S    
C15   H28   1.111515 S    
C61   C62   1.506433 S    
Ba1   O16   2.765224 S    
O40   C72   1.414576 S    
C72   H67   1.109370 S    
C51   C52   1.402937 A    
P4    C18   1.865699 S    
C56   N2    1.397411 Am   
H46   C54   1.082161 S    
C8    O31   1.413688 S    
Ba2   O20   2.764580 S    
C1    C10   1.533361 S    
C9    H16   1.107911 S    
C16   H31   1.115431 S    
C1    H1    1.107522 S    
P5    O19   1.758136 S    
C61   H51   1.082733 S    
O14   Ba2   2.725450 S    
C68   H55   1.086839 S    
C5    H7    1.108767 S    
O38   C70   1.411885 S    
P5    C59   1.860180 S    
C23   C27   1.433311 A    
P1    O5    1.750713 S    
P1    O2    1.589098 S    
C18   C26   1.384058 A    
C72   H66   1.110089 S    
C37   C42   1.403645 A    
P3    O11   1.753072 S    
C73   H70   1.109013 S    
P8    O23   1.538810 D    
C9    N4    1.455883 S    
C47   C53   1.408988 A    
C23   C24   1.415268 A    
C19   C25   1.413542 A    
P2    C65   1.846299 S    
C73   H68   1.109719 S    
P3    O9    1.542319 D    
P3    O8    1.749288 S    
C48   C52   1.417921 A    
O17   Ba2   2.741646 S    
C44   C49   1.408842 A    
C3    H4    1.109635 S    
C12   H23   1.111006 S    
C7    H12   1.110552 S    
C29   H38   1.062097 S    
C57   O28   1.219101 D    
P2    Ba1   3.406348 S    
C27   C35   1.559740 S    
C13   H26   1.105565 S    
C69   H56   1.110977 S    
O5    C6    1.393881 S    
Ba1   O20   2.954933 S    
C28   H37   1.082349 S    
C17   C18   1.425909 A    
C15   C16   1.525431 S    
Ba1   O13   2.807292 S    
C49   C50   1.397398 A    
C30   H39   1.083341 S    
C36   C39   1.419581 A    
C63   C64   1.402711 A    
P4    O12   1.512129 D    
O6    P6    1.756498 S    
C36   C37   1.440762 A    
C47   C48   1.404781 A    
P8    C20   1.824820 S    
C23   H35   1.080459 S    
N4    O32   1.299780 A    
C41   H44   1.074076 S    
C46   O26   1.219343 D    
O4    P6    1.540669 D    
C34   C38   1.441062 A    
C10   H18   1.106620 S    
C45   N1    1.396750 Am   
C6    C7    1.524635 S    
P3    C64   1.850340 S    
C1    H2    1.109005 S    
C63   C67   1.423831 A    
O10   C8    1.396284 S    
C21   C22   1.403512 A    
O41   C73   1.416857 S    
N6    O37   1.300944 A    
C55   C56   1.409543 A    
N1    C62   1.478845 S    
C50   C51   1.407277 A    
C5    H8    1.101130 S    
C53   C54   1.398379 A    
H47   C53   1.082747 S    
C25   C38   1.566525 S    
O11   C2    1.410474 S    
C72   H65   1.111551 S    
C59   C68   1.500573 S    
N3    O30   1.302197 A    
C11   H20   1.109878 S    
C21   C27   1.419102 A    
C14   H27   1.116929 S    
C8    C9    1.539825 S    
N5    O34   1.300517 A    
N2    C57   1.396266 Am   
P7    O21   1.577044 D    
C6    H11   1.106162 S    
P2    O7    1.529976 D    
C44   C48   1.401619 A    
O2    Ba1   2.933174 S    
C44   C45   1.407670 A    
C13   C14   1.542085 S    
C29   C30   1.389024 A    
C7    H13   1.105808 S    
C22   C28   1.378838 A    
C2    C3    1.531974 S    
C63   H49   1.074921 S    
C4    C5    1.542869 S    
C12   H22   1.112132 S    
C49   H50   1.083497 S    
C70   H60   1.112376 S    
C71   H63   1.108132 S    
P2    O10   1.762227 S    
C31   H40   1.080699 S    
C54   C55   1.406730 A    
C4    H6    1.107458 S    
C16   H30   1.109039 S    
C60   C68   1.305858 D    
O16   Ba2   2.954001 S    
C42   H45   1.068809 S    
C21   H34   1.073503 S    
C9    H17   1.104335 S    
P1    C24   1.842845 S    
C17   H32   1.081252 S    
C15   H29   1.107454 S    
P4    Ba2   3.451833 S    
P6    C22   1.840194 S    
P8    O24   1.744895 S    
C65   C66   1.399140 A    
C71   H62   1.113116 S    
O8    Ba1   2.740912 S    
O6    C10   1.414210 S    
C10   N3    1.461058 S    
O39   C71   1.410563 S    
P2    O20   1.545533 S    
C24   C28   1.381590 A    
C70   H61   1.109172 S    
Ba2   O21   2.817951 S    
N2    C67   1.475612 S    
P7    O22   1.749877 S    
C46   C47   1.413868 A    
Ba1   Ba2   4.601235 S    
