data_mof_unit_61472.cif
_audit_creation_date              2012-12-10T19:01:14-0500
_audit_creation_method            fapswitch 2.2
_symmetry_space_group_name_H-M    P1
_symmetry_Int_Tables_number       1
_space_group_crystal_system       triclinic
_cell_length_a                    15.885551
_cell_length_b                    14.259332
_cell_length_c                    13.382675
_cell_angle_alpha                 90.002176
_cell_angle_beta                  90.023332
_cell_angle_gamma                 89.997887
_cell_volume                      3031.40776393

loop_
_atom_site_label
_atom_site_type_symbol
_atom_type_description
_atom_site_fract_x
_atom_site_fract_y
_atom_site_fract_z
_atom_type_partial_charge
C1    C     C_R   0.499996 0.326572 0.499998 0.923966
C2    C     C_1   0.499999 0.499975 0.950478 -0.052551
C3    C     C_R   0.336110 0.499539 0.500002 0.945500
C4    C     C_R   0.663892 0.499551 0.500051 0.941475
C5    C     C_R   0.499998 0.673448 0.500002 0.922349
C6    C     C_3   0.050419 0.444868 0.598761 0.171699
C7    C     C_3   0.048866 0.462773 0.398054 0.120941
C8    C     C_3   0.950019 0.455713 0.606017 0.161548
C9    C     C_3   0.949819 0.446127 0.408075 0.210256
C10   C     C_1   0.751816 0.501011 0.500461 -0.226059
C11   C     C_1   0.248201 0.501369 0.500237 -0.249466
C12   C     C_1   0.499988 0.141351 0.499998 -0.010136
C13   C     C_3   0.082371 0.504578 0.503324 0.119483
C14   C     C_3   0.917687 0.503922 0.504124 0.114212
C15   C     C_3   0.949923 0.611460 0.501941 0.167428
C16   C     C_3   0.050225 0.611241 0.515730 0.202131
C17   C     C_1   0.826375 0.502429 0.501930 -0.028573
C18   C     C_1   0.173642 0.503051 0.501339 -0.108976
C19   C     C_1   0.499991 0.225919 0.499996 -0.227868
C20   C     C_1   0.499987 0.042290 0.500002 0.005001
C21   C     C_1   0.499988 0.957728 0.500005 0.004465
C22   C     C_1   0.499991 0.858667 0.500007 -0.011933
C23   C     C_1   0.499994 0.774100 0.500006 -0.231314
C24   C     C_1   0.499999 0.499977 0.169451 0.067413
C25   C     C_1   0.499999 0.499976 0.830549 0.062982
C26   C     C_1   0.499999 0.499975 0.049522 -0.052151
H1    H     H_    0.844126 0.370940 0.627827 0.191652
H2    H     H_    0.053014 0.501226 0.248331 0.181115
H3    H     H_    0.073016 0.436773 0.752043 0.166455
H4    H     H_    0.155691 0.473356 0.687815 0.186822
H5    H     H_    0.916663 0.429808 0.257566 0.173507
H6    H     H_    0.917946 0.541130 0.288878 0.216109
H7    H     H_    0.861829 0.525475 0.693471 0.183746
H8    H     H_    0.939895 0.481171 0.759566 0.173775
H9    H     H_    0.060261 0.718805 0.621452 0.170656
H10   H     H_    0.138687 0.643079 0.624960 0.183832
H11   H     H_    0.072225 0.743193 0.454290 0.164133
H12   H     H_    0.927897 0.335886 0.691008 0.166068
H13   H     H_    0.155668 0.673998 0.450650 0.178012
H14   H     H_    0.844396 0.667090 0.573949 0.175037
H15   H     H_    0.927354 0.737227 0.576757 0.166824
H16   H     H_    0.861027 0.653106 0.397358 0.179022
H17   H     H_    0.939414 0.728347 0.408448 0.178956
H18   H     H_    0.968239 0.310298 0.469654 0.223524
H19   H     H_    0.935802 0.309219 0.353226 0.185083
H20   H     H_    0.060781 0.308065 0.653451 0.180972
H21   H     H_    0.140692 0.340611 0.582652 0.179660
H22   H     H_    0.096117 0.323214 0.419757 0.198885
H23   H     H_    0.154430 0.389836 0.345047 0.192519
H24   H     H_    0.129952 0.546907 0.315280 0.202270
N1    N     N_1   0.500000 0.499980 0.261870 -0.064821
N2    N     N_3   0.927051 0.515523 0.692300 -0.402785
N3    N     N_3   0.073402 0.647202 0.615825 -0.407284
N4    N     N_3   0.090364 0.673771 0.441259 -0.444856
N5    N     N_3   0.909773 0.666774 0.582660 -0.434630
N6    N     N_3   0.926327 0.656559 0.406666 -0.455877
N7    N     N_1   0.500000 0.499980 0.738130 -0.065782
N8    N     N_3   0.909362 0.363417 0.622018 -0.464653
N9    N     N_3   0.928869 0.345406 0.420700 -0.428409
N10   N     N_3   0.075199 0.345540 0.588607 -0.503119
N11   N     N_3   0.092411 0.375491 0.366350 -0.489592
N12   N     N_3   0.065581 0.531669 0.317929 -0.425174
N13   N     N_3   0.090234 0.479522 0.691935 -0.425811
N14   N     N_3   0.903124 0.475335 0.316699 -0.436818
O1    O     O_R   0.500000 0.373720 0.576470 -0.598020
O2    O     O_R   0.500000 0.373720 0.423530 -0.596168
O3    O     O_R   0.377150 0.500010 0.576490 -0.610748
O4    O     O_R   0.377150 0.500010 0.423510 -0.610367
O5    O     O_R   0.622850 0.500010 0.576490 -0.614991
O6    O     O_R   0.622850 0.500010 0.423510 -0.600402
O7    O     O_R   0.500000 0.626290 0.576440 -0.596582
O8    O     O_R   0.500000 0.626290 0.423560 -0.596909
Zn1   Zn    Zn3+2 0.500000 0.500010 0.602090 0.963123
Zn2   Zn    Zn3+2 0.500000 0.500010 0.397910 0.970223

loop_
_geom_bond_atom_site_label_1
_geom_bond_atom_site_label_2
_ccdc_geom_bond_type
C6    N13   S    
O6    Zn2   S    
C1    O1    A    
C9    C14   S    
H3    N13   S    
C7    N12   S    
O5    Zn1   S    
O3    Zn1   S    
H9    N3    S    
C9    N14   S    
C8    N2    S    
C9    N9    S    
H8    N2    S    
H17   N6    S    
C5    C23   S    
N1    Zn2   S    
H5    N14   S    
H14   N5    S    
H16   N6    S    
C15   N6    S    
C12   C20   S    
C24   N1    T    
C4    O6    A    
C1    O2    A    
C11   C18   T    
H12   N8    S    
C21   C22   S    
H7    N2    S    
C14   C17   S    
H22   N11   S    
C25   N7    T    
C13   C18   S    
H15   N5    S    
H11   N4    S    
C6    C8    S    
C12   C19   T    
O8    Zn2   S    
C4    O5    A    
C24   C26   S    
C5    O8    A    
C22   C23   T    
C14   C15   S    
H24   N12   S    
C3    O3    A    
C16   N4    S    
C1    C19   S    
H13   N4    S    
H23   N11   S    
C10   C17   T    
O4    Zn2   S    
C15   C16   S    
O2    Zn2   S    
C6    N10   S    
C2    C25   S    
C7    C13   S    
O1    Zn1   S    
C20   C21   T    
H6    N14   S    
C5    O7    A    
C13   C16   S    
N7    Zn1   S    
C7    C9    S    
C16   N3    S    
H19   N9    S    
C8    N8    S    
C8    C14   S    
H10   N3    S    
H18   N9    S    
C3    C11   S    
H20   N10   S    
H21   N10   S    
H4    N13   S    
C4    C10   S    
O7    Zn1   S    
C7    N11   S    
C3    O4    A    
C15   N5    S    
C2    C26   T    
C6    C13   S    
H1    N8    S    
H2    N12   S    
