data_mof_unit_9021.cif
_audit_creation_date              2012-12-11T14:52:49-0500
_audit_creation_method            fapswitch 2.2
_symmetry_space_group_name_H-M    P1
_symmetry_Int_Tables_number       1
_space_group_crystal_system       triclinic
_cell_length_a                    18.844064
_cell_length_b                    10.914013
_cell_length_c                    18.699309
_cell_angle_alpha                 90.042345
_cell_angle_beta                  90.821078
_cell_angle_gamma                 89.930075
_cell_volume                      3845.38265791

loop_
_atom_site_label
_atom_site_type_symbol
_atom_type_description
_atom_site_fract_x
_atom_site_fract_y
_atom_site_fract_z
_atom_type_partial_charge
C1    C     C_R   0.289602 0.998325 0.861061 0.557726
C2    C     C_R   0.703572 0.510903 0.041880 -0.138632
C3    C     C_3   0.010208 0.326733 0.068969 0.053216
C4    C     C_R   0.796593 0.011007 0.958113 -0.138369
C5    C     C_R   0.203569 0.010912 0.041876 -0.138515
C6    C     C_R   0.285320 0.481168 0.029625 -0.139819
C7    C     C_R   0.714843 0.481086 0.970345 -0.140088
C8    C     C_R   0.785316 0.981159 0.029621 -0.139832
C9    C     C_R   0.214842 0.981092 0.970342 -0.140323
C10   C     C_R   0.223321 0.521542 0.063484 0.022849
C11   C     C_R   0.776735 0.521576 0.936474 0.023289
C12   C     C_R   0.723320 0.021540 0.063482 0.023161
C13   C     C_R   0.710421 0.998264 0.138886 0.556618
C14   C     C_R   0.276736 0.021574 0.936473 0.023280
C15   C     C_R   0.171129 0.583922 0.024231 -0.145391
C16   C     C_R   0.828851 0.584001 0.975724 -0.145573
C17   C     C_R   0.671128 0.083920 0.024229 -0.145571
C18   C     C_R   0.328853 0.083998 0.975722 -0.145463
C19   C     C_R   0.181694 0.611530 0.953513 -0.144156
C20   C     C_R   0.818295 0.611577 0.046460 -0.143828
C21   C     C_R   0.681691 0.111520 0.953509 -0.143965
C22   C     C_R   0.318294 0.111580 0.046458 -0.143835
C23   C     C_R   0.245227 0.578988 0.920278 0.030307
C24   C     C_R   0.789601 0.498328 0.861061 0.557534
C25   C     C_R   0.754849 0.578944 0.079716 0.031116
C26   C     C_R   0.745223 0.078974 0.920273 0.031379
C27   C     C_R   0.254847 0.078951 0.079713 0.030923
C28   C     C_R   0.534454 0.722542 0.549072 -0.138508
C29   C     C_R   0.553363 0.720587 0.477954 -0.143126
C30   C     C_R   0.033443 0.223845 0.549075 -0.125493
C31   C     C_R   0.049387 0.221199 0.477404 -0.131098
C32   C     C_R   0.548653 0.827425 0.436906 0.020853
C33   C     C_R   0.509603 0.831279 0.580217 0.022637
C34   C     C_R   0.044149 0.327530 0.436252 0.027904
C35   C     C_R   0.210421 0.498264 0.138887 0.557184
C36   C     C_R   0.008350 0.332145 0.580146 0.030596
C37   C     C_R   0.530721 0.939042 0.469638 -0.132327
C38   C     C_R   0.510734 0.940796 0.541078 -0.141241
C39   C     C_R   0.023720 0.438281 0.468162 -0.135553
C40   C     C_R   0.005703 0.440617 0.540026 -0.135280
C41   C     C_R   0.470794 0.821453 0.855374 0.542892
C42   C     C_R   0.529260 0.821465 0.144595 0.551820
C43   C     C_R   0.970790 0.321452 0.855378 0.541902
C44   C     C_R   0.029256 0.321465 0.144598 0.549999
C45   C     C_R   0.217469 0.726979 0.522907 -0.113986
C46   C     C_3   0.529694 0.725669 0.971768 -0.112104
C47   C     C_R   0.727994 0.704129 0.477402 -0.113168
C48   C     C_R   0.704420 0.182226 0.527191 -0.132792
C49   C     C_R   0.283535 0.208303 0.477390 -0.123346
C50   C     C_R   0.204700 0.695806 0.452648 0.102811
C51   C     C_R   0.734050 0.684168 0.550326 0.066175
C52   C     C_R   0.704777 0.181900 0.454065 0.079779
C53   C     C_R   0.284399 0.198997 0.551009 0.088696
C54   C     C_R   0.251471 0.611643 0.418946 0.061095
C55   C     C_R   0.757124 0.569615 0.573407 0.082166
C56   C     C_R   0.751941 0.102211 0.419315 0.062349
C57   C     C_3   0.470554 0.725671 0.028087 -0.112173
C58   C     C_R   0.244436 0.105829 0.582748 0.075573
C59   C     C_R   0.314329 0.575214 0.454020 -0.169583
C60   C     C_R   0.775347 0.476352 0.525386 -0.156365
C61   C     C_R   0.807053 0.044263 0.457647 -0.166741
C62   C     C_R   0.193491 0.041738 0.542425 -0.177679
C63   C     C_R   0.326236 0.608901 0.524862 -0.155140
C64   C     C_R   0.769562 0.496662 0.452894 -0.171480
C65   C     C_R   0.809367 0.052613 0.531313 -0.164293
C66   C     C_R   0.193771 0.050124 0.468832 -0.160576
C67   C     C_R   0.274648 0.677430 0.560494 0.004415
C68   C     C_3   0.029683 0.225666 0.971774 -0.112165
C69   C     C_R   0.744985 0.609596 0.429682 0.022487
C70   C     C_R   0.755734 0.116448 0.566314 -0.000668
C71   C     C_R   0.241286 0.128444 0.436087 0.017957
C72   C     C_R   0.260067 0.634766 0.851284 0.550133
C73   C     C_R   0.739957 0.634763 0.148726 0.540984
C74   C     C_R   0.760065 0.134760 0.851282 0.542278
C75   C     C_R   0.239956 0.134765 0.148725 0.545164
C76   C     C_R   0.269186 0.051660 0.648949 0.578339
C77   C     C_R   0.730216 0.050898 0.351625 0.568789
C78   C     C_R   0.771125 0.546077 0.646554 0.599314
C79   C     C_3   0.970544 0.225674 0.028093 -0.112220
C80   C     C_R   0.228981 0.549364 0.353419 0.563661
C81   C     C_R   0.471857 0.823521 0.647764 0.544510
C82   C     C_R   0.562714 0.819469 0.360452 0.560924
C83   C     C_R   0.971858 0.323676 0.647986 0.548228
C84   C     C_R   0.061027 0.319677 0.360681 0.558711
C85   C     C_R   0.275895 0.693520 0.637340 0.576342
C86   C     C_R   0.740189 0.636486 0.355944 0.542895
C87   C     C_R   0.761141 0.141309 0.641532 0.551526
C88   C     C_R   0.237568 0.146901 0.360087 0.556134
C89   C     C_3   0.470578 0.927585 0.028474 -0.131431
C90   C     C_R   0.296598 0.511022 0.958117 -0.138578
C91   C     C_3   0.529428 0.927583 0.971576 -0.131780
C92   C     C_3   0.970573 0.427588 0.028479 -0.131794
C93   C     C_3   0.029423 0.427580 0.971581 -0.131549
C94   C     C_3   0.430264 0.826614 0.986456 -0.107041
C95   C     C_3   0.569863 0.826573 0.013502 -0.108708
C96   C     C_3   0.930256 0.326620 0.986461 -0.107036
C97   C     C_3   0.069855 0.326567 0.013507 -0.108572
C98   C     C_3   0.489906 0.826770 0.930989 0.055619
C99   C     C_3   0.510216 0.826733 0.068964 0.053284
C100  C     C_3   0.989898 0.326770 0.930994 0.056167
Cr1   Cr    Cr6+3 0.229630 0.835900 0.747350 1.001278
Cr2   Cr    Cr6+3 0.614200 0.677120 0.250660 1.015748
Cr3   Cr    Cr6+3 0.885800 0.177120 0.749340 1.014421
Cr4   Cr    Cr6+3 0.114200 0.177120 0.250660 1.018092
Cr5   Cr    Cr6+3 0.770370 0.835900 0.252650 1.008185
Cr6   Cr    Cr6+3 0.729630 0.335900 0.747350 1.012943
Cr7   Cr    Cr6+3 0.270370 0.335900 0.252650 1.008655
Cr8   Cr    Cr6+3 0.387410 0.989850 0.750850 1.019511
Cr9   Cr    Cr6+3 0.612590 0.989850 0.249150 1.022131
Cr10  Cr    Cr6+3 0.887410 0.489850 0.750850 1.017729
Cr11  Cr    Cr6+3 0.112590 0.489850 0.249150 1.022531
Cr12  Cr    Cr6+3 0.385800 0.677120 0.749340 1.017017
H1    H     H_    0.372600 0.824713 0.973595 0.115616
H2    H     H_    0.796138 0.389408 0.544344 0.132037
H3    H     H_    0.844943 0.985243 0.431422 0.143432
H4    H     H_    0.157256 0.978645 0.567303 0.115833
H5    H     H_    0.372809 0.574275 0.552842 0.140362
H6    H     H_    0.784658 0.425922 0.415355 0.135390
H7    H     H_    0.851661 0.007025 0.560798 0.138392
H8    H     H_    0.156672 0.997470 0.437141 0.133760
H9    H     H_    0.449212 0.009489 0.055554 0.112487
H10   H     H_    0.550719 0.009487 0.944592 0.111682
H11   H     H_    0.949210 0.509493 0.055560 0.112123
H12   H     H_    0.627528 0.824644 0.026371 0.115651
H13   H     H_    0.050719 0.509483 0.944599 0.111863
H14   H     H_    0.554527 0.643732 0.947280 0.123135
H15   H     H_    0.445822 0.643734 0.052491 0.123438
H16   H     H_    0.054513 0.143726 0.947286 0.122438
H17   H     H_    0.945809 0.143740 0.052498 0.123135
H18   H     H_    0.346201 0.485593 0.933569 0.130585
H19   H     H_    0.654039 0.485403 0.066452 0.130638
H20   H     H_    0.846195 0.985575 0.933563 0.130018
H21   H     H_    0.154035 0.985417 0.066446 0.130724
H22   H     H_    0.325747 0.430288 0.058743 0.131372
H23   H     H_    0.872592 0.324721 0.973601 0.115604
H24   H     H_    0.674486 0.430148 0.941221 0.131303
H25   H     H_    0.825743 0.930278 0.058740 0.131459
H26   H     H_    0.174484 0.930156 0.941217 0.131204
H27   H     H_    0.121965 0.613066 0.048386 0.135147
H28   H     H_    0.877948 0.613202 0.951561 0.135021
H29   H     H_    0.621965 0.113068 0.048385 0.135192
H30   H     H_    0.377951 0.113195 0.951560 0.135285
H31   H     H_    0.140854 0.664043 0.926006 0.128779
H32   H     H_    0.859065 0.664154 0.073963 0.129371
H33   H     H_    0.640851 0.164032 0.926001 0.128737
H34   H     H_    0.127520 0.324635 0.026376 0.115284
H35   H     H_    0.359065 0.164156 0.073961 0.129356
H36   H     H_    0.535717 0.637075 0.578485 0.139940
H37   H     H_    0.569852 0.634489 0.454490 0.135434
H38   H     H_    0.035930 0.138660 0.578731 0.131639
H39   H     H_    0.062988 0.134544 0.453371 0.128867
H40   H     H_    0.528726 0.023535 0.439388 0.135533
H41   H     H_    0.492233 0.025879 0.564169 0.132458
H42   H     H_    0.017790 0.520997 0.436931 0.126661
H43   H     H_    0.985516 0.524874 0.562702 0.136157
H44   H     H_    0.101879 0.668316 0.428202 0.233039
H45   H     H_    0.178247 0.781145 0.550153 0.124535
H46   H     H_    0.118861 0.812407 0.446702 0.195187
H47   H     H_    0.755440 0.849401 0.593271 0.235857
H48   H     H_    0.668382 0.814556 0.588782 0.238920
H49   H     H_    0.602644 0.225320 0.430408 0.223920
H50   H     H_    0.658198 0.345774 0.432103 0.224882
H51   H     H_    0.379974 0.273837 0.575217 0.222476
H52   H     H_    0.310001 0.369674 0.583685 0.235651
H53   H     H_    0.710684 0.792996 0.457821 0.114590
H54   H     H_    0.664932 0.238946 0.552795 0.142958
H55   H     H_    0.315905 0.278342 0.452963 0.132737
H56   H     H_    0.351489 0.513784 0.428629 0.128571
N1    N     N_3   0.139313 0.736904 0.419724 -0.585159
N2    N     N_3   0.718738 0.779282 0.600618 -0.629843
N3    N     N_3   0.653213 0.254675 0.415760 -0.596797
N4    N     N_3   0.327747 0.280317 0.593065 -0.596079
O1    O     O_R   0.214270 0.709000 0.827470 -0.531025
O2    O     O_R   0.543270 0.717630 0.330160 -0.507880
O3    O     O_R   0.956730 0.217630 0.669840 -0.523415
O4    O     O_R   0.043270 0.217630 0.330160 -0.513972
O5    O     O_R   0.320620 0.625640 0.672920 -0.497060
O6    O     O_R   0.679380 0.625640 0.327080 -0.517976
O7    O     O_R   0.820620 0.125640 0.672920 -0.498419
O8    O     O_R   0.179380 0.125640 0.327080 -0.514524
O9    O     O_3   0.334280 0.834290 0.749180 -0.292356
O10   O     O_3   0.665720 0.834290 0.250820 -0.293686
O11   O     O_3   0.834280 0.334290 0.749180 -0.272427
O12   O     O_R   0.785730 0.709000 0.172530 -0.533160
O13   O     O_3   0.165720 0.334290 0.250820 -0.292441
O14   O     O_R   0.236160 0.958490 0.823130 -0.504140
O15   O     O_R   0.763840 0.958490 0.176870 -0.501164
O16   O     O_R   0.736160 0.458490 0.823130 -0.501124
O17   O     O_R   0.263840 0.458490 0.176870 -0.499740
O18   O     O_R   0.332080 0.075470 0.831280 -0.512474
O19   O     O_R   0.667920 0.075470 0.168720 -0.514163
O20   O     O_R   0.832080 0.575470 0.831280 -0.513514
O21   O     O_R   0.167920 0.575470 0.168720 -0.511689
O22   O     O_R   0.446300 0.918110 0.826620 -0.520688
O23   O     O_R   0.714270 0.209000 0.827470 -0.534103
O24   O     O_R   0.553700 0.918110 0.173380 -0.516684
O25   O     O_R   0.946300 0.418110 0.826620 -0.521512
O26   O     O_R   0.053700 0.418110 0.173380 -0.516978
O27   O     O_R   0.457110 0.716200 0.831760 -0.517571
O28   O     O_R   0.542890 0.716200 0.168240 -0.513563
O29   O     O_R   0.957110 0.216200 0.831760 -0.519327
O30   O     O_R   0.042890 0.216200 0.168240 -0.514036
O31   O     O_R   0.320980 0.624310 0.823030 -0.497761
O32   O     O_R   0.679020 0.624310 0.176970 -0.502705
O33   O     O_R   0.820980 0.124310 0.823030 -0.502631
O34   O     O_R   0.285730 0.209000 0.172530 -0.531259
O35   O     O_R   0.179020 0.124310 0.176970 -0.500630
O36   O     O_R   0.213890 0.710430 0.665540 -0.518727
O37   O     O_R   0.786110 0.710430 0.334460 -0.510624
O38   O     O_R   0.713890 0.210430 0.665540 -0.528146
O39   O     O_R   0.286110 0.210430 0.334460 -0.522667
O40   O     O_R   0.235810 0.959820 0.673020 -0.537822
O41   O     O_R   0.764190 0.959820 0.326980 -0.517944
O42   O     O_R   0.735810 0.459820 0.673020 -0.509465
O43   O     O_R   0.264190 0.459820 0.326980 -0.516283
O44   O     O_R   0.331700 0.076900 0.669350 -0.474877
O45   O     O_R   0.445950 0.919440 0.676520 -0.503556
O46   O     O_R   0.668300 0.076900 0.330650 -0.482837
O47   O     O_R   0.831700 0.576900 0.669350 -0.504930
O48   O     O_R   0.168300 0.576900 0.330650 -0.488136
O49   O     O_R   0.554050 0.919440 0.323480 -0.499840
O50   O     O_R   0.945950 0.419440 0.676520 -0.505593
O51   O     O_R   0.054050 0.419440 0.323480 -0.503607
O52   O     O_R   0.456730 0.717630 0.669840 -0.532117

loop_
_geom_bond_atom_site_label_1
_geom_bond_atom_site_label_2
_ccdc_geom_bond_type
C95   H12   S    
C58   C62   A    
C21   C26   A    
C44   O26   A    
C13   O15   A    
H47   N2    S    
C83   O3    A    
C43   O25   A    
C97   H34   S    
H44   N1    S    
C60   H2    S    
C2    C7    A    
C86   O37   A    
C86   O6    A    
C4    C8    A    
C3    C79   S    
C78   O42   A    
C68   C100  S    
C58   C76   S    
Cr4   O4    S    
C82   O49   A    
C1    O14   A    
C15   C19   A    
Cr4   O13   S    
C50   C54   A    
Cr8   O9    S    
C89   C99   S    
Cr3   O11   S    
C28   C29   A    
C37   C38   A    
C91   C98   S    
C49   H55   S    
C29   C32   A    
C10   C15   A    
C59   H56   S    
Cr9   O10   S    
C30   C31   A    
C47   H53   S    
C75   O34   A    
C95   C99   S    
C77   O46   A    
C30   H38   S    
Cr7   O39   S    
C20   C25   A    
C94   C98   S    
C36   C83   S    
C65   C70   A    
Cr6   O38   S    
C11   C24   S    
C92   C96   S    
C64   H6    S    
Cr9   O24   S    
C17   H29   S    
C11   C16   A    
Cr4   O35   S    
C89   C94   S    
C22   C27   A    
Cr2   O32   S    
C68   C97   S    
C47   C69   A    
Cr7   O34   S    
Cr9   O46   S    
C53   N4    S    
C5    C27   A    
C83   O50   A    
Cr1   O1    S    
H50   N3    S    
C82   O2    A    
C88   O39   A    
C12   C17   A    
C61   H3    S    
C40   H43   S    
C10   C35   S    
Cr5   O10   S    
C80   O43   A    
C68   H16   S    
Cr12  O27   S    
Cr3   O7    S    
C41   O27   A    
Cr12  O31   S    
C1    O18   A    
C76   O40   A    
C68   C79   S    
C46   C98   S    
C35   O17   A    
C15   H27   S    
C66   H8    S    
C55   C60   A    
Cr10  O25   S    
C44   O30   A    
Cr12  O52   S    
Cr8   O18   S    
C16   H28   S    
C34   C84   S    
C27   C75   S    
C70   C87   S    
C52   N3    S    
C94   H1    S    
C57   H15   S    
C88   O8    A    
C96   H23   S    
C54   C80   S    
C54   C59   A    
Cr1   O40   S    
Cr6   O42   S    
C73   O32   A    
C63   C67   A    
C3    C44   S    
C67   C85   S    
C28   H36   S    
Cr10  O11   S    
C62   C66   A    
C39   H42   S    
C77   O41   A    
C34   C39   A    
Cr2   O10   S    
C36   C40   A    
C45   H45   S    
C43   C100  S    
C4    H20   S    
C92   H11   S    
C39   C40   A    
C55   C78   S    
C19   C23   A    
C47   C51   A    
C51   C55   A    
C6    C90   A    
C29   H37   S    
C91   H10   S    
C63   H5    S    
C17   C21   A    
C56   C77   S    
C3    C92   S    
C90   H18   S    
C7    C11   A    
C9    C14   A    
Cr3   O29   S    
C6    C10   A    
C5    C9    A    
C41   O22   A    
H51   N4    S    
Cr1   O36   S    
Cr2   O28   S    
C78   O47   A    
C31   H39   S    
C9    H26   S    
C76   O44   A    
C66   C71   A    
C18   H30   S    
C16   C20   A    
C81   O45   A    
Cr7   O17   S    
C84   O51   A    
Cr3   O3    S    
C2    H19   S    
C65   H7    S    
C31   C34   A    
Cr7   O43   S    
C24   O20   A    
Cr11  O51   S    
C32   C37   A    
C22   H35   S    
C42   O24   A    
Cr10  O47   S    
C93   C100  S    
Cr8   O44   S    
Cr11  O21   S    
C5    H21   S    
C53   C58   A    
Cr8   O45   S    
C85   O5    A    
Cr12  O9    S    
C72   O1    A    
C28   C33   A    
C57   C94   S    
C72   O31   A    
C46   C57   S    
Cr11  O13   S    
Cr2   O6    S    
C87   O38   A    
H52   N4    S    
C89   C91   S    
Cr11  O48   S    
Cr5   O37   S    
Cr8   O22   S    
Cr1   O14   S    
Cr10  O50   S    
C93   C97   S    
Cr9   O49   S    
C52   C56   A    
C24   O16   A    
C75   O35   A    
C73   O12   A    
C81   O52   A    
C74   O23   A    
C50   N1    S    
C19   H31   S    
C3    C97   S    
C18   C22   A    
C23   C72   S    
C46   H14   S    
C51   N2    S    
Cr3   O33   S    
C48   C70   A    
Cr5   O41   S    
C80   O48   A    
C4    C26   A    
C20   H32   S    
H46   N1    S    
C45   C67   A    
Cr4   O30   S    
Cr2   O2    S    
C32   C82   S    
Cr7   O13   S    
C59   C63   A    
C33   C38   A    
C13   O19   A    
C30   C36   A    
C60   C64   A    
Cr5   O15   S    
C79   H17   S    
C42   O28   A    
Cr6   O23   S    
Cr6   O16   S    
C79   C96   S    
Cr11  O26   S    
C84   O4    A    
C42   C99   S    
C23   C90   A    
Cr4   O8    S    
C89   H9    S    
C45   C50   A    
Cr9   O19   S    
C49   C53   A    
C96   C100  S    
Cr10  O20   S    
C92   C93   S    
C26   C74   S    
C14   C18   A    
C2    C25   A    
C25   C73   S    
Cr5   O12   S    
C64   C69   A    
C46   C95   S    
Cr1   O9    S    
C93   H13   S    
Cr6   O11   S    
C62   H4    S    
C35   O21   A    
C87   O7    A    
C71   C88   S    
H49   N3    S    
C61   C65   A    
C7    H24   S    
C48   H54   S    
C12   C13   S    
C91   C95   S    
C6    H22   S    
C49   C71   A    
H48   N2    S    
C43   O29   A    
C8    H25   S    
C1    C14   S    
C37   H40   S    
C38   H41   S    
C48   C52   A    
C33   C81   S    
C56   C61   A    
C41   C98   S    
C69   C86   S    
C8    C12   A    
C85   O36   A    
C21   H33   S    
Cr12  O5    S    
C74   O33   A    
C57   C99   S    
