data_mof_unit_18252.cif
_audit_creation_date              2012-12-10T17:15:48-0500
_audit_creation_method            fapswitch 2.2
_symmetry_space_group_name_H-M    P1
_symmetry_Int_Tables_number       1
_space_group_crystal_system       triclinic
_cell_length_a                    10.222149
_cell_length_b                    10.614264
_cell_length_c                    10.684861
_cell_angle_alpha                 90.86879
_cell_angle_beta                  95.104809
_cell_angle_gamma                 82.767992
_cell_volume                      1145.51989139

loop_
_atom_site_label
_atom_site_type_symbol
_atom_type_description
_atom_site_fract_x
_atom_site_fract_y
_atom_site_fract_z
_atom_type_partial_charge
C1    C     C_R   0.445016 0.513761 0.267020 0.765849
C2    C     C_2   0.497140 0.577604 0.934659 0.757389
C3    C     C_2   0.072766 0.490221 0.484014 0.116731
C4    C     C_R   0.505972 0.262906 0.524525 0.895673
C5    C     C_2   0.939925 0.474378 0.526500 0.770209
C6    C     C_R   0.555445 0.498050 0.732915 0.939333
C7    C     C_R   0.506039 0.739819 0.515113 0.895110
C8    C     C_R   0.767580 0.102726 0.558964 0.578227
C9    C     C_R   0.866029 0.035583 0.495077 0.558944
C10   C     C_R   0.865407 0.905045 0.479424 -0.033846
C11   C     C_R   0.767851 0.848407 0.536065 0.094900
C12   C     C_R   0.644460 0.054174 0.561226 -0.186889
C13   C     C_R   0.643822 0.922516 0.548421 -0.093249
C14   C     C_3   0.183790 0.164762 0.619700 -0.480081
C15   C     C_3   0.067092 0.522135 0.257946 -0.531428
C16   C     C_3   0.098847 0.836137 0.454970 -0.547687
C17   C     C_3   0.778914 0.753962 0.744741 -0.566762
C18   C     C_R   0.522555 0.131981 0.570852 -0.207835
C19   C     C_R   0.415996 0.078638 0.614065 0.067827
C20   C     C_R   0.416724 0.947179 0.605355 0.606400
C21   C     C_R   0.522282 0.871262 0.554381 -0.237040
C22   C     C_2   0.416437 0.541678 0.134419 0.511584
C23   C     C_2   0.515790 0.566818 0.069085 -0.402359
C24   C     C_2   0.586618 0.512752 0.866379 -0.538613
F1    F     F_    0.291648 0.540383 0.078722 -0.611395
F2    F     F_    0.917873 0.491692 0.649307 -0.627490
F3    F     F_    0.868922 0.390452 0.340564 -0.562490
F4    F     F_    0.128657 0.586431 0.667339 -0.494349
F5    F     F_    0.794005 0.211497 0.619491 -0.609546
F6    F     F_    0.959482 0.098033 0.450303 -0.646312
F7    F     F_    0.318570 0.892920 0.652623 -0.634170
F8    F     F_    0.382496 0.642454 0.881425 -0.519531
H1    H     H_    0.616271 0.565567 0.112690 0.140684
H2    H     H_    0.084240 0.467886 0.170081 0.291769
H3    H     H_    0.940660 0.738887 0.393491 0.199759
H4    H     H_    0.162558 0.766139 0.402234 0.218293
H5    H     H_    0.115949 0.814269 0.556710 0.296928
H6    H     H_    0.128512 0.930252 0.436210 0.278309
H7    H     H_    0.909932 0.710617 0.611627 0.280109
H8    H     H_    0.825173 0.668959 0.798901 0.279968
H9    H     H_    0.670621 0.760907 0.751055 0.208427
H10   H     H_    0.817356 0.839116 0.788704 0.223660
H11   H     H_    0.679831 0.465802 0.910110 0.171943
H12   H     H_    0.344258 0.238461 0.715738 0.251406
H13   H     H_    0.118729 0.234742 0.671867 0.254945
H14   H     H_    0.144795 0.072265 0.622632 0.283625
H15   H     H_    0.180768 0.197086 0.520996 0.236130
H16   H     H_    0.193221 0.381813 0.363562 0.272087
H17   H     H_    0.125048 0.603542 0.262705 0.237078
H18   H     H_    0.960857 0.560837 0.253538 0.222526
N1    N     N_2   0.157290 0.551390 0.551110 0.116729
N2    N     N_2   0.842740 0.448550 0.448960 0.112352
N3    N     N_2   0.317424 0.154228 0.678586 -0.285509
N4    N     N_2   0.104392 0.438737 0.365072 -0.295308
N5    N     N_2   0.961697 0.830027 0.412225 -0.298688
N6    N     N_2   0.810931 0.741226 0.615086 -0.254515
O1    O     O_R   0.568950 0.489660 0.307530 -0.598089
O2    O     O_R   0.348880 0.522640 0.340350 -0.633656
O3    O     O_R   0.610060 0.300270 0.483590 -0.524259
O4    O     O_R   0.389990 0.333260 0.516410 -0.665150
O5    O     O_R   0.651120 0.477360 0.659650 -0.537676
O6    O     O_R   0.431050 0.510340 0.692470 -0.507273
O7    O     O_R   0.610010 0.666740 0.483590 -0.617353
O8    O     O_R   0.389940 0.699730 0.516410 -0.565175
Zn1   Zn    Zn3+2 0.646940 0.477980 0.478090 1.119142
Zn2   Zn    Zn3+2 0.353060 0.522020 0.521910 1.059675

loop_
_geom_bond_atom_site_label_1
_geom_bond_atom_site_label_2
_ccdc_geom_bond_type
C23   H1    S    
O7    Zn1   S    
C5    N2    D    
C14   H15   S    
C1    O1    A    
C17   H8    S    
C9    C10   A    
C15   H2    S    
H7    N6    S    
C16   H5    S    
C8    C12   A    
C6    C24   S    
C19   N3    S    
C16   N5    S    
C13   C21   A    
C1    C22   S    
C14   H14   S    
C7    C21   S    
C1    O2    A    
O3    Zn1   S    
H16   N4    S    
C10   N5    S    
C11   C13   A    
C17   N6    S    
C4    O4    A    
C6    O6    A    
C9    F6    S    
C8    F5    S    
H12   N3    S    
C6    O5    A    
C3    N4    S    
C22   F1    S    
C14   H13   S    
C15   H17   S    
C2    C24   D    
F3    N2    S    
F4    N1    S    
C17   H9    S    
C7    O8    A    
C10   C11   A    
N1    Zn2   S    
O4    Zn2   S    
C5    F2    S    
C15   N4    S    
O5    Zn1   S    
C14   N3    S    
C12   C13   A    
C4    O3    A    
C2    F8    S    
C18   C19   A    
C7    O7    A    
C15   H18   S    
C12   C18   A    
C2    C23   S    
N2    Zn1   S    
C24   H11   S    
O6    Zn2   S    
C17   H10   S    
C3    N1    D    
O1    Zn1   S    
C20   C21   A    
C22   C23   D    
H3    N5    S    
C4    C18   S    
O2    Zn2   S    
C16   H4    S    
C11   N6    S    
C19   C20   A    
C16   H6    S    
C8    C9    A    
C3    C5    S    
C20   F7    S    
O8    Zn2   S    
