data_mof_unit_47172.cif
_audit_creation_date              2012-12-11T14:01:30-0500
_audit_creation_method            fapswitch 2.2
_symmetry_space_group_name_H-M    P1
_symmetry_Int_Tables_number       1
_space_group_crystal_system       triclinic
_cell_length_a                    19.208617
_cell_length_b                    10.952844
_cell_length_c                    18.975133
_cell_angle_alpha                 90.220792
_cell_angle_beta                  89.729757
_cell_angle_gamma                 90.05835
_cell_volume                      3992.0829368

loop_
_atom_site_label
_atom_site_type_symbol
_atom_type_description
_atom_site_fract_x
_atom_site_fract_y
_atom_site_fract_z
_atom_type_partial_charge
C1    C     C_R   0.272743 0.043208 0.853088 0.543545
C2    C     C_R   0.727466 0.043171 0.147057 0.547042
C3    C     C_R   0.772744 0.543206 0.853089 0.543528
C4    C     C_R   0.227466 0.543169 0.147057 0.547033
C5    C     C_R   0.464698 0.046804 0.083359 0.330012
C6    C     C_R   0.486749 0.073513 0.937104 0.302888
C7    C     C_R   0.964711 0.546809 0.083360 0.330042
C8    C     C_R   0.986775 0.573511 0.937109 0.302901
C9    C     C_R   0.956285 0.660212 0.050363 -0.116190
C10   C     C_R   0.969419 0.673342 0.979329 -0.129160
C11   C     C_R   0.456246 0.160198 0.050358 -0.116189
C12   C     C_R   0.469370 0.173331 0.979322 -0.129007
C13   C     C_2   0.253659 0.580237 0.921870 0.265856
C14   C     C_2   0.746655 0.578902 0.078912 0.272584
C15   C     C_2   0.753668 0.080233 0.921872 0.265871
C16   C     C_2   0.246651 0.078916 0.078907 0.272581
C17   C     C_2   0.250034 0.595303 0.080042 -0.092825
C18   C     C_2   0.750680 0.595604 0.920329 -0.092319
C19   C     C_2   0.750033 0.095312 0.080044 -0.092831
C20   C     C_2   0.250676 0.095616 0.920325 -0.092287
C21   C     C_2   0.301799 0.547498 0.041438 -0.164919
C22   C     C_2   0.699567 0.546914 0.959074 -0.166472
C23   C     C_2   0.801808 0.047535 0.041444 -0.164938
C24   C     C_2   0.199562 0.046929 0.959071 -0.166451
C25   C     C_2   0.308816 0.579807 0.966450 -0.148428
C26   C     C_2   0.692382 0.581812 0.033516 -0.165319
C27   C     C_2   0.808822 0.079850 0.966456 -0.148420
C28   C     C_2   0.192378 0.081832 0.033512 -0.165309
C29   C     C_2   0.502325 0.831731 0.578402 -0.067383
C30   C     C_2   0.497785 0.832473 0.421699 -0.065170
C31   C     C_2   0.002323 0.331732 0.578401 -0.067374
C32   C     C_2   0.997783 0.332471 0.421698 -0.065172
C33   C     C_2   0.498993 0.731937 0.461544 -0.174747
C34   C     C_2   0.499946 0.731599 0.537901 -0.174390
C35   C     C_2   0.998993 0.231936 0.461544 -0.174740
C36   C     C_2   0.999947 0.231599 0.537901 -0.174402
C37   C     C_2   0.247874 0.578331 0.578279 0.244779
C38   C     C_2   0.751672 0.578779 0.421584 0.247274
C39   C     C_2   0.747874 0.078342 0.578276 0.244775
C40   C     C_2   0.251672 0.078769 0.421581 0.247267
C41   C     C_2   0.236517 0.581398 0.423569 -0.078341
C42   C     C_2   0.763280 0.580694 0.576429 -0.080343
C43   C     C_2   0.736517 0.081404 0.423568 -0.078359
C44   C     C_2   0.263279 0.080689 0.576428 -0.080323
C45   C     C_R   0.469760 0.824178 0.854229 0.548861
C46   C     C_R   0.529289 0.821876 0.146581 0.593016
C47   C     C_R   0.969763 0.324179 0.854228 0.548990
C48   C     C_R   0.029288 0.321875 0.146581 0.593014
C49   C     C_2   0.181985 0.573567 0.468876 0.287961
C50   C     C_2   0.817655 0.572233 0.530907 0.287072
C51   C     C_2   0.681984 0.073587 0.468874 0.287958
C52   C     C_2   0.317653 0.072212 0.530905 0.287083
C53   C     C_2   0.190218 0.610040 0.541814 0.269556
C54   C     C_2   0.809609 0.609191 0.458043 0.271009
C55   C     C_2   0.690219 0.110056 0.541812 0.269554
C56   C     C_2   0.309610 0.109172 0.458040 0.271006
C57   C     C_R   0.261969 0.637864 0.852303 0.553606
C58   C     C_R   0.738216 0.637088 0.148116 0.575747
C59   C     C_R   0.761970 0.137862 0.852303 0.553577
C60   C     C_R   0.238214 0.137094 0.148114 0.575744
C61   C     C_R   0.274124 0.044241 0.647824 0.556530
C62   C     C_R   0.725834 0.044452 0.352162 0.562955
C63   C     C_R   0.774125 0.544240 0.647824 0.556510
C64   C     C_R   0.225834 0.544452 0.352163 0.562968
C65   C     C_R   0.471303 0.823684 0.648327 0.560169
C66   C     C_R   0.528734 0.823909 0.351719 0.571100
C67   C     C_R   0.971302 0.323685 0.648327 0.560190
C68   C     C_R   0.028733 0.323908 0.351718 0.571105
C69   C     C_R   0.260809 0.637201 0.646078 0.569195
C70   C     C_R   0.739112 0.637413 0.353907 0.575838
C71   C     C_R   0.760809 0.137203 0.646077 0.569173
C72   C     C_R   0.239112 0.137411 0.353906 0.575846
C73   C     C_R   0.501516 0.830244 0.074723 0.015197
C74   C     C_R   0.495724 0.839991 0.926800 -0.011577
C75   C     C_R   0.001514 0.330243 0.074724 0.015167
C76   C     C_R   0.995726 0.339991 0.926800 -0.011466
C77   C     C_R   0.486348 0.943919 0.042268 -0.001144
C78   C     C_R   0.490198 0.952710 0.966912 -0.006108
C79   C     C_R   0.986352 0.443920 0.042269 -0.001183
C80   C     C_R   0.990204 0.452709 0.966914 -0.006017
C81   C     C_R   0.507522 0.730154 0.961780 -0.194801
C82   C     C_R   0.508682 0.724942 0.033688 -0.191826
C83   C     C_R   0.007516 0.230152 0.961782 -0.194850
C84   C     C_R   0.008673 0.224939 0.033689 -0.191859
Cr1   Cr    Cr6+3 0.230530 0.836340 0.748870 1.007995
Cr2   Cr    Cr6+3 0.769470 0.836340 0.251130 1.007248
Cr3   Cr    Cr6+3 0.730530 0.336340 0.748870 1.008091
Cr4   Cr    Cr6+3 0.269470 0.336340 0.251130 1.007231
Cr5   Cr    Cr6+3 0.387420 0.989430 0.750820 1.075520
Cr6   Cr    Cr6+3 0.612580 0.989430 0.249180 1.015396
Cr7   Cr    Cr6+3 0.887420 0.489430 0.750820 1.075537
Cr8   Cr    Cr6+3 0.112580 0.489430 0.249180 1.015396
Cr9   Cr    Cr6+3 0.385640 0.677860 0.749230 1.006301
Cr10  Cr    Cr6+3 0.614360 0.677860 0.250770 0.998357
Cr11  Cr    Cr6+3 0.885640 0.177860 0.749230 1.006259
Cr12  Cr    Cr6+3 0.114360 0.177860 0.250770 0.998365
H1    H     H_    0.513086 0.644588 0.933418 0.145722
H2    H     H_    0.518271 0.636519 0.057066 0.140213
H3    H     H_    0.013075 0.144584 0.933420 0.145713
H4    H     H_    0.018257 0.136515 0.057069 0.140221
H5    H     H_    0.286701 0.617927 0.438245 0.060282
H6    H     H_    0.713242 0.617858 0.562071 0.061157
H7    H     H_    0.786704 0.117922 0.438243 0.060307
H8    H     H_    0.213245 0.117865 0.562070 0.061138
H9    H     H_    0.937571 0.739213 0.079020 0.106620
H10   H     H_    0.963887 0.762749 0.955764 0.123505
H11   H     H_    0.437522 0.239191 0.079015 0.106640
H12   H     H_    0.463825 0.262736 0.955758 0.123582
H13   H     H_    0.337333 0.480889 0.063495 0.137913
H14   H     H_    0.664474 0.478802 0.937399 0.141660
H15   H     H_    0.837352 0.980943 0.063503 0.137914
H16   H     H_    0.164472 0.978809 0.937399 0.141609
H17   H     H_    0.360304 0.606278 0.948129 0.120957
H18   H     H_    0.641773 0.613993 0.050785 0.112682
H19   H     H_    0.860302 0.106375 0.948139 0.120951
H20   H     H_    0.141770 0.114016 0.050782 0.112680
H21   H     H_    0.216648 0.664496 0.057088 0.140245
H22   H     H_    0.783617 0.666140 0.943181 0.138435
H23   H     H_    0.716638 0.164489 0.057086 0.140237
H24   H     H_    0.283610 0.166158 0.943174 0.138428
H25   H     H_    0.504091 0.642296 0.437600 0.124254
H26   H     H_    0.493960 0.641996 0.561277 0.124939
H27   H     H_    0.004094 0.142294 0.437601 0.124255
H28   H     H_    0.993964 0.141996 0.561278 0.124936
H29   H     H_    0.487233 0.921337 0.444213 0.146003
H30   H     H_    0.513901 0.920325 0.556422 0.143925
H31   H     H_    0.987227 0.421334 0.444211 0.145991
H32   H     H_    0.013894 0.420328 0.556420 0.143940
O1    O     O_R   0.215090 0.709860 0.828130 -0.528567
O2    O     O_R   0.784910 0.709860 0.171870 -0.499903
O3    O     O_R   0.715090 0.209860 0.828130 -0.528554
O4    O     O_R   0.284910 0.209860 0.171870 -0.499911
O5    O     O_R   0.445660 0.919250 0.676780 -0.478224
O6    O     O_R   0.554340 0.919250 0.323220 -0.484621
O7    O     O_R   0.945660 0.419250 0.676780 -0.478195
O8    O     O_R   0.054340 0.419250 0.323220 -0.484624
O9    O     O_R   0.456260 0.718170 0.670000 -0.537081
O10   O     O_R   0.543740 0.718170 0.330000 -0.535852
O11   O     O_R   0.956260 0.218170 0.670000 -0.537095
O12   O     O_R   0.043740 0.218170 0.330000 -0.535848
O13   O     O_R   0.320940 0.626760 0.674370 -0.507166
O14   O     O_R   0.679060 0.626760 0.325630 -0.507985
O15   O     O_R   0.820940 0.126760 0.674370 -0.507179
O16   O     O_R   0.179060 0.126760 0.325630 -0.507977
O17   O     O_3   0.334530 0.834540 0.749640 -0.259388
O18   O     O_3   0.665470 0.834540 0.250360 -0.255776
O19   O     O_3   0.834530 0.334540 0.749640 -0.259409
O20   O     O_3   0.165470 0.334540 0.250360 -0.255774
O21   O     O_R   0.236990 0.958390 0.823710 -0.506042
O22   O     O_R   0.763010 0.958390 0.176290 -0.504787
O23   O     O_R   0.736990 0.458390 0.823710 -0.506012
O24   O     O_R   0.263010 0.458390 0.176290 -0.504794
O25   O     O_R   0.332380 0.074750 0.830850 -0.487472
O26   O     O_R   0.667620 0.074750 0.169150 -0.528711
O27   O     O_R   0.832380 0.574750 0.830850 -0.487499
O28   O     O_R   0.167620 0.574750 0.169150 -0.528709
O29   O     O_R   0.445800 0.917770 0.825070 -0.435783
O30   O     O_R   0.554200 0.917770 0.174930 -0.473487
O31   O     O_R   0.945800 0.417770 0.825070 -0.435698
O32   O     O_R   0.054200 0.417770 0.174930 -0.473495
O33   O     O_R   0.456410 0.716580 0.829970 -0.537286
O34   O     O_R   0.543590 0.716580 0.170030 -0.541412
O35   O     O_R   0.956410 0.216580 0.829970 -0.537330
O36   O     O_R   0.043590 0.216580 0.170030 -0.541411
O37   O     O_R   0.321080 0.625290 0.822650 -0.527502
O38   O     O_R   0.678920 0.625290 0.177350 -0.537924
O39   O     O_R   0.821080 0.125290 0.822650 -0.527507
O40   O     O_R   0.178920 0.125290 0.177350 -0.537922
O41   O     O_R   0.214930 0.711450 0.668160 -0.496654
O42   O     O_R   0.785070 0.711450 0.331840 -0.498379
O43   O     O_R   0.714930 0.211450 0.668160 -0.496645
O44   O     O_R   0.285070 0.211450 0.331840 -0.498383
O45   O     O_R   0.236850 0.959870 0.675420 -0.520288
O46   O     O_R   0.763150 0.959870 0.324580 -0.519327
O47   O     O_R   0.736850 0.459870 0.675420 -0.520281
O48   O     O_R   0.263150 0.459870 0.324580 -0.519322
O49   O     O_R   0.332230 0.076350 0.670880 -0.491422
O50   O     O_R   0.667770 0.076350 0.329120 -0.496517
O51   O     O_R   0.832230 0.576350 0.670880 -0.491437
O52   O     O_R   0.167770 0.576350 0.329120 -0.496515
O53   O     O_3   0.117185 0.530181 0.447614 -0.545844
C85   C     C_3   0.072730 0.629984 0.432806 -0.071672
H33   H     H_    0.098690 0.705124 0.403345 0.116296
H34   H     H_    0.051016 0.666797 0.481738 0.126988
H35   H     H_    0.028459 0.599508 0.400114 0.144676
O54   O     O_3   0.882119 0.527629 0.551981 -0.548128
C86   C     C_3   0.927368 0.626698 0.566550 -0.066227
H36   H     H_    0.901910 0.703335 0.595446 0.118899
H37   H     H_    0.949804 0.660825 0.517482 0.126855
H38   H     H_    0.971090 0.596440 0.599806 0.152776
O55   O     O_3   0.617181 0.030210 0.447614 -0.545840
C87   C     C_3   0.572731 0.130018 0.432798 -0.071688
H39   H     H_    0.598694 0.205140 0.403324 0.116298
H40   H     H_    0.551026 0.166863 0.481726 0.126961
H41   H     H_    0.528454 0.099535 0.400116 0.144675
O56   O     O_3   0.382114 0.027599 0.551981 -0.548134
C88   C     C_3   0.427368 0.126664 0.566540 -0.066204
H42   H     H_    0.401911 0.203324 0.595417 0.118905
H43   H     H_    0.449816 0.160746 0.517468 0.126885
H44   H     H_    0.471081 0.096418 0.599812 0.152774
O57   O     O_3   0.136315 0.676035 0.572506 -0.589082
C89   C     C_3   0.143859 0.800464 0.554294 -0.103293
H45   H     H_    0.128788 0.816477 0.499169 0.118788
H46   H     H_    0.197964 0.834731 0.561213 0.173286
H47   H     H_    0.109078 0.855488 0.588738 0.132696
O58   O     O_3   0.864218 0.672839 0.427109 -0.592626
C90   C     C_3   0.858401 0.797805 0.445231 -0.107650
H48   H     H_    0.874170 0.814311 0.500174 0.116005
H49   H     H_    0.804709 0.833981 0.438662 0.175697
H50   H     H_    0.893623 0.850988 0.410450 0.127101
O59   O     O_3   0.636318 0.176055 0.572504 -0.589073
C91   C     C_3   0.643865 0.300481 0.554287 -0.103317
H51   H     H_    0.628842 0.316475 0.499146 0.118846
H52   H     H_    0.697962 0.334759 0.561246 0.173315
H53   H     H_    0.609051 0.355503 0.588697 0.132669
O60   O     O_3   0.364222 0.172814 0.427106 -0.592645
C92   C     C_3   0.358405 0.297786 0.445215 -0.107603
H54   H     H_    0.374255 0.314325 0.500131 0.115912
H55   H     H_    0.304696 0.333934 0.438717 0.175640
H56   H     H_    0.393568 0.350972 0.410375 0.127183
O61   O     O_3   0.295785 0.496864 0.549126 -0.644714
C93   C     C_3   0.362828 0.550253 0.544327 -0.145641
H57   H     H_    0.396361 0.513369 0.586679 0.159474
H58   H     H_    0.362504 0.652104 0.545562 0.140864
H59   H     H_    0.387037 0.525352 0.493249 0.090385
O62   O     O_3   0.703240 0.498208 0.450477 -0.646228
C94   C     C_3   0.636471 0.552465 0.455403 -0.146642
H60   H     H_    0.602850 0.516146 0.412769 0.158528
H61   H     H_    0.637360 0.654311 0.454742 0.141241
H62   H     H_    0.611961 0.527477 0.506229 0.090976
O63   O     O_3   0.795785 0.996877 0.549121 -0.644740
C95   C     C_3   0.862831 0.050258 0.544332 -0.145660
H63   H     H_    0.896356 0.013370 0.586688 0.159473
H64   H     H_    0.862509 0.152108 0.545566 0.140877
H65   H     H_    0.887046 0.025353 0.493258 0.090384
O64   O     O_3   0.203239 0.998197 0.450473 -0.646209
C96   C     C_3   0.136471 0.052457 0.455404 -0.146629
H66   H     H_    0.102847 0.016138 0.412773 0.158525
H67   H     H_    0.137362 0.154303 0.454743 0.141238
H68   H     H_    0.111965 0.027469 0.506232 0.090975
O65   O     O_3   0.439729 0.028311 0.151684 -0.541501
C97   C     C_3   0.458487 0.124287 0.197995 -0.065372
H69   H     H_    0.420430 0.200146 0.195020 0.129341
H70   H     H_    0.512346 0.158352 0.188217 0.097596
H71   H     H_    0.456767 0.089179 0.252744 0.146227
O66   O     O_3   0.496603 0.100029 0.866693 -0.555917
C98   C     C_3   0.567984 0.108213 0.851927 -0.075559
H72   H     H_    0.591878 0.016113 0.852152 0.148243
H73   H     H_    0.594461 0.172375 0.888732 0.170783
H74   H     H_    0.574534 0.145181 0.797954 0.143183
O67   O     O_3   0.939730 0.528317 0.151681 -0.541484
C99   C     C_3   0.958485 0.624287 0.197998 -0.065365
H75   H     H_    0.920430 0.700150 0.195018 0.129348
H76   H     H_    0.012346 0.658346 0.188231 0.097595
H77   H     H_    0.956753 0.589175 0.252746 0.146226
O68   O     O_3   0.996616 0.599993 0.866692 -0.555913
C100  C     C_3   0.067986 0.608791 0.851981 -0.075592
H78   H     H_    0.092071 0.516844 0.852024 0.148738
H79   H     H_    0.094330 0.672896 0.888925 0.170317
H80   H     H_    0.074472 0.646138 0.798091 0.143122
O69   O     O_3   0.188712 0.540345 0.943707 -0.607328
C101  C     C_3   0.187843 0.411478 0.941009 -0.142610
H81   H     H_    0.227704 0.370335 0.975921 0.134318
H82   H     H_    0.194826 0.377887 0.885992 0.105736
H83   H     H_    0.136629 0.379142 0.960271 0.149552
O70   O     O_3   0.810340 0.530394 0.059371 -0.552718
C102  C     C_3   0.806000 0.402220 0.065937 -0.086167
H84   H     H_    0.763098 0.363115 0.033803 0.105312
H85   H     H_    0.799938 0.375424 0.122148 0.130177
H86   H     H_    0.854553 0.360602 0.045639 0.150635
O71   O     O_3   0.688734 0.040264 0.943700 -0.607357
C103  C     C_3   0.687917 0.911396 0.941014 -0.142642
H87   H     H_    0.727755 0.870315 0.975978 0.134378
H88   H     H_    0.694974 0.877788 0.886010 0.105722
H89   H     H_    0.636695 0.879000 0.960224 0.149482
O72   O     O_3   0.310335 0.030409 0.059363 -0.552741
C104  C     C_3   0.305999 0.902235 0.065937 -0.086201
H90   H     H_    0.263071 0.863129 0.033839 0.105294
H91   H     H_    0.299980 0.875454 0.122156 0.130234
H92   H     H_    0.354536 0.860618 0.045604 0.150632

loop_
_geom_bond_atom_site_label_1
_geom_bond_atom_site_label_2
_ccdc_geom_bond_type
Cr12  O12   S    
C16   C28   D    
C38   C70   S    
Cr10  O18   S    
Cr4   O44   S    
C37   C69   S    
Cr8   O20   S    
C82   H2    S    
O57   C89   S    
C67   O7    A    
C35   C36   S    
C52   O56   S    
C50   C54   S    
C40   O64   S    
Cr7   O7    S    
Cr10  O38   S    
C101  H83   S    
Cr7   O19   S    
C81   C82   A    
C44   H8    S    
C51   O55   S    
O67   C99   S    
C47   O31   A    
C77   C78   A    
C92   H56   S    
Cr7   O27   S    
C48   O32   A    
C59   O3    A    
C60   O40   A    
C75   C79   A    
Cr3   O19   S    
C2    O22   A    
C5    O65   S    
C72   O44   A    
C32   H31   S    
C99   H76   S    
C36   H28   S    
Cr1   O17   S    
C47   C76   S    
C5    C11   A    
C25   H17   S    
Cr2   O22   S    
C6    C12   A    
O69   C101  S    
C64   O52   A    
C102  H86   S    
C75   C84   A    
C6    C78   A    
C13   C57   S    
C88   H42   S    
C69   O13   A    
O71   C103  S    
C46   O30   A    
Cr2   O18   S    
O65   C97   S    
C63   O51   A    
O64   C96   S    
C51   C55   S    
C3    C18   S    
C72   O16   A    
C100  H78   S    
C16   C60   S    
Cr3   O3    S    
C88   H43   S    
C94   H60   S    
C45   O33   A    
C85   H33   S    
C86   H38   S    
C21   C25   S    
Cr8   O52   S    
Cr1   O1    S    
C66   O6    A    
Cr5   O25   S    
C39   C55   D    
C83   C84   A    
C41   H5    S    
C103  H87   S    
C22   H14   S    
C89   H47   S    
C66   O10   A    
C90   H50   S    
C97   H70   S    
Cr12  O40   S    
C45   O29   A    
Cr9   O17   S    
Cr5   O49   S    
Cr6   O26   S    
C67   O11   A    
C9    C10   A    
Cr10  O34   S    
Cr7   O31   S    
Cr1   O45   S    
C17   H21   S    
C32   C68   S    
C37   C53   D    
C44   C52   D    
Cr5   O17   S    
C30   H29   S    
Cr9   O37   S    
C2    O26   A    
Cr3   O23   S    
C96   H66   S    
C56   O60   S    
C33   H25   S    
Cr4   O24   S    
C48   C75   S    
C13   C25   D    
Cr8   O8    S    
C31   H32   S    
C15   O71   S    
C42   H6    S    
C76   C83   A    
C41   C49   D    
C34   H26   S    
C97   H69   S    
C43   H7    S    
C98   H73   S    
C14   C58   S    
C70   O14   A    
C97   H71   S    
C28   H20   S    
C89   H45   S    
Cr6   O6    S    
C90   H48   S    
Cr10  O14   S    
C32   C35   D    
C76   C80   A    
C68   O8    A    
Cr11  O19   S    
O60   C92   S    
C96   H68   S    
C46   O34   A    
C23   H15   S    
C12   H12   S    
Cr11  O39   S    
O58   C90   S    
Cr2   O2    S    
C101  H82   S    
C93   H59   S    
C54   O58   S    
C92   H54   S    
O53   C85   S    
C55   O59   S    
C29   C34   D    
Cr5   O5    S    
C95   H65   S    
Cr1   O41   S    
Cr12  O36   S    
Cr12  O20   S    
C7    O67   S    
C45   C74   S    
Cr2   O46   S    
C85   H35   S    
C87   H40   S    
Cr6   O30   S    
C88   H44   S    
C19   C23   D    
C17   C21   D    
C26   H18   S    
C39   O63   S    
O61   C93   S    
Cr11  O35   S    
C103  H89   S    
Cr12  O16   S    
C15   C27   D    
O59   C91   S    
C38   C54   D    
C91   H53   S    
Cr9   O33   S    
C61   O49   A    
C102  H84   S    
Cr3   O43   S    
O68   C100  S    
C3    O27   A    
C33   C34   S    
Cr4   O20   S    
C61   O45   A    
Cr5   O29   S    
Cr8   O28   S    
C40   C56   D    
C69   O41   A    
C14   C26   D    
C4    O24   A    
C93   H58   S    
C30   C66   S    
C89   H46   S    
C42   C50   D    
C99   H77   S    
C49   O53   S    
C4    C17   S    
C8    C10   A    
C94   H61   S    
C91   H52   S    
C23   C27   S    
C104  H91   S    
C11   H11   S    
Cr10  O10   S    
C29   C65   S    
Cr11  O11   S    
C68   O12   A    
C64   O48   A    
Cr4   O4    S    
C74   C81   A    
C5    C77   A    
C16   O72   S    
C50   O54   S    
C73   C82   A    
C20   H24   S    
Cr9   O13   S    
C7    C79   A    
C98   H74   S    
C57   O1    A    
O55   C87   S    
C7    C9    A    
C18   H22   S    
O66   C98   S    
C1    C20   S    
C73   C77   A    
C60   O4    A    
C40   C72   S    
C30   C33   D    
C4    O28   A    
C2    C19   S    
C18   C22   D    
C15   C59   S    
C53   O57   S    
C6    O66   S    
Cr11  O15   S    
C24   C28   S    
C90   H49   S    
O56   C88   S    
C95   H64   S    
C62   O50   A    
C84   H4    S    
C21   H13   S    
C98   H72   S    
C63   O47   A    
C101  H81   S    
C48   O36   A    
C44   C61   S    
C92   H55   S    
Cr1   O21   S    
Cr3   O47   S    
C74   C78   A    
C3    O23   A    
Cr4   O48   S    
C38   O62   S    
Cr8   O32   S    
C100  H80   S    
Cr7   O51   S    
C87   H39   S    
C96   H67   S    
C87   H41   S    
C70   O42   A    
C65   O9    A    
C86   H36   S    
Cr6   O18   S    
C102  H85   S    
C43   C51   D    
C91   H51   S    
C71   O15   A    
C13   O69   S    
Cr2   O42   S    
C58   O2    A    
C47   O35   A    
C49   C53   S    
C42   C63   S    
C59   O39   A    
C35   H27   S    
C95   H63   S    
C81   H1    S    
C8    O68   S    
C71   O43   A    
C29   H30   S    
C93   H57   S    
C58   O38   A    
C37   O61   S    
C85   H34   S    
C24   H16   S    
C1    O25   A    
Cr9   O9    S    
O70   C102  S    
C31   C67   S    
C19   H23   S    
C79   C80   A    
C14   O70   S    
C94   H62   S    
C57   O37   A    
O72   C104  S    
C43   C62   S    
C103  H88   S    
O62   C94   S    
C22   C26   S    
C104  H92   S    
O63   C95   S    
C8    C80   A    
C10   H10   S    
C39   C71   S    
C31   C36   D    
C1    O21   A    
C83   H3    S    
C41   C64   S    
C100  H79   S    
O54   C86   S    
C104  H90   S    
C9    H9    S    
C86   H37   S    
C20   C24   D    
C46   C73   S    
C65   O5    A    
Cr6   O50   S    
C52   C56   S    
C11   C12   A    
C27   H19   S    
C99   H75   S    
C62   O46   A    
