data_mof_unit_24106.cif
_audit_creation_date              2012-12-10T20:44:49-0500
_audit_creation_method            fapswitch 2.2
_symmetry_space_group_name_H-M    P1
_symmetry_Int_Tables_number       1
_space_group_crystal_system       triclinic
_cell_length_a                    9.934442
_cell_length_b                    10.662926
_cell_length_c                    16.59934
_cell_angle_alpha                 89.813524
_cell_angle_beta                  95.554943
_cell_angle_gamma                 90.050903
_cell_volume                      1750.10456559

loop_
_atom_site_label
_atom_site_type_symbol
_atom_type_description
_atom_site_fract_x
_atom_site_fract_y
_atom_site_fract_z
_atom_type_partial_charge
C1    C     C_R   0.499306 0.260271 0.496403 0.892889
C2    C     C_R   0.495196 0.129207 0.481416 -0.103240
C3    C     C_R   0.371808 0.064744 0.480468 -0.239152
C4    C     C_R   0.519324 0.502016 0.653168 0.900639
C5    C     C_R   0.372165 0.935288 0.481400 -0.222182
C6    C     C_R   0.495834 0.871226 0.483623 -0.108046
C7    C     C_R   0.612186 0.936483 0.468140 0.044763
C8    C     C_3   0.758331 0.930143 0.501679 0.989917
C9    C     C_3   0.757248 0.075672 0.497885 -0.303734
C10   C     C_R   0.081362 0.537366 0.566696 0.034788
C11   C     C_R   0.060379 0.459844 0.434106 0.000477
C12   C     C_R   0.612031 0.423796 0.783746 -0.387463
C13   C     C_R   0.917418 0.469034 0.432034 0.528418
C14   C     C_R   0.939422 0.536090 0.566558 -0.001557
C15   C     C_3   0.944987 0.478881 0.648699 -0.276784
C16   C     C_R   0.499517 0.739849 0.497376 0.894783
C17   C     C_3   0.101615 0.481121 0.650385 0.942869
C18   C     C_R   0.481004 0.502992 0.346968 1.046593
C19   C     C_R   0.537999 0.516684 0.739647 -0.144475
C20   C     C_R   0.497490 0.626967 0.777768 0.071726
C21   C     C_R   0.520773 0.635142 0.862235 0.004042
C22   C     C_R   0.584492 0.535093 0.906540 0.170327
C23   C     C_R   0.420978 0.628109 0.137331 -0.062464
C24   C     C_R   0.638446 0.434083 0.867022 0.526026
C25   C     C_3   0.262765 0.745472 0.268470 -0.268436
C26   C     C_3   0.730337 0.934186 0.643764 -0.458180
C27   C     C_3   0.971267 0.860336 0.474065 -0.241215
C28   C     C_3   0.842719 0.534634 0.305337 -0.230051
C29   C     C_3   0.123976 0.582909 0.778148 -0.406768
C30   C     C_3   0.205958 0.311726 0.722845 -0.275840
C31   C     C_3   0.843466 0.358365 0.914029 -0.384876
C32   C     C_3   0.420497 0.214298 0.257978 -0.252772
C33   C     C_3   0.675764 0.286919 0.101632 -0.147073
C34   C     C_R   0.423019 0.620115 0.221367 0.429822
C35   C     C_R   0.460663 0.524088 0.093668 0.028855
C36   C     C_R   0.465997 0.508103 0.260271 -0.386748
C37   C     C_R   0.497885 0.401662 0.216835 0.300416
C38   C     C_R   0.501184 0.411074 0.132950 0.402526
C39   C     C_R   0.611372 0.064290 0.465577 0.005345
H1    H     H_    0.277677 0.886824 0.486913 0.164026
H2    H     H_    0.628408 0.975435 0.628498 0.163123
H3    H     H_    0.804556 0.006868 0.666350 0.182768
H4    H     H_    0.983169 0.782002 0.518202 0.191827
H5    H     H_    0.013983 0.947551 0.502807 0.144886
H6    H     H_    0.031283 0.836983 0.423158 0.152315
H7    H     H_    0.795528 0.211489 0.415649 0.274110
H8    H     H_    0.933770 0.147963 0.464254 0.173757
H9    H     H_    0.152248 0.460872 0.330228 0.190666
H10   H     H_    0.189716 0.333869 0.392216 0.223162
H11   H     H_    0.810429 0.625314 0.330541 0.183532
H12   H     H_    0.771953 0.128005 0.555712 0.146114
H13   H     H_    0.771053 0.512486 0.251849 0.176063
H14   H     H_    0.944054 0.545272 0.283354 0.120583
H15   H     H_    0.897458 0.314800 0.704432 0.166897
H16   H     H_    0.931271 0.294594 0.607338 0.207740
H17   H     H_    0.208913 0.606302 0.823866 0.216312
H18   H     H_    0.074952 0.497200 0.799806 0.134779
H19   H     H_    0.051567 0.662388 0.775439 0.181892
H20   H     H_    0.307265 0.729111 0.052786 0.183105
H21   H     H_    0.470845 0.775576 0.069352 0.225416
H22   H     H_    0.250402 0.217813 0.714577 0.178006
H23   H     H_    0.898394 0.542196 0.691101 0.172357
H24   H     H_    0.118772 0.298272 0.758935 0.122758
H25   H     H_    0.285882 0.369682 0.756117 0.212585
H26   H     H_    0.872310 0.448724 0.944536 0.159913
H27   H     H_    0.879278 0.356038 0.852543 0.157774
H28   H     H_    0.895988 0.282087 0.950161 0.192612
H29   H     H_    0.379682 0.187939 0.195526 0.188219
H30   H     H_    0.340618 0.259962 0.290191 0.131825
H31   H     H_    0.450291 0.126537 0.291074 0.205677
H32   H     H_    0.530296 0.821866 0.884291 0.189228
H33   H     H_    0.375433 0.757065 0.889404 0.199222
H34   H     H_    0.647533 0.341881 0.753551 0.180891
H35   H     H_    0.703571 0.245595 0.162386 0.193783
H36   H     H_    0.735908 0.373598 0.093899 0.137200
H37   H     H_    0.704472 0.217583 0.056699 0.200582
H38   H     H_    0.417209 0.713819 0.671542 0.213779
H39   H     H_    0.500263 0.807075 0.739496 0.151789
H40   H     H_    0.277086 0.112937 0.485703 0.177304
H41   H     H_    0.214475 0.664946 0.296994 0.145972
H42   H     H_    0.211285 0.763572 0.207055 0.166887
H43   H     H_    0.247822 0.829362 0.305952 0.183364
H44   H     H_    0.722038 0.867160 0.694248 0.209273
N1    N     N_2   0.582507 0.527902 0.990779 -0.119679
N2    N     N_3   0.433701 0.731049 0.733423 -0.415921
N3    N     N_2   0.464817 0.535770 0.009945 -0.120274
N4    N     N_R   0.142860 0.499130 0.500540 -0.140715
N5    N     N_R   0.857210 0.499170 0.500530 -0.134468
N6    N     N_3   0.837949 0.126238 0.436087 -0.384697
N7    N     N_3   0.114288 0.395643 0.368962 -0.435408
N8    N     N_3   0.884104 0.353402 0.646351 -0.414882
N9    N     N_3   0.387019 0.744888 0.097481 -0.407206
N10   N     N_3   0.479112 0.743699 0.904181 -0.455187
O1    O     O_R   0.614690 0.316790 0.499990 -0.607440
O2    O     O_3   0.778176 0.868039 0.578679 -0.621009
O3    O     O_3   0.834355 0.873687 0.443449 -0.609556
O4    O     O_3   0.839202 0.435768 0.362142 -0.574076
O5    O     O_3   0.175402 0.568937 0.702166 -0.603362
O6    O     O_3   0.165828 0.362436 0.645753 -0.619937
O7    O     O_3   0.702899 0.337524 0.910782 -0.584619
O8    O     O_3   0.535497 0.291615 0.257329 -0.582136
O9    O     O_3   0.535173 0.308801 0.087808 -0.574950
O10   O     O_R   0.385350 0.316760 0.500000 -0.620877
O11   O     O_R   0.627460 0.498860 0.616130 -0.597298
O12   O     O_R   0.398120 0.498820 0.616130 -0.546278
O13   O     O_R   0.614650 0.683240 0.500000 -0.571241
O14   O     O_R   0.385310 0.683210 0.500010 -0.640593
O15   O     O_R   0.601880 0.501180 0.383870 -0.551834
O16   O     O_R   0.372540 0.501140 0.383870 -0.664946
O17   O     O_3   0.402821 0.726369 0.266475 -0.579443
Zn1   Zn    Zn3+2 0.653130 0.500020 0.499990 1.024077
Zn2   Zn    Zn3+2 0.346870 0.499980 0.500010 0.965716

loop_
_geom_bond_atom_site_label_1
_geom_bond_atom_site_label_2
_ccdc_geom_bond_type
C28   O4    S    
C31   H27   S    
C26   H44   S    
C30   H25   S    
C25   H41   S    
C28   H13   S    
O14   Zn2   S    
C19   C20   A    
C8    O3    S    
C18   O16   A    
H10   N7    S    
C3    H40   S    
C7    C8    S    
H7    N6    S    
C31   H28   S    
C29   O5    S    
N5    Zn1   S    
C21   C22   A    
C36   C37   A    
N1    N3    D    
C5    C6    A    
C35   N3    S    
C10   C17   S    
O1    Zn1   S    
C9    C39   S    
C12   C19   A    
C15   C17   S    
C1    C2    S    
H16   N8    S    
C16   O14   A    
C4    C19   S    
C28   H11   S    
C2    C39   A    
C33   H36   S    
C11   N4    A    
C8    C9    S    
C9    H12   S    
C32   O8    S    
C17   O5    S    
C1    O10   A    
C23   N9    S    
C16   O13   A    
C32   H29   S    
C27   H6    S    
H38   N2    S    
H9    N7    S    
C30   H24   S    
C25   H42   S    
H8    N6    S    
C27   O3    S    
C8    O2    S    
C27   H5    S    
O13   Zn1   S    
H21   N9    S    
C10   N4    A    
C33   O9    S    
C35   C38   A    
C10   C14   A    
O16   Zn2   S    
C9    N6    S    
C1    O1    A    
C32   H31   S    
N4    Zn2   S    
C15   N8    S    
C30   O6    S    
O10   Zn2   S    
C22   N1    S    
C37   C38   A    
C33   H37   S    
C23   C34   A    
C20   N2    S    
C31   O7    S    
C29   H19   S    
C17   O6    S    
C32   H30   S    
C25   O17   S    
H33   N10   S    
H39   N2    S    
O12   Zn2   S    
C29   H18   S    
C23   C35   A    
C25   H43   S    
C34   O17   S    
C22   C24   A    
C30   H22   S    
C26   H3    S    
C26   O2    S    
C31   H26   S    
C24   O7    S    
C3    C5    A    
O11   Zn1   S    
C28   H14   S    
C6    C7    A    
H32   N10   S    
C29   H17   S    
C4    O12   A    
C12   C24   A    
O15   Zn1   S    
C2    C3    A    
C14   N5    A    
H15   N8    S    
C38   O9    S    
C37   O8    S    
C11   C13   A    
C11   N7    S    
C21   N10   S    
C4    O11   A    
C13   N5    A    
C15   H23   S    
C34   C36   A    
H20   N9    S    
C13   O4    S    
C18   O15   A    
C6    C16   S    
C27   H4    S    
C33   H35   S    
C20   C21   A    
C5    H1    S    
C7    C39   A    
C14   C15   S    
C12   H34   S    
C18   C36   S    
C26   H2    S    
