data_mof_unit_5399.cif
_audit_creation_date              2013-03-05T16:15:45-0500
_audit_creation_method            fapswitch 2.2
_symmetry_space_group_name_H-M    P1
_symmetry_Int_Tables_number       1
_space_group_crystal_system       triclinic
_cell_length_a                    22.507882
_cell_length_b                    22.486326
_cell_length_c                    14.63749
_cell_angle_alpha                 90.00092
_cell_angle_beta                  90.027925
_cell_angle_gamma                 90.000302
_cell_volume                      7408.31929624

loop_
_atom_site_label
_atom_site_type_symbol
_atom_site_description
_atom_site_fract_x
_atom_site_fract_y
_atom_site_fract_z
_atom_type_partial_charge
O1    O     O_R   0.439540 0.939530 0.576170 -0.574700
O2    O     O_R   0.560460 0.060470 0.423830 -0.574779
O3    O     O_R   0.560460 0.939530 0.423830 -0.575076
O4    O     O_R   0.439540 0.060470 0.576170 -0.575093
O5    O     O_R   0.939540 0.439530 0.576170 -0.574771
O6    O     O_R   0.060460 0.560470 0.423830 -0.574652
O7    O     O_R   0.060460 0.439530 0.423830 -0.575096
O8    O     O_R   0.939540 0.560470 0.576170 -0.575097
O9    O     O_R   0.439530 0.939530 0.423800 -0.566266
O10   O     O_R   0.560470 0.060470 0.576200 -0.565996
O11   O     O_R   0.560470 0.939530 0.576200 -0.565567
O12   O     O_R   0.439530 0.060470 0.423800 -0.565420
O13   O     O_R   0.939530 0.439530 0.423800 -0.565999
O14   O     O_R   0.060470 0.560470 0.576200 -0.566359
O15   O     O_R   0.060470 0.439530 0.576200 -0.565418
O16   O     O_R   0.939530 0.560470 0.423800 -0.565560
C1    C     C_R   0.419802 0.919761 0.499975 0.825479
C2    C     C_R   0.580206 0.080231 0.500027 0.825329
C3    C     C_R   0.580209 0.919770 0.500025 0.825460
C4    C     C_R   0.419794 0.080231 0.499976 0.825336
C5    C     C_R   0.919794 0.419768 0.499973 0.825326
C6    C     C_R   0.080197 0.580240 0.500024 0.825515
C7    C     C_R   0.080206 0.419769 0.500024 0.825339
C8    C     C_R   0.919792 0.580229 0.499974 0.825502
Cu1   Cu    Cu3+1 0.500000 1.000000 0.590220 0.995418
Cu2   Cu    Cu3+1 0.500000 1.000000 0.409780 0.995319
Cu3   Cu    Cu3+1 0.000000 0.500000 0.590220 0.995267
Cu4   Cu    Cu3+1 0.000000 0.500000 0.409780 0.995444
C9    C     C_3   0.527983 0.049079 0.969082 -0.179547
C10   C     C_3   0.472016 0.950920 0.030918 -0.179729
C11   C     C_3   0.471708 0.048902 0.030920 -0.179256
C12   C     C_3   0.528291 0.951098 0.969080 -0.179413
C13   C     C_3   0.028067 0.549033 0.969082 -0.179739
C14   C     C_3   0.971934 0.450968 0.030918 -0.179562
C15   C     C_3   0.971791 0.548950 0.030920 -0.179402
C16   C     C_3   0.028210 0.451051 0.969080 -0.179268
C17   C     C_3   0.702693 0.729655 0.543762 0.337692
C18   C     C_3   0.297085 0.270126 0.455441 0.338087
C19   C     C_3   0.297967 0.728951 0.458817 0.337710
C20   C     C_3   0.702335 0.270717 0.542413 0.338060
C21   C     C_3   0.202913 0.229873 0.544560 0.338075
C22   C     C_3   0.797308 0.770346 0.456234 0.338076
C23   C     C_3   0.797667 0.229278 0.457588 0.338183
C24   C     C_3   0.201999 0.771081 0.541120 0.338413
C25   C     C_3   0.228996 0.200716 0.458174 0.035755
C26   C     C_3   0.770805 0.799063 0.542667 0.036132
C27   C     C_3   0.770433 0.201299 0.544052 0.036088
C28   C     C_3   0.229940 0.798392 0.454689 0.036661
C29   C     C_3   0.729196 0.700937 0.457332 0.035927
C30   C     C_3   0.271002 0.299283 0.541827 0.035748
C31   C     C_3   0.270036 0.701637 0.545256 0.035955
C32   C     C_3   0.729568 0.298698 0.455950 0.036009
C33   C     C_1   0.375162 0.124936 0.499958 -0.139965
C34   C     C_1   0.624843 0.875071 0.500050 -0.139940
C35   C     C_1   0.624836 0.124936 0.500054 -0.140216
C36   C     C_1   0.375186 0.875037 0.499958 -0.140256
C37   C     C_1   0.875156 0.624929 0.499949 -0.139920
C38   C     C_1   0.124837 0.375063 0.500042 -0.139975
C39   C     C_1   0.124806 0.624968 0.500036 -0.140288
C40   C     C_1   0.875164 0.375062 0.499946 -0.140220
H1    H     H_    0.448039 0.089044 0.055877 0.146032
H2    H     H_    0.551961 0.910956 0.944123 0.145871
H3    H     H_    0.551400 0.089369 0.944125 0.145740
H4    H     H_    0.448598 0.910631 0.055875 0.145507
H5    H     H_    0.948189 0.589132 0.055878 0.145876
H6    H     H_    0.051812 0.410869 0.944122 0.146040
H7    H     H_    0.051552 0.589283 0.944126 0.145452
H8    H     H_    0.948449 0.410718 0.055874 0.145732
C41   C     C_3   0.265149 0.236967 0.587075 0.034549
C42   C     C_3   0.735280 0.763483 0.412915 0.034598
C43   C     C_3   0.736010 0.235779 0.412908 0.034554
C44   C     C_3   0.263297 0.764876 0.587067 0.034440
C45   C     C_3   0.764720 0.736517 0.587082 0.034425
C46   C     C_3   0.234850 0.263031 0.412927 0.034575
C47   C     C_3   0.236671 0.735148 0.412882 0.034421
C48   C     C_3   0.763991 0.264218 0.587093 0.034496
C49   C     C_3   0.291792 0.208278 0.500008 -0.107177
C50   C     C_3   0.708215 0.791729 0.500017 -0.107236
C51   C     C_3   0.708208 0.208278 0.500020 -0.107298
C52   C     C_3   0.291808 0.791703 0.499997 -0.107390
C53   C     C_3   0.791785 0.708270 0.499983 -0.107178
C54   C     C_3   0.208206 0.291721 0.499993 -0.107178
C55   C     C_3   0.208165 0.708322 0.499949 -0.107283
C56   C     C_3   0.791793 0.291719 0.499981 -0.107278
N1    N     N_1   0.499980 0.000000 0.274190 -0.151448
N2    N     N_1   0.500020 0.000000 0.725810 -0.151432
N3    N     N_1   0.999980 0.500000 0.274190 -0.151433
N4    N     N_1   0.000020 0.500000 0.725810 -0.151461
C57   C     C_3   0.555540 0.000175 0.030336 0.215352
C58   C     C_3   0.444459 0.999825 0.969664 0.215384
C59   C     C_3   0.055541 0.500082 0.030336 0.215401
C60   C     C_3   0.944460 0.499919 0.969664 0.215360
C61   C     C_3   0.499902 0.000000 0.091527 0.000360
C62   C     C_3   0.500097 1.000000 0.908473 0.000342
C63   C     C_3   0.999903 0.500000 0.091527 0.000344
C64   C     C_3   0.000098 0.500001 0.908473 0.000372
C65   C     C_1   0.337570 0.162603 0.499939 0.040173
C66   C     C_1   0.662438 0.837406 0.500081 0.040110
C67   C     C_1   0.662429 0.162604 0.500085 0.040043
C68   C     C_1   0.337602 0.837365 0.499941 0.039995
C69   C     C_1   0.837561 0.662594 0.499919 0.040157
C70   C     C_1   0.162429 0.337396 0.500061 0.040166
C71   C     C_1   0.162383 0.662649 0.500036 0.040049
C72   C     C_1   0.837572 0.337394 0.499915 0.040061
C73   C     C_1   0.499934 0.000000 0.194206 0.128825
C74   C     C_1   0.500065 1.000000 0.805794 0.128890
C75   C     C_1   0.999935 0.500000 0.194206 0.128893
C76   C     C_1   0.000066 0.500000 0.805794 0.128776
C77   C     C_3   0.380761 0.999619 0.933694 -0.413713
C78   C     C_3   0.335758 0.999511 0.011560 -0.810893
H9    H     H_    0.341519 0.959275 0.054670 0.249437
H10   H     H_    0.341248 0.039836 0.054559 0.249886
H11   H     H_    0.290062 0.999340 0.982969 0.251721
H12   H     H_    0.373738 0.039678 0.890619 0.207152
H13   H     H_    0.373982 0.959486 0.890686 0.206874
C79   C     C_3   0.619238 0.000373 0.066306 -0.413716
C80   C     C_3   0.664241 0.000540 0.988440 -0.810776
H14   H     H_    0.658735 0.960261 0.945344 0.249754
H15   H     H_    0.658495 0.040822 0.945427 0.249581
H16   H     H_    0.709937 0.000665 0.017030 0.251750
H17   H     H_    0.626010 0.040480 0.109374 0.207003
H18   H     H_    0.626269 0.960287 0.109321 0.207049
C81   C     C_3   0.880762 0.499828 0.933694 -0.413728
C82   C     C_3   0.835759 0.499750 0.011561 -0.810774
H19   H     H_    0.841438 0.459466 0.054590 0.249583
H20   H     H_    0.841332 0.540028 0.054639 0.249754
H21   H     H_    0.790062 0.499697 0.982970 0.251749
H22   H     H_    0.873801 0.539919 0.890666 0.207038
H23   H     H_    0.873920 0.459727 0.890640 0.207007
C83   C     C_3   0.119239 0.500178 0.066306 -0.413721
C84   C     C_3   0.164243 0.500236 0.988440 -0.810905
H24   H     H_    0.158682 0.459937 0.945405 0.249898
H25   H     H_    0.158551 0.540499 0.945367 0.249414
H26   H     H_    0.209939 0.500317 0.017031 0.251723
H27   H     H_    0.126083 0.540288 0.109340 0.206875
H28   H     H_    0.126199 0.460095 0.109355 0.207148
C85   C     C_3   0.207755 0.141934 0.416510 -0.372554
C86   C     C_3   0.144245 0.145631 0.380460 -0.721831
H29   H     H_    0.113185 0.159596 0.435215 0.293140
H30   H     H_    0.141255 0.177411 0.322831 0.240415
H31   H     H_    0.130278 0.101190 0.355340 0.238336
H32   H     H_    0.238105 0.128819 0.360291 0.197485
H33   H     H_    0.210023 0.106822 0.469767 0.228065
C87   C     C_3   0.791834 0.857613 0.585339 -0.372675
C88   C     C_3   0.855227 0.853767 0.621844 -0.722043
H34   H     H_    0.858125 0.821428 0.678743 0.240420
H35   H     H_    0.886523 0.840445 0.567031 0.293569
H36   H     H_    0.868958 0.898003 0.648100 0.237948
H37   H     H_    0.789706 0.893050 0.532580 0.227756
H38   H     H_    0.761275 0.870340 0.641501 0.197647
C89   C     C_3   0.791079 0.143103 0.588282 -0.372040
C90   C     C_3   0.854135 0.147257 0.626056 -0.723968
H39   H     H_    0.885920 0.160140 0.571664 0.293238
H40   H     H_    0.856517 0.180050 0.682399 0.240574
H41   H     H_    0.867628 0.103239 0.653449 0.237751
H42   H     H_    0.760018 0.130820 0.644025 0.197571
H43   H     H_    0.789428 0.107241 0.536163 0.227583
C91   C     C_3   0.209745 0.856271 0.409009 -0.372315
C92   C     C_3   0.146903 0.852001 0.370445 -0.724337
H44   H     H_    0.144574 0.818258 0.315444 0.240824
H45   H     H_    0.114674 0.840353 0.424873 0.293943
H46   H     H_    0.133973 0.895644 0.341062 0.237109
H47   H     H_    0.211209 0.892579 0.460408 0.227098
H48   H     H_    0.241178 0.867965 0.353461 0.197732
C93   C     C_3   0.708156 0.642377 0.414697 -0.372597
C94   C     C_3   0.644817 0.646266 0.377988 -0.722151
H49   H     H_    0.613492 0.659869 0.432600 0.293403
H50   H     H_    0.642080 0.678405 0.320802 0.240337
H51   H     H_    0.630998 0.601977 0.352052 0.238091
H52   H     H_    0.738773 0.629563 0.358654 0.197500
H53   H     H_    0.710176 0.606981 0.467530 0.227891
C95   C     C_3   0.292237 0.358070 0.583482 -0.372572
C96   C     C_3   0.355748 0.354383 0.619533 -0.721841
H54   H     H_    0.358744 0.322599 0.677156 0.240428
H55   H     H_    0.386811 0.340430 0.564775 0.293134
H56   H     H_    0.369704 0.398826 0.644662 0.238328
H57   H     H_    0.289966 0.393179 0.530219 0.228060
H58   H     H_    0.261885 0.371184 0.639698 0.197501
C97   C     C_3   0.290309 0.643757 0.590851 -0.371851
C98   C     C_3   0.353041 0.648182 0.629812 -0.724587
H59   H     H_    0.385257 0.660895 0.575925 0.293405
H60   H     H_    0.354895 0.681212 0.685873 0.240304
H61   H     H_    0.366381 0.604305 0.657907 0.237648
H62   H     H_    0.258781 0.631853 0.646166 0.197482
H63   H     H_    0.289100 0.607538 0.539290 0.227498
C99   C     C_3   0.708905 0.356893 0.411740 -0.371991
C100  C     C_3   0.645870 0.352708 0.373889 -0.723983
H64   H     H_    0.643584 0.320072 0.317323 0.240468
H65   H     H_    0.614091 0.339597 0.428163 0.293175
H66   H     H_    0.632290 0.396772 0.346780 0.237861
H67   H     H_    0.710507 0.392736 0.463895 0.227638
H68   H     H_    0.739985 0.369219 0.356044 0.197554
N5    N     N_R   0.650781 0.706881 0.592076 0.121807
O17   O     O_R   0.651660 0.653459 0.626066 -0.360760
O18   O     O_R   0.603481 0.739488 0.601522 -0.352998
N6    N     N_R   0.348757 0.292664 0.406266 0.121651
O19   O     O_R   0.347687 0.345898 0.371600 -0.361032
O20   O     O_R   0.396046 0.260047 0.396770 -0.353595
N7    N     N_R   0.350621 0.705388 0.413384 0.121836
O21   O     O_R   0.350232 0.651448 0.381343 -0.360749
O22   O     O_R   0.398124 0.737785 0.404625 -0.353231
N8    N     N_R   0.650026 0.293906 0.589226 0.121681
O23   O     O_R   0.650645 0.347599 0.622206 -0.360992
O24   O     O_R   0.602613 0.261414 0.598272 -0.353835
N9    N     N_R   0.151239 0.207334 0.593731 0.121654
O25   O     O_R   0.152314 0.154104 0.628412 -0.361029
O26   O     O_R   0.103937 0.239936 0.603172 -0.353596
N10   N     N_R   0.849216 0.793126 0.407923 0.121700
O27   O     O_R   0.848320 0.846534 0.373889 -0.360909
O28   O     O_R   0.896547 0.760547 0.398572 -0.352818
N11   N     N_R   0.849974 0.206088 0.410775 0.121658
O29   O     O_R   0.849354 0.152394 0.377798 -0.361037
O30   O     O_R   0.897385 0.238582 0.401714 -0.353811
N12   N     N_R   0.149321 0.794677 0.586468 0.121679
O31   O     O_R   0.149867 0.848463 0.619076 -0.361093
O32   O     O_R   0.101539 0.762570 0.594045 -0.353019
C101  C     C_3   0.718271 0.783919 0.316541 -0.349538
C102  C     C_3   0.751153 0.749517 0.242290 -0.768710
H69   H     H_    0.799933 0.753174 0.251514 0.287578
H70   H     H_    0.738263 0.701985 0.243027 0.241025
H71   H     H_    0.739428 0.768174 0.174421 0.235441
H72   H     H_    0.669642 0.778783 0.306860 0.202420
H73   H     H_    0.728957 0.831940 0.309781 0.226163
C103  C     C_3   0.282628 0.217026 0.683495 -0.349501
C104  C     C_3   0.250095 0.251797 0.757704 -0.768516
H74   H     H_    0.262999 0.299319 0.756288 0.241065
H75   H     H_    0.201273 0.248117 0.749048 0.287488
H76   H     H_    0.262121 0.233458 0.825658 0.235543
H77   H     H_    0.271987 0.169038 0.690951 0.226128
H78   H     H_    0.331301 0.222223 0.692560 0.202607
C105  C     C_3   0.278774 0.786820 0.683268 -0.349294
C106  C     C_3   0.244649 0.753632 0.757494 -0.769177
H79   H     H_    0.196039 0.757146 0.746227 0.287547
H80   H     H_    0.257510 0.706101 0.759065 0.240805
H81   H     H_    0.255264 0.773376 0.825072 0.235322
H82   H     H_    0.327225 0.781798 0.695002 0.202053
H83   H     H_    0.268056 0.834944 0.687825 0.226325
C107  C     C_3   0.719809 0.214522 0.316623 -0.349514
C108  C     C_3   0.753300 0.248302 0.242345 -0.768755
H84   H     H_    0.740338 0.295815 0.241802 0.240903
H85   H     H_    0.801999 0.244805 0.252665 0.287661
H86   H     H_    0.742202 0.229014 0.174639 0.235378
H87   H     H_    0.730560 0.166451 0.311037 0.226230
H88   H     H_    0.671263 0.219557 0.305881 0.202278
C109  C     C_3   0.217371 0.282966 0.316504 -0.349507
C110  C     C_3   0.249910 0.248194 0.242302 -0.768514
H89   H     H_    0.298732 0.251895 0.250947 0.287510
H90   H     H_    0.237028 0.200667 0.243742 0.241063
H91   H     H_    0.237871 0.266513 0.174344 0.235536
H92   H     H_    0.168699 0.277762 0.307437 0.202604
H93   H     H_    0.228005 0.330954 0.309041 0.226116
C111  C     C_3   0.781684 0.716059 0.683465 -0.349504
C112  C     C_3   0.748926 0.750589 0.757704 -0.768707
H94   H     H_    0.762302 0.797991 0.757345 0.240867
H95   H     H_    0.700137 0.747452 0.748134 0.287403
H96   H     H_    0.760273 0.731644 0.825539 0.235605
H97   H     H_    0.770836 0.668074 0.690253 0.226299
H98   H     H_    0.830330 0.721035 0.693133 0.202352
C113  C     C_3   0.780183 0.285487 0.683376 -0.349519
C114  C     C_3   0.746717 0.251686 0.757659 -0.768763
H99   H     H_    0.698015 0.255130 0.747324 0.287626
H100  H     H_    0.759731 0.204187 0.758225 0.240914
H101  H     H_    0.757788 0.270995 0.825360 0.235397
H102  H     H_    0.828732 0.280487 0.694117 0.202227
H103  H     H_    0.769399 0.333551 0.688962 0.226265
C115  C     C_3   0.221237 0.713126 0.316704 -0.349552
C116  C     C_3   0.255163 0.746454 0.242415 -0.769093
H104  H     H_    0.241861 0.793859 0.240559 0.240828
H105  H     H_    0.303789 0.743403 0.253843 0.287558
H106  H     H_    0.244806 0.726473 0.174907 0.235421
H107  H     H_    0.232176 0.665052 0.312159 0.226447
H108  H     H_    0.172758 0.717917 0.305026 0.201931

loop_
_geom_bond_atom_site_label_1
_geom_bond_atom_site_label_2
_geom_bond_distance
_ccdc_geom_bond_type
C95   H57   1.110709 S    
C101  H73   1.110705 S    
C7    C38   1.421151 S    
C19   C31   1.540811 S    
C85   H32   1.109666 S    
C9    H3    1.110049 S    
C93   H53   1.110675 S    
C93   C94   1.525784 S    
C105  C106  1.525832 S    
C44   C105  1.532052 S    
C10   H4    1.110048 S    
O2    C2    1.280015 A    
C21   N9    1.458922 S    
C11   H1    1.110053 S    
C41   C49   1.549434 S    
C83   H27   1.110800 S    
C60   C64   1.539996 S    
C10   C58   1.548356 S    
C24   C55   1.540787 S    
C47   C55   1.549370 S    
C103  C104  1.525833 S    
C48   C56   1.549417 S    
C43   C51   1.549408 S    
O4    Cu1   1.934635 S    
N8    O24   1.300124 A    
C86   H29   1.109158 S    
C111  H98   1.109633 S    
C81   C82   1.525193 S    
C94   H50   1.107575 S    
C59   C83   1.527082 S    
C53   C69   1.454819 S    
C96   H54   1.107573 S    
C95   C96   1.525805 S    
O11   C3    1.280040 A    
C32   C43   1.555525 S    
C79   H18   1.110801 S    
C82   H19   1.110643 S    
C24   N12   1.459004 S    
C89   H43   1.110694 S    
C21   C41   1.540811 S    
C49   C65   1.454822 S    
C108  H84   1.107553 S    
C27   C48   1.555539 S    
C10   C61   1.548678 S    
C115  H107  1.110708 S    
C80   H15   1.110643 S    
C112  H94   1.107602 S    
N4    C76   1.170761 T    
C116  H106  1.110145 S    
N12   O32   1.300117 A    
C42   C50   1.549421 S    
O11   Cu1   1.934883 S    
C95   H58   1.109649 S    
O6    C6    1.279987 A    
C107  H88   1.109632 S    
C22   C42   1.540831 S    
C104  H76   1.110152 S    
C16   C59   1.548355 S    
C79   C80   1.525196 S    
C22   C26   1.540836 S    
C29   C53   1.549407 S    
C99   H67   1.110701 S    
C32   C56   1.549416 S    
C78   H9    1.110645 S    
C106  H79   1.109210 S    
C100  H66   1.110201 S    
C87   H38   1.109668 S    
C61   C73   1.502969 S    
O5    Cu3   1.934622 S    
O15   Cu3   1.934883 S    
O6    Cu4   1.934619 S    
C92   H44   1.107489 S    
C18   N6    1.458904 S    
N10   O27   1.300316 A    
N5    O18   1.300125 A    
C50   C66   1.454834 S    
C89   C90   1.525769 S    
C92   H45   1.109092 S    
O13   Cu4   1.934879 S    
C22   N10   1.458869 S    
C105  H82   1.109646 S    
C38   C70   1.197221 T    
C20   C32   1.540810 S    
C19   C47   1.540780 S    
O14   Cu3   1.934876 S    
C10   C12   1.557180 S    
C23   N11   1.458890 S    
C12   C62   1.548676 S    
C77   C78   1.525195 S    
O16   Cu4   1.934883 S    
O7    C7    1.279996 A    
C98   H61   1.110225 S    
C91   H48   1.109650 S    
C113  C114  1.525811 S    
C45   C111  1.532080 S    
C15   C60   1.548355 S    
C84   H26   1.110231 S    
O15   C7    1.280047 A    
C27   C51   1.549424 S    
C109  H93   1.110708 S    
C57   C79   1.527085 S    
N7    O21   1.300450 A    
O16   C8    1.280032 A    
C14   C60   1.548356 S    
C109  C110  1.525836 S    
C81   H23   1.110802 S    
O1    Cu1   1.934622 S    
C23   C56   1.540772 S    
C28   C47   1.555617 S    
C110  H91   1.110122 S    
N2    C74   1.170761 T    
C22   C53   1.540799 S    
C32   C99   1.532077 S    
C46   C54   1.549417 S    
C114  H101  1.110124 S    
C31   C97   1.532087 S    
C45   C53   1.549412 S    
C88   H35   1.109144 S    
C98   H60   1.107563 S    
O9    Cu2   1.934879 S    
C88   H34   1.107549 S    
C103  H77   1.110716 S    
N9    O26   1.300084 A    
C104  H75   1.109188 S    
C48   C113  1.532084 S    
C110  H90   1.107550 S    
C92   H46   1.110253 S    
C58   C62   1.539995 S    
N8    O23   1.300350 A    
C55   C71   1.454870 S    
C34   C66   1.197228 T    
C42   C101  1.532064 S    
C43   C107  1.532078 S    
C14   C63   1.548678 S    
C5    C40   1.421143 S    
C114  H100  1.107549 S    
C113  H102  1.109627 S    
C79   H17   1.110801 S    
C60   C81   1.527084 S    
C14   H8    1.110049 S    
C6    C39   1.421153 S    
C26   C50   1.549407 S    
C46   C109  1.532062 S    
N9    O25   1.300366 A    
C9    C57   1.548355 S    
C4    C33   1.421163 S    
C26   C87   1.532069 S    
N1    C73   1.170759 T    
C33   C65   1.197217 T    
C101  C102  1.525827 S    
C11   C61   1.548679 S    
C28   C91   1.532081 S    
C107  H87   1.110715 S    
C106  H81   1.110132 S    
O7    Cu4   1.934635 S    
C20   C48   1.540807 S    
O12   Cu2   1.934883 S    
C25   C46   1.555502 S    
O5    C5    1.280015 A    
C17   N5    1.458900 S    
N11   O29   1.300364 A    
C29   C93   1.532110 S    
C87   H37   1.110681 S    
C113  H103  1.110717 S    
C103  H78   1.109629 S    
C17   C29   1.540805 S    
C16   C64   1.548678 S    
C16   H6    1.110054 S    
C102  H70   1.107538 S    
C12   C57   1.548353 S    
C78   H11   1.110229 S    
C90   H41   1.110221 S    
C11   C58   1.548355 S    
C102  H69   1.109200 S    
O12   C4    1.280046 A    
Cu4   N3    1.984699 S    
C25   C85   1.532100 S    
C104  H74   1.107555 S    
C54   C70   1.454820 S    
C20   C51   1.540744 S    
O13   C5    1.280032 A    
C108  H85   1.109193 S    
C89   H42   1.109659 S    
C99   H68   1.109660 S    
O3    C3    1.280020 A    
C1    C36   1.421215 S    
C90   H40   1.107561 S    
C96   H55   1.109153 S    
C63   C75   1.502969 S    
C91   H47   1.110710 S    
C82   H21   1.110230 S    
C97   H63   1.110695 S    
C77   H12   1.110800 S    
C3    C34   1.421127 S    
O9    C1    1.280048 A    
N11   O30   1.300126 A    
C20   N8    1.458903 S    
N10   O28   1.300184 A    
C29   C42   1.555511 S    
C91   C92   1.525692 S    
C56   C72   1.454829 S    
C80   H16   1.110232 S    
C31   C44   1.555550 S    
C36   C68   1.197152 T    
C84   H24   1.110644 S    
C13   C64   1.548678 S    
C31   C55   1.549454 S    
C85   H33   1.110694 S    
C88   H36   1.110200 S    
C98   H59   1.109157 S    
C30   C54   1.549434 S    
C102  H71   1.110107 S    
C82   H20   1.110647 S    
C97   H62   1.109650 S    
C18   C46   1.540803 S    
C96   H56   1.110200 S    
C51   C67   1.454825 S    
C101  H72   1.109634 S    
C19   N7    1.458879 S    
C110  H89   1.109193 S    
C62   C74   1.502969 S    
C23   C43   1.540816 S    
C21   C25   1.540815 S    
C106  H80   1.107545 S    
N12   O31   1.300272 A    
O1    C1    1.279988 A    
C30   C41   1.555513 S    
O3    Cu2   1.934635 S    
C83   H28   1.110803 S    
C47   C115  1.532101 S    
C27   C89   1.532085 S    
N6    O19   1.300357 A    
C84   H25   1.110643 S    
C86   H31   1.110199 S    
O2    Cu2   1.934619 S    
C112  H96   1.110127 S    
C25   C49   1.549422 S    
C116  H104  1.107553 S    
C86   H30   1.107580 S    
C18   C49   1.540770 S    
C15   C63   1.548677 S    
C37   C69   1.197223 T    
C85   C86   1.525799 S    
C8    C37   1.421147 S    
C17   C45   1.540822 S    
C18   C30   1.540822 S    
C105  H83   1.110705 S    
C87   C88   1.525808 S    
C41   C103  1.532072 S    
C39   C71   1.197177 T    
C19   C52   1.540693 S    
O14   C6    1.280058 A    
C13   C59   1.548354 S    
C83   C84   1.525195 S    
Cu1   Cu2   2.641187 S    
C12   H2    1.110055 S    
C100  H64   1.107569 S    
C44   C52   1.549465 S    
C13   H7    1.110051 S    
C115  H108  1.109617 S    
C80   H14   1.110646 S    
C114  H99   1.109205 S    
O10   Cu1   1.934876 S    
C116  H105  1.109222 S    
C13   C15   1.557180 S    
C28   C52   1.549410 S    
C81   H22   1.110800 S    
C94   H49   1.109159 S    
O10   C2    1.280032 A    
Cu2   N1    1.984699 S    
C2    C35   1.421129 S    
C21   C54   1.540767 S    
C107  C108  1.525819 S    
Cu1   N2    1.984697 S    
O8    C8    1.280012 A    
C9    C62   1.548681 S    
C24   C44   1.540921 S    
C108  H86   1.110138 S    
C14   C16   1.557183 S    
C57   C61   1.539994 S    
Cu3   N4    1.984697 S    
C78   H10   1.110644 S    
C100  H65   1.109153 S    
N6    O20   1.300133 A    
C115  C116  1.525781 S    
C77   H13   1.110801 S    
C59   C63   1.539997 S    
C97   C98   1.525782 S    
O4    C4    1.279995 A    
N3    C75   1.170759 T    
C90   H39   1.109140 S    
C94   H51   1.110210 S    
C9    C11   1.557186 S    
N5    O17   1.300355 A    
C112  H95   1.109202 S    
C35   C67   1.197218 T    
Cu3   Cu4   2.641187 S    
N7    O22   1.300166 A    
O8    Cu3   1.934635 S    
C15   H5    1.110053 S    
C64   C76   1.502969 S    
C30   C95   1.532093 S    
C111  H97   1.110736 S    
C58   C77   1.527085 S    
C99   C100  1.525788 S    
C40   C72   1.197222 T    
C17   C50   1.540735 S    
C23   C27   1.540818 S    
C93   H52   1.109669 S    
C26   C45   1.555504 S    
C52   C68   1.454864 S    
C24   C28   1.540786 S    
C111  C112  1.525831 S    
C109  H92   1.109629 S    
