data_mof_unit_43557.cif
_audit_creation_date              2012-12-11T14:28:17-0500
_audit_creation_method            fapswitch 2.2
_symmetry_space_group_name_H-M    P1
_symmetry_Int_Tables_number       1
_space_group_crystal_system       triclinic
_cell_length_a                    10.844035
_cell_length_b                    19.258094
_cell_length_c                    18.754334
_cell_angle_alpha                 89.960981
_cell_angle_beta                  89.986618
_cell_angle_gamma                 90.134362
_cell_volume                      3916.55790781

loop_
_atom_site_label
_atom_site_type_symbol
_atom_type_description
_atom_site_fract_x
_atom_site_fract_y
_atom_site_fract_z
_atom_type_partial_charge
C1    C     C_R   0.318654 0.964331 0.644594 0.542449
C2    C     C_R   0.318622 0.964330 0.855395 0.542164
C3    C     C_R   0.316764 0.059363 0.362148 0.535810
C4    C     C_R   0.316776 0.059238 0.137822 0.535905
C5    C     C_R   0.816483 0.442912 0.637727 0.531930
C6    C     C_R   0.818622 0.464328 0.855396 0.548543
C7    C     C_R   0.817053 0.556756 0.362251 0.533190
C8    C     C_R   0.816776 0.559236 0.137823 0.535674
C9    C     C_3   0.154245 0.736932 0.461364 -0.105449
C10   C     C_3   0.155925 0.737045 0.038823 -0.105621
C11   C     C_3   0.149407 0.299659 0.525906 -0.095903
C12   C     C_3   0.148303 0.300284 0.974245 -0.096374
C13   C     C_3   0.654640 0.233968 0.461403 -0.103276
C14   C     C_3   0.655938 0.237056 0.038825 -0.105526
C15   C     C_3   0.647840 0.800148 0.525537 -0.096350
C16   C     C_3   0.648319 0.800272 0.974241 -0.096266
C17   C     C_3   0.020774 0.727311 0.437872 0.050746
C18   C     C_3   0.022231 0.728947 0.062442 0.052159
C19   C     C_3   0.031957 0.272749 0.562531 0.057740
C20   C     C_3   0.031179 0.273007 0.937578 0.058264
C21   C     C_3   0.520671 0.227607 0.437796 0.051150
C22   C     C_3   0.522246 0.228953 0.062442 0.052211
C23   C     C_3   0.530783 0.772904 0.562342 0.059091
C24   C     C_3   0.531180 0.773007 0.937578 0.058524
C25   C     C_R   0.321868 0.033290 0.433761 -0.030188
C26   C     C_R   0.321746 0.033089 0.066241 -0.030117
C27   C     C_R   0.320443 0.990478 0.573537 -0.024344
C28   C     C_R   0.320297 0.990484 0.926431 -0.024305
C29   C     C_R   0.822284 0.527109 0.432278 -0.027724
C30   C     C_R   0.821746 0.533086 0.066243 -0.030056
C31   C     C_R   0.820727 0.473037 0.568005 -0.025044
C32   C     C_R   0.820299 0.490479 0.926435 -0.025585
C33   C     C_R   0.548314 0.001297 0.430793 -0.086683
C34   C     C_R   0.548172 0.001367 0.069072 -0.087325
C35   C     C_R   0.546128 0.014237 0.577712 -0.077527
C36   C     C_R   0.545759 0.014884 0.922148 -0.077121
C37   C     C_R   0.049496 0.498807 0.427311 -0.089560
C38   C     C_R   0.048170 0.501360 0.069080 -0.087291
C39   C     C_R   0.045459 0.506265 0.574245 -0.074502
C40   C     C_R   0.045764 0.514874 0.922156 -0.077222
C41   C     C_R   0.658093 0.998181 0.468891 -0.147410
C42   C     C_R   0.657978 0.998987 0.030926 -0.146997
C43   C     C_R   0.657476 0.009349 0.542002 -0.138130
C44   C     C_R   0.657204 0.010579 0.957851 -0.137345
C45   C     C_R   0.159424 0.499660 0.465127 -0.146336
C46   C     C_R   0.157978 0.498979 0.030937 -0.146991
C47   C     C_R   0.157006 0.509073 0.538392 -0.145753
C48   C     C_R   0.157208 0.510569 0.957861 -0.137545
C49   C     C_R   0.433689 0.006018 0.540438 -0.014907
C50   C     C_R   0.433463 0.006135 0.959484 -0.014920
C51   C     C_R   0.434331 0.011737 0.466325 -0.010485
C52   C     C_R   0.434120 0.011561 0.033616 -0.011594
C53   C     C_R   0.934008 0.493842 0.536687 -0.008715
C54   C     C_R   0.933466 0.506128 0.959490 -0.015395
C55   C     C_R   0.934748 0.504280 0.463260 -0.016088
C56   C     C_R   0.934120 0.511556 0.033621 -0.011480
C57   C     C_R   0.207547 0.993485 0.534368 0.006963
C58   C     C_R   0.207385 0.993490 0.965622 0.006834
C59   C     C_R   0.209582 0.031638 0.472755 -0.004817
C60   C     C_R   0.209475 0.031556 0.027256 -0.004263
C61   C     C_R   0.707685 0.481871 0.530648 0.003078
C62   C     C_R   0.707386 0.493487 0.965624 0.006454
C63   C     C_R   0.710502 0.523975 0.471565 0.003698
C64   C     C_R   0.709475 0.531553 0.027258 -0.003979
C65   C     C_R   0.092282 0.961694 0.553032 -0.084454
C66   C     C_R   0.092026 0.961876 0.946919 -0.084253
C67   C     C_R   0.096649 0.061097 0.449904 -0.088309
C68   C     C_R   0.096672 0.061194 0.050038 -0.088106
C69   C     C_R   0.590851 0.454294 0.551571 -0.086019
C70   C     C_R   0.592026 0.461875 0.946920 -0.084159
C71   C     C_R   0.599572 0.557801 0.452075 -0.086352
C72   C     C_R   0.596672 0.561192 0.050038 -0.088090
C73   C     C_R   0.982988 0.981468 0.521043 -0.137719
C74   C     C_R   0.982699 0.982006 0.978646 -0.138374
C75   C     C_R   0.984229 0.036168 0.473641 -0.132258
C76   C     C_R   0.984178 0.036631 0.026072 -0.132742
C77   C     C_R   0.482064 0.479178 0.523057 -0.133190
C78   C     C_R   0.482699 0.482002 0.978649 -0.138011
C79   C     C_R   0.486273 0.535403 0.477381 -0.131781
C80   C     C_R   0.484178 0.536628 0.026075 -0.132772
C81   C     C_R   0.137206 0.759058 0.641938 0.540583
C82   C     C_R   0.138029 0.759378 0.858286 0.540783
C83   C     C_R   0.132627 0.241941 0.356314 0.530023
C84   C     C_R   0.132351 0.242067 0.143794 0.530437
C85   C     C_R   0.638108 0.259346 0.641634 0.535030
C86   C     C_R   0.638032 0.259379 0.858286 0.541296
C87   C     C_R   0.632168 0.742057 0.356152 0.530710
C88   C     C_R   0.632353 0.742067 0.143794 0.530095
C89   C     C_R   0.498934 0.786824 0.637049 0.562781
C90   C     C_R   0.498974 0.786814 0.862934 0.562342
C91   C     C_R   0.495454 0.212512 0.362459 0.547413
C92   C     C_R   0.496283 0.212967 0.137454 0.547303
C93   C     C_R   0.999320 0.286717 0.637037 0.549220
C94   C     C_R   0.998973 0.286814 0.862934 0.562856
C95   C     C_R   0.995584 0.712517 0.362463 0.549069
C96   C     C_R   0.996276 0.712965 0.137457 0.547194
C97   C     C_3   0.980165 0.790172 0.482350 -0.112324
C98   C     C_3   0.983888 0.792592 0.018362 -0.111219
C99   C     C_3   0.048912 0.200585 0.529957 -0.115295
C100  C     C_3   0.048775 0.200908 0.970253 -0.117302
C101  C     C_3   0.485300 0.292215 0.480996 -0.109827
C102  C     C_3   0.483894 0.292593 0.018359 -0.111046
C103  C     C_3   0.548302 0.700766 0.529718 -0.118398
C104  C     C_3   0.548753 0.700908 0.970256 -0.117136
C105  C     C_3   0.115041 0.799271 0.506854 -0.130643
C106  C     C_3   0.118936 0.800078 0.993556 -0.130924
C107  C     C_3   0.166117 0.227315 0.492244 -0.130595
C108  C     C_3   0.165668 0.227978 0.007974 -0.130752
C109  C     C_3   0.620597 0.298005 0.505564 -0.133918
C110  C     C_3   0.618939 0.300084 0.993554 -0.130863
C111  C     C_3   0.665161 0.727827 0.491891 -0.131354
C112  C     C_3   0.665660 0.727966 0.007973 -0.130652
C113  C     C_3   0.090081 0.749522 0.569325 0.048690
C114  C     C_3   0.091762 0.750742 0.931052 0.048229
C115  C     C_3   0.086553 0.250487 0.429134 0.042579
C116  C     C_3   0.085784 0.250897 0.071079 0.043357
C117  C     C_3   0.591295 0.250121 0.568948 0.046463
C118  C     C_3   0.591773 0.250745 0.931053 0.047928
C119  C     C_3   0.585228 0.750800 0.428809 0.043625
C120  C     C_3   0.585788 0.750897 0.071079 0.043369
C121  C     C_3   0.956122 0.740748 0.546362 -0.150072
C122  C     C_3   0.957680 0.743917 0.954225 -0.151391
C123  C     C_3   0.969963 0.222997 0.465254 -0.134845
C124  C     C_3   0.969485 0.223070 0.034902 -0.137167
C125  C     C_3   0.456970 0.244725 0.545875 -0.150104
C126  C     C_3   0.457696 0.243914 0.954225 -0.151610
C127  C     C_3   0.468946 0.722935 0.465084 -0.138262
C128  C     C_3   0.469474 0.723082 0.034906 -0.137360
C129  C     C_3   0.995553 0.677905 0.500225 -0.135854
C130  C     C_3   0.994638 0.680461 0.999949 -0.135666
C131  C     C_3   0.952291 0.295633 0.499317 -0.133310
C132  C     C_3   0.951128 0.295675 0.000728 -0.132270
C133  C     C_3   0.491099 0.180155 0.501033 -0.136566
C134  C     C_3   0.494663 0.180464 0.999953 -0.135842
C135  C     C_3   0.450521 0.795533 0.499211 -0.132300
C136  C     C_3   0.451141 0.795687 0.000729 -0.132286
C137  C     C_3   0.130354 0.687146 0.524092 -0.090451
C138  C     C_3   0.129666 0.687797 0.976003 -0.090229
C139  C     C_3   0.069942 0.322264 0.462093 -0.102487
C140  C     C_3   0.068472 0.322685 0.038036 -0.102219
C141  C     C_3   0.626338 0.186027 0.525002 -0.089433
C142  C     C_3   0.629687 0.187805 0.976008 -0.090359
C143  C     C_3   0.567846 0.822580 0.461788 -0.102071
C144  C     C_3   0.568499 0.822686 0.038033 -0.102172
Cr1   Cr    Cr6+3 0.488160 0.884660 0.750000 0.994576
Cr2   Cr    Cr6+3 0.488160 0.115340 0.250000 0.991027
Cr3   Cr    Cr6+3 0.988160 0.384660 0.750000 0.992893
Cr4   Cr    Cr6+3 0.988160 0.615340 0.250000 0.990744
Cr5   Cr    Cr6+3 0.173480 0.883120 0.750000 0.990478
Cr6   Cr    Cr6+3 0.173480 0.116880 0.250000 0.992336
Cr7   Cr    Cr6+3 0.673480 0.383120 0.750000 0.990595
Cr8   Cr    Cr6+3 0.673480 0.616880 0.250000 0.994036
Cr9   Cr    Cr6+3 0.333410 0.727260 0.750000 1.015012
Cr10  Cr    Cr6+3 0.333410 0.272740 0.250000 1.014918
Cr11  Cr    Cr6+3 0.833410 0.227260 0.750000 1.010145
Cr12  Cr    Cr6+3 0.833410 0.772740 0.250000 1.015471
H1    H     H_    0.898861 0.954558 0.534369 0.099278
H2    H     H_    0.898350 0.955443 0.965095 0.099303
H3    H     H_    0.900104 0.057984 0.452823 0.104803
H4    H     H_    0.900145 0.058715 0.046692 0.104678
H5    H     H_    0.396114 0.455459 0.538525 0.101368
H6    H     H_    0.398353 0.455437 0.965100 0.099326
H7    H     H_    0.403336 0.561187 0.460118 0.101786
H8    H     H_    0.400145 0.558711 0.046696 0.104636
H9    H     H_    0.917858 0.832175 0.463952 0.130576
H10   H     H_    0.923217 0.835203 0.037067 0.131134
H11   H     H_    0.040742 0.151747 0.561025 0.145640
H12   H     H_    0.041142 0.152082 0.939197 0.145578
H13   H     H_    0.426496 0.335475 0.461829 0.133296
H14   H     H_    0.423215 0.335199 0.037062 0.131091
H15   H     H_    0.540770 0.651934 0.560825 0.146056
H16   H     H_    0.541098 0.652079 0.939203 0.146000
H17   H     H_    0.877489 0.742103 0.584176 0.122432
H18   H     H_    0.879080 0.746279 0.916477 0.120979
H19   H     H_    0.905643 0.187072 0.438250 0.102670
H20   H     H_    0.904567 0.187284 0.061775 0.103661
H21   H     H_    0.378706 0.248522 0.583718 0.120979
H22   H     H_    0.379101 0.246268 0.916474 0.120553
H23   H     H_    0.403651 0.687406 0.438199 0.104043
H24   H     H_    0.404553 0.687300 0.061782 0.103677
H25   H     H_    0.940035 0.630476 0.498515 0.115342
H26   H     H_    0.934029 0.635473 0.001118 0.111210
H27   H     H_    0.869607 0.327900 0.504398 0.091850
H28   H     H_    0.867436 0.327322 0.995649 0.099877
H29   H     H_    0.429154 0.135667 0.501175 0.110045
H30   H     H_    0.434064 0.135475 0.001130 0.111003
H31   H     H_    0.366066 0.826715 0.504264 0.099988
H32   H     H_    0.367457 0.827345 0.995653 0.100046
H33   H     H_    0.195747 0.646383 0.541312 0.135634
H34   H     H_    0.193611 0.646457 0.958552 0.138420
H35   H     H_    0.079405 0.369234 0.429266 0.136193
H36   H     H_    0.076778 0.369996 0.070525 0.133256
H37   H     H_    0.688920 0.144373 0.543208 0.139179
H38   H     H_    0.693639 0.146469 0.958559 0.138364
H39   H     H_    0.575998 0.869861 0.429177 0.133342
H40   H     H_    0.576832 0.870000 0.070517 0.133323
H41   H     H_    0.229536 0.738551 0.421783 0.131951
H42   H     H_    0.230835 0.737587 0.078612 0.132154
H43   H     H_    0.221935 0.332238 0.550992 0.123869
H44   H     H_    0.220930 0.332812 0.949103 0.123646
H45   H     H_    0.729612 0.232894 0.421715 0.133102
H46   H     H_    0.730846 0.237598 0.078615 0.132110
H47   H     H_    0.720634 0.832530 0.550661 0.123670
H48   H     H_    0.720959 0.832789 0.949095 0.123595
H49   H     H_    0.742669 0.987400 0.440877 0.109277
H50   H     H_    0.742675 0.988467 0.058898 0.109206
H51   H     H_    0.741960 0.014144 0.571883 0.107565
H52   H     H_    0.741664 0.015902 0.927993 0.107671
H53   H     H_    0.245196 0.494413 0.436666 0.112439
H54   H     H_    0.242674 0.488460 0.058910 0.109172
H55   H     H_    0.240224 0.518897 0.568194 0.106115
H56   H     H_    0.241669 0.515894 0.928004 0.107925
H57   H     H_    0.555976 0.989812 0.374830 0.152545
H58   H     H_    0.555862 0.989698 0.125014 0.152531
H59   H     H_    0.549827 0.025361 0.634107 0.139323
H60   H     H_    0.549198 0.026007 0.865726 0.139224
H61   H     H_    0.058128 0.489032 0.371028 0.153464
H62   H     H_    0.055855 0.489690 0.125022 0.152305
H63   H     H_    0.049186 0.518395 0.630268 0.153572
H64   H     H_    0.049209 0.525996 0.865735 0.140906
H65   H     H_    0.092948 0.102110 0.412487 0.170660
H66   H     H_    0.093129 0.102189 0.087439 0.170907
H67   H     H_    0.082680 0.918340 0.588700 0.170157
H68   H     H_    0.082372 0.918479 0.911362 0.170218
H69   H     H_    0.598615 0.601088 0.416772 0.165042
H70   H     H_    0.593129 0.602189 0.087438 0.170873
H71   H     H_    0.580570 0.411926 0.588370 0.164030
H72   H     H_    0.582371 0.418479 0.911361 0.169789
O1    O     O_R   0.575450 0.828820 0.667950 -0.516704
O2    O     O_R   0.575450 0.828820 0.832050 -0.516893
O3    O     O_R   0.575450 0.171180 0.332050 -0.517586
O4    O     O_R   0.575450 0.171180 0.167950 -0.516859
O5    O     O_R   0.075450 0.328820 0.667950 -0.519848
O6    O     O_R   0.075450 0.328820 0.832050 -0.516672
O7    O     O_R   0.075450 0.671180 0.332050 -0.516646
O8    O     O_R   0.075450 0.671180 0.167950 -0.516935
O9    O     O_R   0.416860 0.942890 0.674680 -0.525532
O10   O     O_R   0.416860 0.942890 0.825320 -0.525476
O11   O     O_R   0.416860 0.057110 0.325320 -0.520576
O12   O     O_R   0.416860 0.057110 0.174680 -0.520220
O13   O     O_R   0.916860 0.442890 0.674680 -0.524400
O14   O     O_R   0.916860 0.442890 0.825320 -0.521650
O15   O     O_R   0.916860 0.557110 0.325320 -0.521066
O16   O     O_R   0.916860 0.557110 0.174680 -0.520612
O17   O     O_R   0.213790 0.953680 0.668330 -0.533292
O18   O     O_R   0.213790 0.953680 0.831670 -0.533370
O19   O     O_R   0.213790 0.046320 0.331670 -0.503330
O20   O     O_R   0.213790 0.046320 0.168330 -0.503499
O21   O     O_R   0.713790 0.453680 0.668330 -0.517642
O22   O     O_R   0.713790 0.453680 0.831670 -0.529789
O23   O     O_R   0.713790 0.546320 0.331670 -0.504007
O24   O     O_R   0.713790 0.546320 0.168330 -0.503673
O25   O     O_R   0.121360 0.817890 0.672660 -0.524104
O26   O     O_R   0.121360 0.817890 0.827340 -0.524202
O27   O     O_R   0.121360 0.182110 0.327340 -0.543307
O28   O     O_R   0.121360 0.182110 0.172660 -0.542972
O29   O     O_R   0.621360 0.317890 0.672660 -0.534626
O30   O     O_R   0.621360 0.317890 0.827340 -0.523754
O31   O     O_R   0.621360 0.682110 0.327340 -0.538829
O32   O     O_R   0.621360 0.682110 0.172660 -0.543169
O33   O     O_R   0.206850 0.711370 0.665820 -0.530974
O34   O     O_R   0.206850 0.711370 0.834180 -0.531446
O35   O     O_R   0.206850 0.288630 0.334180 -0.528270
O36   O     O_R   0.206850 0.288630 0.165820 -0.528041
O37   O     O_R   0.706850 0.211370 0.665820 -0.530599
O38   O     O_R   0.706850 0.211370 0.834180 -0.531111
O39   O     O_R   0.706850 0.788630 0.334180 -0.528770
O40   O     O_R   0.706850 0.788630 0.165820 -0.528172
O41   O     O_R   0.457710 0.733190 0.672630 -0.499051
O42   O     O_R   0.457710 0.733190 0.827370 -0.499468
O43   O     O_R   0.457710 0.266810 0.327370 -0.489569
O44   O     O_R   0.457710 0.266810 0.172630 -0.489739
O45   O     O_R   0.957710 0.233190 0.672630 -0.498089
O46   O     O_R   0.957710 0.233190 0.827370 -0.499009
O47   O     O_R   0.957710 0.766810 0.327370 -0.489275
O48   O     O_R   0.957710 0.766810 0.172630 -0.489847
O49   O     O_3   0.331690 0.831680 0.750000 -0.295037
O50   O     O_3   0.331690 0.168320 0.250000 -0.322346
O51   O     O_3   0.831690 0.331680 0.750000 -0.304939
O52   O     O_3   0.831690 0.668320 0.250000 -0.320669
H73   H     H_    0.169031 0.847574 0.506241 0.107151
H74   H     H_    0.173122 0.848301 0.993823 0.106908
H75   H     H_    0.249783 0.195910 0.485056 0.095033
H76   H     H_    0.249965 0.196899 0.014975 0.095327
H77   H     H_    0.677323 0.344982 0.503109 0.102473
H78   H     H_    0.673124 0.348306 0.993820 0.106723
H79   H     H_    0.749410 0.696568 0.484854 0.096535
H80   H     H_    0.749948 0.696879 0.014976 0.095368

loop_
_geom_bond_atom_site_label_1
_geom_bond_atom_site_label_2
_ccdc_geom_bond_type
C6    C32   S    
Cr1   O2    S    
C7    C29   S    
C119  C143  S    
C38   H62   S    
C120  C144  S    
C110  C118  S    
C24   C104  S    
C16   C144  S    
C70   H72   S    
C57   C59   A    
C8    O16   A    
C58   C60   A    
C10   H42   S    
C62   C70   A    
C61   C63   A    
C62   C64   A    
Cr10  O35   S    
C121  H17   S    
C48   H56   S    
C49   C51   A    
C34   C42   A    
C84   O28   A    
Cr4   O15   S    
C105  H73   S    
C23   C89   S    
C128  H24   S    
C108  H76   S    
C97   C105  S    
C40   H64   S    
C41   C43   A    
C87   C119  S    
C90   O42   A    
C42   C44   A    
C20   C132  S    
Cr10  O44   S    
C21   C133  S    
C99   H11   S    
C45   C47   A    
C46   C48   A    
C115  C123  S    
C6    O22   A    
C27   C57   A    
C87   O31   A    
C112  C120  S    
C81   O25   A    
C33   H57   S    
C94   O6    A    
C29   C55   A    
C46   H54   S    
C30   C56   A    
C100  C124  S    
C68   H66   S    
C85   O37   A    
C110  H78   S    
C12   C20   S    
C142  H38   S    
C13   C21   S    
C85   C117  S    
Cr11  O37   S    
C115  C139  S    
C113  C137  S    
C36   C44   A    
C33   C51   A    
C86   O38   A    
C37   C45   A    
C130  C138  S    
C36   C50   A    
C39   C47   A    
C40   C48   A    
C20   C94   S    
C133  C141  S    
Cr1   O49   S    
C24   C90   S    
C15   H47   S    
C28   C58   A    
C98   C106  S    
C61   C69   A    
C33   C41   A    
C1    O17   A    
C10   C18   S    
C126  H22   S    
Cr12  O48   S    
C32   C62   A    
C129  C137  S    
C126  C134  S    
C7    O23   A    
C92   O4    A    
C84   O36   A    
C10   C138  S    
C85   O29   A    
C16   H48   S    
C101  C109  S    
C102  H14   S    
C14   C142  S    
C81   O33   A    
Cr5   O18   S    
C47   H55   S    
C134  H30   S    
C83   O35   A    
C71   C79   A    
Cr6   O20   S    
C74   C76   A    
C103  C111  S    
C78   C80   A    
Cr3   O13   S    
Cr5   O25   S    
C66   C74   A    
C73   H1    S    
C124  C132  S    
C111  C119  S    
C67   H65   S    
Cr11  O51   S    
C59   C67   A    
C86   O30   A    
C35   C49   A    
C101  C125  S    
Cr5   O49   S    
C35   C43   A    
C133  H29   S    
C24   C136  S    
C135  C143  S    
C84   C116  S    
C136  H32   S    
C103  H15   S    
C131  H27   S    
Cr11  O46   S    
C135  H31   S    
C9    H41   S    
Cr7   O22   S    
Cr2   O3    S    
C23   C103  S    
C100  C108  S    
C83   C115  S    
C103  C127  S    
C104  C112  S    
C1    O9    A    
C122  H18   S    
C45   H53   S    
C91   O3    A    
C106  H74   S    
C93   O45   A    
C50   C52   A    
Cr12  O40   S    
C57   C65   A    
Cr1   O10   S    
C12   H44   S    
C141  H37   S    
C98   H10   S    
C26   C60   A    
C15   C143  S    
C40   C54   A    
C96   O48   A    
C10   C106  S    
C67   C75   A    
Cr8   O24   S    
Cr7   O29   S    
C14   C110  S    
Cr1   O1    S    
C8    O24   A    
C102  C126  S    
C123  H19   S    
C144  H40   S    
C68   C76   A    
Cr4   O7    S    
C127  H23   S    
C14   C22   S    
C107  H75   S    
C72   C80   A    
C36   H60   S    
C125  H21   S    
Cr8   O31   S    
Cr6   O27   S    
C14   H46   S    
C114  C138  S    
C38   C46   A    
Cr10  O36   S    
C37   C55   A    
Cr3   O6    S    
C113  C121  S    
Cr4   O16   S    
C22   C92   S    
C90   O2    A    
C25   C59   A    
Cr2   O50   S    
C17   C97   S    
C27   C49   A    
C87   O39   A    
C119  C127  S    
C29   C63   A    
C30   C64   A    
C73   C75   A    
C31   C61   A    
Cr9   O42   S    
C37   H61   S    
C109  C117  S    
C11   C19   S    
C127  C135  S    
Cr12  O52   S    
C139  H35   S    
C128  C136  S    
C92   O44   A    
C125  C133  S    
C95   O47   A    
Cr9   O49   S    
C109  H77   S    
C11   C139  S    
C80   H8    S    
C69   C77   A    
C82   O34   A    
C12   C140  S    
C101  H13   S    
C17   C95   S    
C13   C141  S    
C88   C120  S    
C19   C93   S    
C104  H16   S    
C77   C79   A    
Cr5   O17   S    
C72   H70   S    
C3    O19   A    
C32   C54   A    
C77   H5    S    
C74   H2    S    
C43   H51   S    
C5    O21   A    
C3    C25   S    
C34   H58   S    
C79   H7    S    
C93   O5    A    
Cr4   O52   S    
C83   O27   A    
C117  C141  S    
C134  C142  S    
C20   C100  S    
C143  H39   S    
C4    O12   A    
C86   C118  S    
C63   C71   A    
C124  H20   S    
C22   C134  S    
C112  H80   S    
C102  C110  S    
Cr10  O43   S    
C65   H67   S    
C16   C112  S    
C12   C108  S    
C21   C91   S    
C105  C113  S    
C19   C99   S    
C116  C124  S    
C123  C131  S    
C88   O40   A    
C121  C129  S    
C94   O46   A    
C4    C26   S    
C120  C128  S    
C132  C140  S    
C99   C107  S    
C34   C52   A    
C23   C135  S    
C8    C30   S    
C108  C116  S    
C2    O18   A    
C136  C144  S    
C132  H28   S    
C39   C53   A    
C97   H9    S    
C42   H50   S    
C104  C128  S    
C11   H43   S    
Cr11  O38   S    
C88   O32   A    
Cr2   O11   S    
C60   C68   A    
C81   C113  S    
C111  H79   S    
C82   O26   A    
C9    C105  S    
C71   H69   S    
C3    O11   A    
C70   C78   A    
C18   C96   S    
Cr11  O45   S    
Cr7   O21   S    
Cr2   O4    S    
C106  C114  S    
C89   O41   A    
C91   O43   A    
C44   H52   S    
C65   C73   A    
Cr7   O51   S    
C4    O20   A    
Cr12  O47   S    
C5    C31   S    
Cr8   O52   S    
C28   C50   A    
C58   C66   A    
Cr1   O9    S    
C97   C121  S    
C21   C101  S    
C15   C23   S    
C13   C109  S    
C16   C24   S    
C138  H34   S    
C95   O7    A    
C69   H71   S    
C53   C55   A    
C19   C131  S    
Cr6   O19   S    
C54   C56   A    
C17   C129  S    
C15   C111  S    
Cr10  O50   S    
C131  C139  S    
C82   C114  S    
C66   H68   S    
C130  H26   S    
C2    O10   A    
Cr3   O14   S    
Cr5   O26   S    
Cr4   O8    S    
Cr6   O50   S    
C26   C52   A    
Cr8   O32   S    
Cr6   O28   S    
C96   O8    A    
C38   C56   A    
C31   C53   A    
Cr9   O34   S    
C107  C115  S    
C137  H33   S    
Cr3   O5    S    
C9    C17   S    
C78   H6    S    
C11   C107  S    
C140  H36   S    
Cr9   O33   S    
C99   C123  S    
C75   H3    S    
C129  H25   S    
C76   H4    S    
Cr9   O41   S    
Cr2   O12   S    
C118  C142  S    
C39   H63   S    
Cr3   O51   S    
C18   C98   S    
C25   C51   A    
C22   C102  S    
C100  H12   S    
C5    O13   A    
C9    C137  S    
Cr12  O39   S    
C35   H59   S    
C13   H45   S    
C64   C72   A    
C41   H49   S    
C18   C130  S    
C114  C122  S    
C98   C122  S    
C7    O15   A    
C1    C27   S    
C6    O14   A    
C2    C28   S    
C118  C126  S    
C89   O1    A    
C117  C125  S    
C122  C130  S    
Cr8   O23   S    
Cr7   O30   S    
C116  C140  S    
