data_mof_unit_32971.cif
_audit_creation_date              2012-12-11T17:37:53-0500
_audit_creation_method            fapswitch 2.2
_symmetry_space_group_name_H-M    P1
_symmetry_Int_Tables_number       1
_space_group_crystal_system       triclinic
_cell_length_a                    13.084015
_cell_length_b                    13.03375
_cell_length_c                    15.331697
_cell_angle_alpha                 116.34228
_cell_angle_beta                  63.768707
_cell_angle_gamma                 97.228495
_cell_volume                      2093.72384563

loop_
_atom_site_label
_atom_site_type_symbol
_atom_type_description
_atom_site_fract_x
_atom_site_fract_y
_atom_site_fract_z
_atom_type_partial_charge
C1    C     C_R   0.999588 0.832699 0.052819 0.468288
C2    C     C_R   0.675204 0.542632 0.322438 0.005222
C3    C     C_R   0.670836 0.442658 0.913918 -0.380813
C4    C     C_R   0.086745 0.781672 0.297435 -0.106991
C5    C     C_R   0.336018 0.541528 0.976771 0.581432
C6    C     C_R   0.947637 0.182289 0.781236 -0.077807
C7    C     C_R   0.199163 0.511241 0.695996 0.509653
C8    C     C_R   0.059636 0.253588 0.081386 -0.131308
C9    C     C_R   0.957878 0.170272 0.989503 0.474046
C10   C     C_R   0.298552 0.594411 0.791357 -0.244846
C11   C     C_R   0.256790 0.435288 0.067545 -0.259185
C12   C     C_R   0.680029 0.471247 0.220967 -0.094945
C13   C     C_R   0.034371 0.281307 0.684087 -0.151670
C14   C     C_R   0.358651 0.468844 0.009626 -0.060232
C15   C     C_R   0.004413 0.175041 0.679146 0.018755
C16   C     C_R   0.294868 0.568339 0.695953 -0.017551
C17   C     C_R   0.019415 0.148817 0.035216 0.013194
C18   C     C_R   0.442801 0.743817 0.255442 -0.290942
C19   C     C_R   0.326054 0.779603 0.314436 -0.155904
C20   C     C_R   0.286914 0.889942 0.341885 0.125033
C21   C     C_R   0.366202 0.962491 0.306395 -0.272668
C22   C     C_R   0.482488 0.924922 0.244042 -0.116000
C23   C     C_R   0.757400 0.513532 0.889424 0.489222
C24   C     C_R   0.521849 0.815784 0.218652 0.612653
C25   C     C_R   0.139595 0.034211 0.509764 -0.225769
C26   C     C_R   0.025698 0.073414 0.583451 0.065658
C27   C     C_R   0.934603 0.013829 0.566432 0.017559
C28   C     C_R   0.959532 0.916199 0.472241 -0.228648
C29   C     C_R   0.073186 0.876396 0.397014 0.066072
C30   C     C_R   0.165264 0.933504 0.415546 0.026992
C31   C     C_R   0.752374 0.011002 0.717657 -0.262501
C32   C     C_R   0.634720 0.039664 0.781004 -0.121592
C33   C     C_R   0.575466 0.108376 0.766393 0.569622
C34   C     C_R   0.023204 0.690685 0.297727 -0.244267
C35   C     C_R   0.635806 0.148176 0.686948 -0.297744
C36   C     C_R   0.753934 0.121967 0.625491 -0.174755
C37   C     C_R   0.812834 0.053447 0.640727 0.133224
C38   C     C_R   0.863059 0.356022 0.397431 0.561231
C39   C     C_R   0.759966 0.390089 0.406447 -0.174003
C40   C     C_R   0.700879 0.497232 0.487424 0.029556
C41   C     C_R   0.744399 0.568811 0.561258 -0.179561
C42   C     C_R   0.846692 0.535083 0.552906 -0.131021
C43   C     C_R   0.906272 0.429473 0.471267 -0.289621
C44   C     C_R   0.495614 0.543641 0.588603 -0.252603
C45   C     C_R   0.689681 0.405260 0.975836 0.570293
C46   C     C_R   0.389160 0.579586 0.606980 0.064168
C47   C     C_R   0.377062 0.614877 0.537333 0.114280
C48   C     C_R   0.473659 0.602630 0.443327 -0.196783
C49   C     C_R   0.579353 0.561362 0.423119 0.054558
C50   C     C_R   0.591604 0.535198 0.498391 0.057738
C51   C     C_R   0.217012 0.628840 0.492413 0.599120
C52   C     C_R   0.113868 0.685236 0.521389 -0.322235
C53   C     C_R   0.063532 0.782803 0.619371 -0.101593
C54   C     C_R   0.114440 0.824530 0.690250 -0.080891
C55   C     C_R   0.215981 0.769012 0.663247 -0.243589
C56   C     C_R   0.103865 0.792393 0.206269 0.582296
C57   C     C_R   0.268295 0.671199 0.564395 0.089351
C58   C     C_2   0.466826 0.454892 0.005130 0.427190
C59   C     C_2   0.561003 0.437715 0.912149 0.436414
C60   C     C_2   0.826293 0.953920 0.097331 -0.171481
C61   C     C_2   0.815266 0.037923 0.192328 -0.006661
C62   C     C_R   0.784207 0.563273 0.312911 -0.110094
C63   C     C_R   0.896432 0.746704 0.961873 -0.171465
C64   C     C_R   0.907449 0.850807 0.037694 0.030763
H1    H     H_    0.356314 0.649614 0.820139 0.165848
H2    H     H_    0.075345 0.303837 0.617398 0.147565
H3    H     H_    0.472090 0.661257 0.240320 0.165626
H4    H     H_    0.609608 0.436641 0.200970 0.188195
H5    H     H_    0.542433 0.981570 0.216860 0.137198
H6    H     H_    0.208084 0.080949 0.527406 0.141565
H7    H     H_    0.796210 0.955010 0.727905 0.137936
H8    H     H_    0.589185 0.007357 0.840909 0.153022
H9    H     H_    0.591244 0.198117 0.671661 0.159304
H10   H     H_    0.798984 0.152283 0.563977 0.145924
H11   H     H_    0.726483 0.333699 0.349852 0.145031
H12   H     H_    0.879908 0.590982 0.609784 0.174184
H13   H     H_    0.503917 0.516738 0.643028 0.172438
H14   H     H_    0.467449 0.627275 0.386889 0.142014
H15   H     H_    0.072508 0.653537 0.468054 0.119893
H16   H     H_    0.075331 0.900130 0.766195 0.116561
H17   H     H_    0.997213 0.654643 0.354948 0.134340
H18   H     H_    0.254530 0.802909 0.719127 0.140758
H19   H     H_    0.767270 0.958281 0.066638 0.162240
H20   H     H_    0.867199 0.036659 0.230748 0.199720
H21   H     H_    0.810170 0.615112 0.376175 0.116525
H22   H     H_    0.830648 0.730420 0.934434 0.204161
N1    N     N_R   0.037320 0.720000 0.995830 -0.108256
N2    N     N_R   0.946240 0.290870 0.848020 -0.044908
N3    N     N_R   0.146160 0.501170 0.788610 -0.105991
N4    N     N_R   0.025750 0.332680 0.063570 -0.077614
N5    N     N_R   0.962680 0.280000 0.004170 -0.071405
N6    N     N_R   0.209230 0.553860 0.848010 -0.071270
N7    N     N_R   0.175100 0.482030 0.063570 -0.060688
N8    N     N_R   0.996810 0.351820 0.788610 -0.059494
N9    N     N_R   0.790770 0.446140 0.151990 -0.038298
N10   N     N_R   0.824900 0.517970 0.936430 -0.106381
N11   N     N_R   0.003190 0.648180 0.211390 -0.065890
N12   N     N_R   0.774330 0.457010 0.995830 -0.115628
N13   N     N_R   0.053760 0.709130 0.151980 -0.083089
N14   N     N_R   0.853840 0.498830 0.211390 -0.044920
N15   N     N_R   0.974250 0.667320 0.936430 -0.073523
N16   N     N_R   0.225670 0.542990 0.004170 -0.110976
Ni1   Ni    Ni4+2 0.130310 0.630310 0.000000 0.221840
Ni2   Ni    Ni4+2 0.869690 0.369690 0.000000 0.294620
Ni3   Ni    Ni4+2 0.985660 0.509480 0.863750 0.227146
Ni4   Ni    Ni4+2 0.014340 0.490520 0.136250 0.199264
O1    O     O_3   0.057686 0.918963 0.097383 -0.746793
H23   H     H_    0.139700 0.893366 0.048696 0.351504
H24   H     H_    0.906720 0.115020 0.802932 0.175763
O2    O     O_3   0.150181 0.497048 0.628979 -0.771047
H25   H     H_    0.067276 0.492522 0.668466 0.319034
H26   H     H_    0.101469 0.271629 0.132927 0.147276
O3    O     O_3   0.885207 0.097984 0.953243 -0.782525
H27   H     H_    0.907049 0.020156 0.939021 0.296982
H28   H     H_    0.243594 0.388992 0.114627 0.147447
O4    O     O_3   0.637386 0.782496 0.159238 -0.785127
H29   H     H_    0.650978 0.703532 0.148161 0.309181
H30   H     H_    0.266826 0.722799 0.341690 0.136379
H31   H     H_    0.337862 0.048276 0.327133 0.153604
H32   H     H_    0.889092 0.872601 0.455958 0.145325
O5    O     O_3   0.459339 0.134487 0.830139 -0.768873
H33   H     H_    0.430983 0.185335 0.811425 0.321359
H34   H     H_    0.985719 0.404936 0.465811 0.147957
O6    O     O_3   0.785730 0.555342 0.814231 -0.784860
H35   H     H_    0.719443 0.550990 0.798379 0.339887
O7    O     O_3   0.919390 0.251049 0.316109 -0.785938
H36   H     H_    0.990071 0.239780 0.320760 0.316804
H37   H     H_    0.699392 0.651279 0.624752 0.138762
O8    O     O_3   0.267203 0.531450 0.396332 -0.767536
H38   H     H_    0.220531 0.513691 0.355841 0.297977
H39   H     H_    0.984804 0.825897 0.640431 0.124114
O9    O     O_3   0.472981 0.470529 0.098222 -0.797281
H40   H     H_    0.395128 0.487359 0.158346 0.329160
O10   O     O_3   0.551910 0.418004 0.819471 -0.775483
H41   H     H_    0.629261 0.394291 0.758314 0.318959
O11   O     O_3   0.650544 0.309557 0.993141 -0.720857
H42   H     H_    0.602302 0.272554 0.954608 0.329524
O12   O     O_3   0.188053 0.850784 0.159330 -0.783313
H43   H     H_    0.208802 0.910110 0.215460 0.324940
O13   O     O_3   0.404626 0.624060 0.954659 -0.746603
H44   H     H_    0.353154 0.688690 0.975323 0.323867

loop_
_geom_bond_atom_site_label_1
_geom_bond_atom_site_label_2
_ccdc_geom_bond_type
C1    N1    A    
N13   Ni1   S    
N10   Ni3   S    
N8    Ni3   S    
O7    H36   S    
C41   C42   A    
C54   C55   A    
C3    C23   A    
C35   C36   A    
N5    Ni2   S    
C63   N15   A    
C2    C12   A    
C9    N5    A    
C51   O8    S    
C32   H8    S    
C20   C30   S    
C53   C54   A    
C23   N10   A    
C12   H4    S    
C28   C29   A    
C26   C27   A    
C18   C24   A    
C36   C37   A    
O3    H27   S    
C45   N12   A    
C8    H26   S    
C38   C39   A    
C33   C35   A    
C60   H19   S    
N12   Ni2   S    
C7    N3    A    
C34   N11   A    
C6    N2    A    
O4    H29   S    
C18   C19   A    
C48   H14   S    
O2    H25   S    
N6    Ni1   S    
C38   O7    S    
C6    C15   A    
N1    N15   A    
C19   C20   A    
C19   H30   S    
C58   O9    S    
O9    H40   S    
N10   N12   A    
O1    H23   S    
C12   N9    A    
C51   C57   A    
C34   H17   S    
C39   H11   S    
C52   H15   S    
C11   H28   S    
C22   H5    S    
C4    C29   S    
C11   N7    A    
C31   H7    S    
C10   N6    A    
C21   C22   A    
C4    C56   A    
C33   O5    S    
C41   H37   S    
N2    Ni2   S    
C44   C46   A    
C54   H16   S    
C13   H2    S    
N15   Ni3   S    
C14   C58   S    
C62   H21   S    
C4    C34   A    
C51   C52   A    
O13   H44   S    
N4    Ni4   S    
C28   H32   S    
C16   C46   S    
C39   C40   A    
N9    N14   A    
C15   C26   S    
C18   H3    S    
C3    C45   A    
C31   C37   A    
C60   C61   D    
C55   H18   S    
C29   C30   A    
C2    C49   S    
N7    Ni4   S    
C47   C57   S    
C56   O12   S    
C47   C48   A    
C48   C49   A    
O5    H33   S    
N3    N6    A    
C5    C14   A    
O10   H41   S    
C36   H10   S    
C1    O1    S    
C62   N14   A    
N11   Ni4   S    
C9    C17   A    
C40   C41   A    
C24   O4    S    
C13   C15   A    
C63   H22   S    
C6    H24   S    
C22   C24   A    
C58   C59   D    
C8    N4    A    
C42   C43   A    
C5    N16   A    
C1    C64   A    
C43   H34   S    
C52   C53   A    
C5    O13   S    
O8    H38   S    
C10   H1    S    
C44   C50   A    
C25   C30   A    
C46   C47   A    
C35   H9    S    
C45   O11   S    
N11   N13   A    
C42   H12   S    
C31   C32   A    
C7    C16   A    
C53   H39   S    
O11   H42   S    
C61   H20   S    
N7    N16   A    
C23   O6    S    
C44   H13   S    
C59   O10   S    
N14   Ni4   S    
C8    C17   A    
C7    O2    S    
C13   N8    A    
C60   C64   S    
C9    O3    S    
C32   C33   A    
C55   C57   A    
C25   C26   A    
N1    Ni1   S    
C38   C43   A    
C21   H31   S    
C10   C16   A    
N9    Ni2   S    
N4    N5    A    
C27   C37   S    
C40   C50   S    
C11   C14   A    
N16   Ni1   S    
O12   H43   S    
C63   C64   A    
C20   C21   A    
C49   C50   A    
N3    Ni3   S    
C27   C28   A    
N2    N8    A    
C25   H6    S    
C56   N13   A    
C2    C62   A    
O6    H35   S    
C3    C59   S    
