data_mof_unit_59948.cif
_audit_creation_date              2013-03-05T15:55:05-0500
_audit_creation_method            fapswitch 2.2
_symmetry_space_group_name_H-M    P1
_symmetry_Int_Tables_number       1
_space_group_crystal_system       triclinic
_cell_length_a                    15.217986
_cell_length_b                    15.015636
_cell_length_c                    14.986899
_cell_angle_alpha                 108.946866
_cell_angle_beta                  110.65296
_cell_angle_gamma                 109.651896
_cell_volume                      2608.21591582

loop_
_atom_site_label
_atom_site_type_symbol
_atom_site_description
_atom_site_fract_x
_atom_site_fract_y
_atom_site_fract_z
_atom_type_partial_charge
C1    C     C_R   0.202901 0.294378 0.193261 -0.248013
H1    H     H_    0.154310 0.328598 0.164527 0.156870
N1    N     N_R   0.291070 0.347930 0.293870 -0.072726
C2    C     C_R   0.530153 0.434375 0.748362 -0.122724
H2    H     H_    0.559380 0.378948 0.753407 0.118512
N2    N     N_R   0.554050 0.497220 0.706150 -0.045199
C3    C     C_R   0.508102 0.204872 0.408914 -0.139259
H3    H     H_    0.491336 0.160482 0.326474 0.163170
N3    N     N_R   0.497240 0.291100 0.443210 -0.043071
C4    C     C_R   0.272933 0.540929 0.585726 -0.143866
H4    H     H_    0.288246 0.587483 0.667010 0.094522
N4    N     N_R   0.347890 0.554050 0.556810 -0.040091
C5    C     C_R   0.596511 0.292494 0.591609 -0.133317
H5    H     H_    0.656589 0.324502 0.676308 0.092280
N5    N     N_R   0.554050 0.347900 0.556830 -0.042726
C6    C     C_R   0.186000 0.438041 0.401778 -0.129275
H6    H     H_    0.126482 0.381689 0.315417 0.111643
N6    N     N_R   0.291070 0.497250 0.443190 -0.037280
C7    C     C_R   0.444082 0.529311 0.757938 -0.149091
H7    H     H_    0.400049 0.565856 0.781075 0.092679
N7    N     N_R   0.497240 0.554030 0.706140 -0.039269
C8    C     C_R   0.287766 0.200090 0.195111 0.617822
N8    N     N_R   0.347890 0.291110 0.293870 -0.099388
C9    C     C_R   0.200216 0.203130 0.127785 -0.115816
C10   C     C_R   0.461415 0.451988 0.781698 0.059646
C11   C     C_R   0.568431 0.202021 0.499649 0.057716
C12   C     C_R   0.171330 0.465423 0.488974 0.096973
C13   C     C_R   0.456841 0.721945 0.406932 -0.097562
H8    H     H_    0.418139 0.699101 0.322342 0.157386
N9    N     N_R   0.445950 0.652100 0.443170 -0.045671
C14   C     C_R   0.805530 0.510349 0.594997 -0.171558
H9    H     H_    0.863470 0.544611 0.680692 0.118442
N10   N     N_R   0.708930 0.502750 0.556810 -0.043924
C15   C     C_R   0.499808 0.405569 0.200073 -0.135153
H10   H     H_    0.523016 0.345331 0.176310 0.148617
N11   N     N_R   0.502760 0.445970 0.293860 -0.085423
C16   C     C_R   0.724810 0.815569 0.763740 -0.135056
H11   H     H_    0.707846 0.880314 0.788829 0.093666
N12   N     N_R   0.652110 0.708890 0.706130 -0.041641
C17   C     C_R   0.815166 0.724963 0.756717 -0.131809
H12   H     H_    0.879264 0.706044 0.769121 0.093035
N13   N     N_R   0.708930 0.652070 0.706130 -0.040914
C18   C     C_R   0.411635 0.497223 0.194128 0.599784
N14   N     N_R   0.445950 0.502780 0.293850 -0.104702
C19   C     C_R   0.543495 0.815321 0.590563 -0.135602
H13   H     H_    0.580403 0.879729 0.673464 0.087259
N15   N     N_R   0.502760 0.708900 0.556790 -0.043552
C20   C     C_R   0.711467 0.413759 0.410763 -0.020355
H14   H     H_    0.683271 0.358010 0.326414 0.138069
N16   N     N_R   0.652110 0.445950 0.443190 -0.052823
Ni1   Ni    Ni4+2 0.369690 0.500010 0.369700 0.237183
Ni2   Ni    Ni4+2 0.630310 0.499990 0.630300 0.206097
Ni3   Ni    Ni4+2 0.500000 0.369720 0.369720 0.223565
Ni4   Ni    Ni4+2 0.500000 0.630280 0.630280 0.210065
C21   C     C_R   0.522281 0.825624 0.498009 0.079231
C22   C     C_R   0.809753 0.457183 0.504758 0.074700
C23   C     C_R   0.441215 0.432958 0.133190 -0.092193
C24   C     C_R   0.826325 0.827832 0.789923 0.055467
H15   H     H_    0.888256 0.363042 0.989843 0.093328
C25   C     C_R   0.990029 0.486652 0.162103 -0.100001
H16   H     H_    0.022102 0.551988 0.146307 0.090268
C26   C     C_R   0.021227 0.509168 0.270240 -0.092157
H17   H     H_    0.077083 0.592612 0.337979 0.102031
C27   C     C_R   0.976854 0.424228 0.289819 0.182737
C28   C     C_R   0.902879 0.316847 0.200468 -0.120973
H18   H     H_    0.866236 0.250885 0.214076 0.098002
C29   C     C_R   0.872273 0.294870 0.092826 -0.091878
H19   H     H_    0.813962 0.212267 0.024143 0.097339
C30   C     C_R   0.914601 0.379962 0.073573 -0.093091
C31   C     C_R   0.917791 0.469436 0.420179 0.552932
C32   C     C_R   0.903483 0.457890 0.504272 -0.146626
C33   C     C_R   0.975630 0.443050 0.579916 -0.016651
C34   C     C_R   0.059071 0.436640 0.567210 -0.243684
H20   H     H_    0.119539 0.431957 0.628262 0.138984
C35   C     C_R   0.068357 0.440808 0.479428 -0.005428
C36   C     C_R   0.991319 0.447467 0.399448 -0.164001
C37   C     C_R   0.046737 0.541183 0.781052 -0.198722
H21   H     H_    0.092216 0.617318 0.785654 0.111346
C38   C     C_R   0.061989 0.540248 0.878229 -0.113784
H22   H     H_    0.117582 0.615414 0.957050 0.095757
C39   C     C_R   0.008175 0.441747 0.873942 -0.082474
H23   H     H_    0.022952 0.440805 0.949576 0.104135
C40   C     C_R   0.937428 0.344385 0.772332 -0.154481
H24   H     H_    0.897914 0.268018 0.769768 0.130556
C41   C     C_R   0.920447 0.345174 0.674553 -0.142840
H25   H     H_    0.868139 0.268846 0.596585 0.118590
C42   C     C_R   0.975395 0.443709 0.678508 0.164898
C43   C     C_R   0.495260 0.378429 0.906100 0.012787
C44   C     C_R   0.427426 0.404783 0.842597 0.119031
C45   C     C_R   0.335061 0.394983 0.849521 -0.240576
H26   H     H_    0.276272 0.406900 0.795848 0.131909
C46   C     C_R   0.326377 0.383330 0.936023 -0.156624
H27   H     H_    0.260430 0.385817 0.946891 0.170470
C47   C     C_R   0.414933 0.391404 0.018967 0.061728
C48   C     C_R   0.489689 0.372904 0.993880 -0.155499
C49   C     C_3   0.612766 0.422816 0.061832 1.243790
C50   C     C_3   0.617225 0.427743 0.962959 -0.753585
H28   H     H_    0.660699 0.510299 0.974808 0.196799
H29   H     H_    0.640614 0.371511 0.922166 0.197187
C51   C     C_R   0.524139 0.925313 0.396221 -0.039704
C52   C     C_R   0.564874 0.926129 0.495809 0.099998
C53   C     C_R   0.642870 0.026679 0.593734 -0.202782
H30   H     H_    0.680504 0.030452 0.671584 0.118304
C54   C     C_R   0.659465 0.123737 0.593995 -0.210857
H31   H     H_    0.707041 0.198543 0.672608 0.123950
C55   C     C_R   0.598110 0.119401 0.495888 0.098741
C56   C     C_R   0.542170 0.021371 0.396025 0.069187
C57   C     C_3   0.429364 0.966107 0.299374 -0.651049
C58   C     C_3   0.409567 0.861712 0.300092 0.531629
H32   H     H_    0.377484 0.994804 0.320627 0.229155
H33   H     H_    0.429970 0.963920 0.224741 0.165718
H34   H     H_    0.397681 0.799081 0.225764 -0.018156
C59   C     C_R   0.020396 0.125952 0.974839 0.159104
C60   C     C_R   0.119062 0.128146 0.010782 0.067811
C61   C     C_R   0.123190 0.038634 0.947938 -0.178549
H35   H     H_    0.199689 0.040832 0.968213 0.182966
C62   C     C_R   0.026357 0.939509 0.868040 -0.236107
H36   H     H_    0.030567 0.867930 0.828458 0.128744
C63   C     C_R   0.926122 0.932467 0.847326 0.057670
C64   C     C_R   0.923804 0.028009 0.894534 0.128624
C65   C     C_3   0.882487 0.080355 0.834065 -0.527832
C66   C     C_3   0.989101 0.185323 0.918457 -0.487477
H37   H     H_    0.869416 0.046960 0.749564 0.207830
H38   H     H_    0.812922 0.084012 0.839929 0.176238
H39   H     H_    0.040776 0.212007 0.884577 0.203161
H40   H     H_    0.980654 0.250526 0.969438 0.187653
O1    O     O_3   0.339613 0.529572 0.152159 -0.636610
C67   C     C_3   0.388585 0.608133 0.126190 -0.367689
H41   H     H_    0.411150 0.578581 0.065192 0.162331
H42   H     H_    0.464888 0.682007 0.200048 0.122150
H43   H     H_    0.329008 0.631219 0.089531 0.178903
O2    O     O_3   0.856339 0.497624 0.353740 -0.584614
C68   C     C_3   0.903307 0.612322 0.410710 -0.139707
H44   H     H_    0.862274 0.636258 0.353392 0.203557
H45   H     H_    0.991877 0.656142 0.439903 0.088640
H46   H     H_    0.890942 0.639385 0.481470 0.119649
O3    O     O_3   0.667551 0.524988 0.161254 -0.604044
C69   C     C_3   0.661132 0.612308 0.148253 -0.391138
H47   H     H_    0.669281 0.669661 0.223604 0.182856
H48   H     H_    0.582813 0.586715 0.077471 0.147199
H49   H     H_    0.730477 0.658188 0.141426 0.170083
O4    O     O_3   0.650162 0.353816 0.087602 -0.589132
C70   C     C_3   0.576792 0.240131 0.013746 -0.360016
H50   H     H_    0.552665 0.217312 0.926992 0.149133
H51   H     H_    0.503446 0.211733 0.020886 0.149446
H52   H     H_    0.618349 0.196039 0.036459 0.188747
O5    O     O_3   0.332124 0.827042 0.330911 -0.585596
C71   C     C_3   0.227328 0.755320 0.235533 -0.263901
H53   H     H_    0.219514 0.676105 0.187317 0.151756
H54   H     H_    0.207652 0.791969 0.182929 0.124130
H55   H     H_    0.166680 0.738860 0.261577 0.168328
O6    O     O_3   0.315897 0.121950 0.165636 -0.649103
C72   C     C_3   0.248336 0.032054 0.167633 -0.368570
H56   H     H_    0.159925 0.999528 0.113705 0.159521
H57   H     H_    0.266338 0.054785 0.253055 0.160060
H58   H     H_    0.263247 0.964411 0.135989 0.182781

loop_
_geom_bond_atom_site_label_1
_geom_bond_atom_site_label_2
_geom_bond_distance
_ccdc_geom_bond_type
C4    C12   1.396594 A    
C70   H52   1.109174 S    
N9    Ni1   1.859480 S    
C9    C60   1.456958 S    
C52   C53   1.403272 A    
C34   H20   1.086397 S    
N1    N8    1.404219 A    
C48   C49   1.523666 S    
C71   H55   1.108410 S    
C20   C22   1.381296 A    
C35   C36   1.409468 A    
C67   H41   1.100472 S    
C11   C55   1.447633 S    
C54   C55   1.402281 A    
C50   H28   1.108370 S    
C3    H3    1.079059 S    
C37   H21   1.083343 S    
N10   Ni2   1.889995 S    
C26   H17   1.082572 S    
C3    C11   1.370193 A    
C13   H8    1.061479 S    
C7    N7    1.350176 A    
C71   H54   1.113587 S    
C15   H10   1.078935 S    
C62   C63   1.403736 A    
N7    Ni4   1.857916 S    
N12   Ni4   1.865070 S    
C55   C56   1.399705 A    
C61   H35   1.080194 S    
C70   H51   1.110345 S    
C57   C58   1.497895 S    
C25   C26   1.399869 A    
C1    H1    1.082078 S    
C19   N15   1.334603 A    
C46   H27   1.082424 S    
C65   H38   1.110429 S    
C26   C27   1.404403 A    
N11   Ni3   1.857915 S    
C39   C40   1.398037 A    
C59   C66   1.492127 S    
O5    C71   1.408354 S    
C6    H6    1.076053 S    
C28   C29   1.396138 A    
C15   C23   1.361190 A    
C56   C57   1.496983 S    
C14   N10   1.323984 A    
C31   C32   1.405671 A    
C14   C22   1.365706 A    
C72   H57   1.111942 S    
C16   C24   1.381509 A    
C6    C12   1.358387 A    
C17   N13   1.338965 A    
C43   C48   1.374616 A    
C51   C58   1.497404 S    
C72   H56   1.112007 S    
C5    H5    1.080640 S    
C34   C35   1.390432 A    
C58   O5    1.414480 S    
C12   C35   1.425013 S    
C46   C47   1.409473 A    
C54   H31   1.079760 S    
C50   H29   1.110768 S    
C13   C21   1.377282 A    
N6    Ni1   1.889993 S    
N8    Ni3   1.865071 S    
N12   N13   1.404217 A    
C41   C42   1.402785 A    
C8    O6    1.374670 S    
N16   Ni3   1.866108 S    
C17   C24   1.388244 A    
C29   H19   1.082443 S    
N9    N15   1.377275 A    
C71   H53   1.112301 S    
C2    N2    1.319888 A    
C69   H47   1.109117 S    
C58   H34   1.105061 S    
C18   O1    1.379510 S    
C49   O3    1.431045 S    
C38   C39   1.396029 A    
N1    Ni1   1.858931 S    
C2    H2    1.078126 S    
C61   C62   1.394047 A    
N10   N16   1.377272 A    
C41   H25   1.083118 S    
N2    N7    1.403969 A    
C39   H23   1.080902 S    
C25   H16   1.080268 S    
C1    N1    1.334256 A    
C66   H40   1.107720 S    
C18   N14   1.361040 A    
C16   H11   1.073821 S    
C68   H46   1.112413 S    
C59   C64   1.385884 A    
C45   C46   1.407608 A    
C40   H24   1.081336 S    
C22   C32   1.425442 S    
C49   C50   1.531192 S    
C31   O2    1.388585 S    
C27   C36   1.480058 S    
C37   C38   1.397197 A    
C47   C48   1.399706 A    
N5    Ni2   1.859480 S    
C43   C44   1.397947 A    
C72   H58   1.107335 S    
C53   C54   1.391328 A    
C19   C21   1.381756 A    
C65   C66   1.501394 S    
C4    N4    1.334475 A    
H15   C30   1.081434 S    
N15   Ni4   1.857979 S    
N14   Ni1   1.889339 S    
C20   H14   1.082348 S    
C40   C41   1.400186 A    
C23   C47   1.461254 S    
C5    N5    1.336780 A    
C31   C36   1.372710 A    
C68   H44   1.109087 S    
C8    C9    1.384854 A    
C5    C11   1.380516 A    
N11   N14   1.403966 A    
N3    Ni3   1.857980 S    
O1    C67   1.417699 S    
C67   H43   1.108016 S    
C2    C10   1.372116 A    
C33   C42   1.475681 S    
C64   C65   1.492450 S    
C59   C60   1.389399 A    
C3    N3    1.318960 A    
C17   H12   1.076791 S    
C51   C56   1.375803 A    
O4    C70   1.416005 S    
C14   H9    1.076365 S    
C43   C50   1.506507 S    
C33   C34   1.377979 A    
C69   H49   1.109806 S    
C67   H42   1.110705 S    
C63   C64   1.397308 A    
C60   C61   1.404991 A    
C69   H48   1.108524 S    
O3    C69   1.416082 S    
C21   C52   1.445054 S    
C10   C44   1.452401 S    
C57   H33   1.111697 S    
N2    Ni2   1.889339 S    
C27   C28   1.404958 A    
C7    H7    1.076126 S    
C13   N9    1.318637 A    
N3    N5    1.377274 A    
C32   C33   1.410991 A    
C16   N12   1.330957 A    
C62   H36   1.081815 S    
C45   H26   1.083029 S    
C25   C30   1.397480 A    
C66   H39   1.112930 S    
C20   N16   1.317789 A    
C51   C52   1.393700 A    
C57   H32   1.107958 S    
O2    C68   1.411632 S    
C15   N11   1.314953 A    
C53   H30   1.075342 S    
C7    C10   1.397370 A    
C65   H37   1.112496 S    
C4    H4    1.078948 S    
C18   C23   1.406324 A    
C49   O4    1.431037 S    
C38   H22   1.082599 S    
C19   H13   1.075415 S    
C24   C63   1.452863 S    
O6    C72   1.412284 S    
C37   C42   1.405792 A    
C1    C9    1.379441 A    
C6    N6    1.310637 A    
C28   H18   1.083269 S    
N4    N6    1.377272 A    
C68   H45   1.114288 S    
C8    N8    1.336319 A    
C29   C30   1.395586 A    
C44   C45   1.407776 A    
N4    Ni4   1.866108 S    
C70   H50   1.109957 S    
N13   Ni2   1.858931 S    
