data_mof_unit_49770.cif
_audit_creation_date              2012-12-10T20:27:57-0500
_audit_creation_method            fapswitch 2.2
_symmetry_space_group_name_H-M    P1
_symmetry_Int_Tables_number       1
_space_group_crystal_system       triclinic
_cell_length_a                    12.843121
_cell_length_b                    10.695137
_cell_length_c                    9.863179
_cell_angle_alpha                 89.471315
_cell_angle_beta                  97.277589
_cell_angle_gamma                 90.256599
_cell_volume                      1343.81696403

loop_
_atom_site_label
_atom_site_type_symbol
_atom_type_description
_atom_site_fract_x
_atom_site_fract_y
_atom_site_fract_z
_atom_type_partial_charge
C1    C     C_R   0.503818 0.260283 0.501355 0.894804
C2    C     C_R   0.547537 0.939451 0.386910 0.195388
C3    C     C_R   0.518033 0.872448 0.500837 -0.159135
C4    C     C_R   0.298174 0.499218 0.472913 0.876312
C5    C     C_R   0.509007 0.935096 0.622092 0.089970
C6    C     C_3   0.424798 0.927024 0.713793 -0.466245
C7    C     C_3   0.426859 0.068680 0.716995 -0.479925
C8    C     C_R   0.442763 0.413239 0.062816 0.206321
C9    C     C_R   0.564639 0.577009 0.082382 -0.189890
C10   C     C_R   0.565450 0.576902 0.938017 0.226517
C11   C     C_R   0.442392 0.413579 0.920267 0.169557
C12   C     C_R   0.028003 0.467755 0.555829 0.191124
C13   C     C_3   0.326176 0.397222 0.896903 -0.522733
C14   C     C_3   0.326948 0.395442 0.050841 -0.492908
C15   C     C_R   0.502955 0.740272 0.499502 0.894111
C16   C     C_R   0.701820 0.500244 0.526848 0.879518
C17   C     C_R   0.813931 0.496378 0.542875 -0.042446
C18   C     C_R   0.185974 0.500832 0.455420 -0.044995
C19   C     C_R   0.022562 0.569306 0.331788 -0.222115
C20   C     C_R   0.130331 0.556339 0.339280 -0.210953
C21   C     C_R   0.134784 0.453418 0.561081 -0.292782
C22   C     C_3   0.742723 0.637974 0.911937 -0.775852
C23   C     C_R   0.971540 0.526900 0.440617 0.187668
C24   C     C_3   0.477989 0.884882 0.156995 -0.761389
C25   C     C_R   0.864787 0.541821 0.435730 -0.283556
C26   C     C_R   0.869506 0.439037 0.657823 -0.212335
C27   C     C_R   0.977058 0.424919 0.664490 -0.224265
C28   C     C_R   0.510513 0.062507 0.624869 0.136676
C29   C     C_R   0.521455 0.129645 0.506341 -0.139123
C30   C     C_R   0.551225 0.069021 0.392406 -0.292644
H1    H     H_    0.820939 0.586906 0.347401 0.149657
H2    H     H_    0.456888 0.106695 0.819121 0.201791
H3    H     H_    0.612957 0.753170 0.890055 0.203914
H4    H     H_    0.768388 0.664207 0.019801 0.205677
H5    H     H_    0.787437 0.695005 0.844357 0.241778
H6    H     H_    0.760686 0.537845 0.897940 0.247714
H7    H     H_    0.829515 0.401382 0.739496 0.152874
H8    H     H_    0.979607 0.613969 0.242772 0.137390
H9    H     H_    0.170383 0.593099 0.257125 0.150735
H10   H     H_    0.178317 0.407040 0.648386 0.147127
H11   H     H_    0.568570 0.121356 0.303262 0.176465
H12   H     H_    0.453109 0.883296 0.814206 0.196279
H13   H     H_    0.634707 0.909237 0.229401 0.210416
H14   H     H_    0.461284 0.983237 0.124152 0.221942
H15   H     H_    0.406996 0.842921 0.193024 0.256752
H16   H     H_    0.496521 0.831545 0.067304 0.214631
H17   H     H_    0.349974 0.887983 0.661668 0.200974
H18   H     H_    0.614831 0.640786 0.145431 0.171633
H19   H     H_    0.285557 0.480511 0.847458 0.219731
H20   H     H_    0.302889 0.306196 0.848432 0.195177
H21   H     H_    0.285958 0.476711 0.089157 0.213568
H22   H     H_    0.305287 0.302987 0.091622 0.200419
H23   H     H_    0.019986 0.379458 0.753014 0.142083
H24   H     H_    0.353206 0.112257 0.666900 0.195602
N1    N     N_R   0.499290 0.499140 0.142710 -0.116783
N2    N     N_R   0.499290 0.499180 0.857070 -0.122848
N3    N     N_2   0.631655 0.660873 0.876555 -0.250717
N4    N     N_2   0.566176 0.879552 0.264073 -0.286091
O1    O     O_R   0.500010 0.316790 0.614690 -0.619184
O2    O     O_R   0.500000 0.316760 0.385350 -0.621478
O3    O     O_R   0.346360 0.499990 0.595720 -0.623851
O4    O     O_R   0.346350 0.499960 0.366370 -0.626442
O5    O     O_R   0.500000 0.683240 0.614650 -0.605557
O6    O     O_R   0.499990 0.683210 0.385310 -0.591267
O7    O     O_R   0.653650 0.500040 0.633630 -0.600896
O8    O     O_R   0.653640 0.500010 0.404280 -0.625531
Zn1   Zn    Zn3+2 0.500010 0.500020 0.653130 0.956192
Zn2   Zn    Zn3+2 0.499990 0.499980 0.346870 0.945450

loop_
_geom_bond_atom_site_label_1
_geom_bond_atom_site_label_2
_ccdc_geom_bond_type
C25   H1    S    
C19   C23   A    
C15   O6    A    
C27   H23   S    
C30   H11   S    
C6    C7    S    
C9    N1    A    
C19   H8    S    
N2    Zn1   S    
C10   N2    A    
C9    C10   A    
O3    Zn1   S    
O8    Zn2   S    
C19   C20   A    
H13   N4    S    
O4    Zn2   S    
C2    C30   A    
C24   H16   S    
C7    C28   S    
C22   N3    S    
C2    N4    S    
C2    C3    A    
C17   C25   A    
C26   H7    S    
C13   C14   S    
C18   C21   A    
C22   H5    S    
C11   C13   S    
C12   C23   A    
C26   C27   A    
C29   C30   A    
C21   H10   S    
C12   C21   A    
C8    C11   A    
C13   H19   S    
C17   C26   A    
C4    O3    A    
C8    N1    A    
C1    C29   S    
C28   C29   A    
C16   O7    A    
C1    O1    A    
N1    Zn2   S    
C18   C20   A    
C23   C25   A    
C5    C6    S    
C22   H4    S    
O5    Zn1   S    
C16   O8    A    
C6    H17   S    
C24   H15   S    
C12   C27   A    
C13   H20   S    
C5    C28   A    
O6    Zn2   S    
C4    O4    A    
C10   N3    S    
C22   H6    S    
C24   H14   S    
O2    Zn2   S    
C9    H18   S    
C24   N4    S    
C6    H12   S    
C1    O2    A    
C20   H9    S    
C15   O5    A    
C3    C15   S    
H3    N3    S    
C7    H2    S    
C8    C14   S    
C7    H24   S    
O1    Zn1   S    
O7    Zn1   S    
C4    C18   S    
C14   H22   S    
C11   N2    A    
C14   H21   S    
C16   C17   S    
C3    C5    A    
