data_mof_unit_22767.cif
_audit_creation_date              2012-12-11T16:29:36-0500
_audit_creation_method            fapswitch 2.2
_symmetry_space_group_name_H-M    P1
_symmetry_Int_Tables_number       1
_space_group_crystal_system       triclinic
_cell_length_a                    6.953721
_cell_length_b                    17.233439
_cell_length_c                    18.842728
_cell_angle_alpha                 106.218168
_cell_angle_beta                  89.050857
_cell_angle_gamma                 89.894546
_cell_volume                      2167.84180633

loop_
_atom_site_label
_atom_site_type_symbol
_atom_type_description
_atom_site_fract_x
_atom_site_fract_y
_atom_site_fract_z
_atom_type_partial_charge
O1    O     O_R   0.494360 0.415680 0.413760 -0.531191
O2    O     O_R   0.818810 0.432910 0.557230 -0.503753
O3    O     O_R   0.994290 0.584320 0.586240 -0.533919
C1    C     C_R   0.649700 0.416363 0.580982 0.726820
O4    O     O_R   0.823740 0.406440 0.412520 -0.539183
O5    O     O_R   0.999250 0.557660 0.440500 -0.528028
C2    C     C_R   0.657087 0.380659 0.386969 0.684569
O6    O     O_R   0.489400 0.442340 0.559500 -0.516882
O7    O     O_3   0.662500 0.549650 0.509350 -0.366259
V1    V     V_3+5 0.935340 0.490790 0.498270 1.510832
O8    O     O_R   0.329270 0.567090 0.442770 -0.525576
C3    C     C_R   0.161326 0.584062 0.419420 0.698431
O9    O     O_R   0.324340 0.593560 0.587480 -0.536317
C4    C     C_R   0.154064 0.614899 0.616030 0.707035
V2    V     V_3+5 0.435970 0.509210 0.501730 1.487948
O10   O     O_3   0.158940 0.450350 0.490650 -0.339541
C5    C     C_R   0.094767 0.587890 0.765658 -0.105806
C6    C     C_R   0.061978 0.578602 0.836900 -0.079723
C7    C     C_R   0.099536 0.642796 0.899013 -0.071714
C8    C     C_R   0.160392 0.716743 0.889650 -0.118834
C9    C     C_R   0.136698 0.734044 0.820682 0.015714
C10   C     C_R   0.122566 0.667272 0.755990 0.025111
C11   C     C_R   0.130498 0.815505 0.815595 -0.148692
C12   C     C_R   0.138470 0.831011 0.744534 0.027837
C13   C     C_R   0.150622 0.763170 0.680115 -0.000249
C14   C     C_R   0.141051 0.682455 0.685389 -0.142999
C15   C     C_R   0.138909 0.911043 0.733794 0.119458
C16   C     C_R   0.158805 0.920596 0.661865 -0.117038
C17   C     C_R   0.174285 0.853383 0.600564 0.250993
C18   C     C_R   0.168585 0.776570 0.609615 -0.184350
H1    H     H_    0.178271 0.727192 0.559537 0.128767
C19   C     C_1   0.110921 0.864386 0.133031 -0.099211
C20   C     C_1   0.118579 0.821833 0.176615 0.099096
C21   C     C_1   0.128406 0.771635 0.228500 0.099141
C22   C     C_1   0.136768 0.729309 0.272274 0.100651
C23   C     C_1   0.146327 0.678947 0.324038 0.081142
C24   C     C_1   0.153768 0.636216 0.367488 -0.170045
C25   C     C_1   0.640947 0.364344 0.632932 -0.133030
C26   C     C_1   0.636921 0.321558 0.676336 0.075422
C27   C     C_1   0.633809 0.271037 0.727962 0.080452
C28   C     C_1   0.631494 0.228461 0.771570 0.071940
C29   C     C_1   0.628280 0.177968 0.823224 0.077943
C30   C     C_1   0.624132 0.135229 0.866677 -0.084255
C31   C     C_R   0.728263 0.404925 0.244766 -0.201235
C32   C     C_R   0.739182 0.423366 0.177560 -0.073264
C33   C     C_R   0.671906 0.367830 0.113818 -0.061209
C34   C     C_R   0.602316 0.292309 0.117617 0.147117
C35   C     C_R   0.627552 0.266824 0.182976 0.018401
C36   C     C_R   0.670890 0.327636 0.248950 0.050142
C37   C     C_R   0.608602 0.184515 0.184941 -0.119433
C38   C     C_R   0.604105 0.166049 0.255025 -0.033263
C39   C     C_R   0.638228 0.229909 0.321054 -0.041879
C40   C     C_R   0.657882 0.311247 0.318116 -0.110546
C41   C     C_R   0.564912 0.086709 0.263400 0.111995
C42   C     C_R   0.535085 0.076411 0.334440 0.294851
C43   C     C_R   0.588016 0.137222 0.396757 0.231891
C44   C     C_R   0.660936 0.209554 0.388498 -0.197075
H2    H     H_    0.771166 0.451268 0.293594 0.116971
O11   O     O_R   0.775690 0.057750 0.940570 -0.515327
O12   O     O_R   0.441200 0.093570 0.087490 -0.508681
O13   O     O_R   0.265840 0.942320 0.059480 -0.498477
C45   C     C_R   0.607889 0.118513 0.114111 0.810736
O14   O     O_R   0.446270 0.067110 0.942790 -0.497300
O15   O     O_R   0.270950 0.915660 0.913750 -0.527066
C46   C     C_R   0.615350 0.083309 0.918736 0.770011
O16   O     O_R   0.770580 0.084400 0.086300 -0.532331
O17   O     O_3   0.602640 0.950400 0.990690 -0.347020
V3    V     V_3+5 0.329740 0.009200 0.001730 1.636433
O18   O     O_R   0.940900 0.906360 0.912450 -0.533201
C47   C     C_R   0.112247 0.882783 0.885213 0.759760
O19   O     O_R   0.935830 0.932820 0.057160 -0.521139
C48   C     C_R   0.103546 0.916348 0.080930 0.732620
V4    V     V_3+5 0.829130 0.990680 0.998180 1.585202
O20   O     O_3   0.106100 0.049590 0.009310 -0.339126
Br1   Br    Br    0.201188 0.863441 0.501726 -0.428739
C49   C     C_1   0.808293 0.502078 0.176287 0.325774
N1    N     N_1   0.863465 0.565076 0.175249 -0.319110
C50   C     C_1   0.665742 0.389693 0.044977 0.415023
N2    N     N_1   0.660895 0.407162 0.990013 -0.286352
Br2   Br    Br    0.416058 0.243293 0.044244 -0.556315
Br3   Br    Br    0.565646 0.986712 0.184713 -0.487056
Br4   Br    Br    0.437589 0.975971 0.347292 -0.336484
C51   C     C_1   0.803566 0.248882 0.441153 0.374957
N3    N     N_1   0.922155 0.277418 0.482525 -0.285900
C52   C     C_1   0.109103 0.513680 0.705951 0.250704
N4    N     N_1   0.122746 0.453462 0.659616 -0.302760
C53   C     C_1   0.006459 0.500710 0.846425 0.335579
N5    N     N_1   0.962292 0.438710 0.853917 -0.297600
C54   C     C_1   0.091858 0.631020 0.972426 0.334018
N6    N     N_1   0.085745 0.621707 0.030915 -0.302706
C55   C     C_1   0.298471 0.760819 0.942195 0.253271
N7    N     N_1   0.413560 0.793038 0.983589 -0.305466
Br5   Br    Br    0.110768 0.012134 0.811324 -0.559231
C56   C     C_1   0.163808 0.000100 0.650064 0.506751
N8    N     N_1   0.167914 0.063616 0.640580 -0.243325
Br6   Br    Br    0.580109 0.119081 0.493515 -0.386294

loop_
_geom_bond_atom_site_label_1
_geom_bond_atom_site_label_2
_ccdc_geom_bond_type
C31   C36   A    
C53   N5    T    
O14   C46   A    
C28   C29   S    
C7    C8    A    
C12   C15   A    
C1    O6    A    
C19   C48   S    
C32   C33   A    
C31   C32   A    
C32   C49   S    
C5    C52   S    
O15   V3    S    
C16   C56   S    
C16   C17   A    
C21   C22   T    
O5    C3    A    
C25   C26   T    
V3    O20   S    
V2    O10   S    
C43   C44   A    
O12   C45   A    
C6    C7    A    
V4    O20   S    
C3    C24   S    
C41   C42   A    
O8    V2    S    
C34   C35   A    
C31   H2    S    
C11   C12   A    
C44   C51   S    
O18   V4    S    
O17   V4    S    
O15   C47   A    
O7    V1    S    
O11   V4    S    
C35   C37   A    
O9    C4    A    
C11   C47   S    
O18   C47   A    
C34   Br2   S    
C5    C6    A    
C8    C55   S    
C45   O16   A    
C38   C39   A    
C12   C13   A    
C33   C50   S    
C26   C27   S    
O19   V4    S    
C50   N2    T    
C37   C38   A    
C13   C14   A    
C52   N4    T    
O16   V4    S    
C4    C14   S    
O17   V3    S    
C22   C23   S    
O2    C1    A    
C17   C18   A    
C7    C54   S    
C51   N3    T    
C30   C46   S    
C42   C43   A    
C20   C21   S    
C49   N1    T    
C42   Br4   S    
O3    C4    A    
O1    V2    S    
O13   C48   A    
C35   C36   A    
C1    C25   S    
O6    V2    S    
O9    V2    S    
C37   C45   S    
C15   Br5   S    
C29   C30   T    
C2    C40   S    
O2    V1    S    
C55   N7    T    
C39   C40   A    
O4    C2    A    
C13   C18   A    
C43   Br6   S    
C33   C34   A    
C27   C28   T    
O1    C2    A    
C5    C10   A    
O5    V1    S    
O8    C3    A    
C17   Br1   S    
O14   V3    S    
C6    C53   S    
C38   C41   A    
C19   C20   T    
C9    C11   A    
O7    V2    S    
O19   C48   A    
O3    V1    S    
V1    O10   S    
O11   C46   A    
O13   V3    S    
C18   H1    S    
C36   C40   A    
C56   N8    T    
C39   C44   A    
O4    V1    S    
C8    C9    A    
O12   V3    S    
C23   C24   T    
C10   C14   A    
C15   C16   A    
C54   N6    T    
C9    C10   A    
C41   Br3   S    
