data_mof_unit_31845.cif
_audit_creation_date              2012-12-11T15:21:36-0500
_audit_creation_method            fapswitch 2.2
_symmetry_space_group_name_H-M    P1
_symmetry_Int_Tables_number       1
_space_group_crystal_system       triclinic
_cell_length_a                    19.102777
_cell_length_b                    7.237448
_cell_length_c                    17.734018
_cell_angle_alpha                 90.075309
_cell_angle_beta                  108.760756
_cell_angle_gamma                 89.811394
_cell_volume                      2321.54437657

loop_
_atom_site_label
_atom_site_type_symbol
_atom_type_description
_atom_site_fract_x
_atom_site_fract_y
_atom_site_fract_z
_atom_type_partial_charge
O1    O     O_R   0.562310 0.505770 0.439670 -0.527488
O2    O     O_R   0.437690 0.005770 0.560330 -0.521956
O3    O     O_R   0.411650 0.169150 0.405330 -0.441450
O4    O     O_R   0.588350 0.669150 0.594670 -0.449109
C1    C     C_R   0.384279 0.345406 0.383433 0.762775
C2    C     C_R   0.614985 0.845389 0.617363 0.753324
O5    O     O_R   0.560140 0.175610 0.430010 -0.536726
O6    O     O_R   0.439860 0.675610 0.569990 -0.543466
O7    O     O_R   0.587240 0.012100 0.585200 -0.568600
O8    O     O_R   0.412760 0.512100 0.414800 -0.560645
C3    C     C_R   0.580789 0.344206 0.415059 0.702384
C4    C     C_R   0.419166 0.844591 0.584891 0.756622
O9    O     O_3   0.508720 0.341420 0.550890 -0.378807
O10   O     O_3   0.491280 0.841420 0.449110 -0.370263
V1    V     V_3+5 0.498380 0.063930 0.490560 1.620013
V2    V     V_3+5 0.501620 0.563930 0.509440 1.608877
C5    C     C_R   0.180541 0.057968 0.867519 -0.074854
C6    C     C_R   0.820491 0.560551 0.134510 -0.073759
C7    C     C_R   0.129745 0.916196 0.864776 -0.089913
C8    C     C_R   0.871049 0.417748 0.136310 -0.090652
C9    C     C_R   0.126568 0.763038 0.815041 -0.098244
C10   C     C_R   0.874756 0.264625 0.186127 -0.095312
C11   C     C_R   0.173223 0.749805 0.767807 0.073879
C12   C     C_R   0.828513 0.251641 0.233822 0.074759
C13   C     C_R   0.224949 0.892550 0.771864 -0.000780
C14   C     C_R   0.776574 0.394469 0.230104 -0.000736
C15   C     C_R   0.228798 0.047671 0.821986 0.067962
C16   C     C_R   0.772617 0.550427 0.180515 0.066637
C17   C     C_R   0.170005 0.597034 0.716911 0.289230
C18   C     C_R   0.832158 0.098715 0.284658 0.284306
C19   C     C_R   0.219024 0.584648 0.672965 -0.177058
C20   C     C_R   0.782920 0.085535 0.328325 -0.168200
C21   C     C_R   0.270692 0.724318 0.677039 0.061023
C22   C     C_R   0.730667 0.224691 0.324139 0.069719
C23   C     C_R   0.273154 0.879899 0.725852 0.070514
C24   C     C_R   0.728183 0.381014 0.275868 0.073794
C25   C     C_R   0.323939 0.022835 0.728657 0.054079
C26   C     C_R   0.677109 0.523880 0.273282 0.058432
C27   C     C_R   0.327195 0.175631 0.778089 -0.194588
C28   C     C_R   0.674108 0.677997 0.224913 -0.192703
C29   C     C_R   0.281019 0.188118 0.825158 0.293218
C30   C     C_R   0.720542 0.691600 0.178299 0.293051
C31   C     C_R   0.319489 0.711639 0.632404 -0.134738
C32   C     C_R   0.681327 0.210984 0.368139 -0.165322
C33   C     C_R   0.369649 0.854896 0.634307 -0.033256
C34   C     C_R   0.630703 0.354126 0.366139 -0.052064
C35   C     C_R   0.371142 0.010508 0.682344 -0.149905
C36   C     C_R   0.629417 0.510562 0.318870 -0.099881
H1    H     H_    0.182701 0.174705 0.906352 0.176959
H2    H     H_    0.818019 0.677677 0.095889 0.183620
H3    H     H_    0.087010 0.655198 0.813268 0.173900
H4    H     H_    0.914276 0.156320 0.187440 0.172777
H5    H     H_    0.216374 0.465432 0.635089 0.159174
H6    H     H_    0.785761 0.965943 0.365940 0.183108
H7    H     H_    0.317284 0.592078 0.594791 0.120779
H8    H     H_    0.683494 0.090936 0.405354 0.146798
H9    H     H_    0.409843 0.121270 0.684514 0.122847
H10   H     H_    0.590490 0.621429 0.316743 0.120754
H11   H     H_    0.366384 0.285467 0.780821 0.169549
H12   H     H_    0.634923 0.788214 0.222706 0.169077
C37   C     C_3   0.752881 0.821339 0.841088 0.002380
C38   C     C_3   0.250483 0.353145 0.158229 0.008772
H13   H     H_    0.775362 0.687673 0.869755 0.190556
H14   H     H_    0.233388 0.225228 0.122184 0.186218
C39   C     C_3   0.679673 0.789550 0.770133 0.318874
C40   C     C_3   0.322981 0.317799 0.229631 0.300309
H15   H     H_    0.634361 0.869157 0.781931 0.112973
H16   H     H_    0.365858 0.415541 0.224016 0.115141
H17   H     H_    0.830508 0.634256 0.767592 0.229853
H18   H     H_    0.179646 0.115059 0.219847 0.215419
C41   C     C_3   0.824882 0.779825 0.746602 -0.376917
C42   C     C_3   0.178332 0.253484 0.246665 -0.356528
C43   C     C_3   0.782272 0.100835 0.773614 0.178780
C44   C     C_3   0.208266 0.594152 0.236349 0.160509
C45   C     C_3   0.813407 0.912110 0.812019 -0.208821
C46   C     C_3   0.185856 0.411262 0.188574 -0.201793
H19   H     H_    0.776076 0.195455 0.820395 0.210969
H20   H     H_    0.211820 0.707411 0.195807 0.209386
C47   C     C_3   0.687036 0.863980 0.688707 -0.268760
C48   C     C_3   0.311505 0.363610 0.312636 -0.270202
C49   C     C_3   0.758248 0.797169 0.669050 0.379575
C50   C     C_3   0.242350 0.268702 0.326468 0.339312
C51   C     C_3   0.704804 0.072880 0.709161 -0.427911
C52   C     C_3   0.285248 0.570330 0.302360 -0.411518
H21   H     H_    0.660757 0.133573 0.730096 0.215513
H22   H     H_    0.327370 0.655582 0.288038 0.240157
H23   H     H_    0.703642 0.148918 0.654914 0.246243
H24   H     H_    0.281217 0.619822 0.360012 0.246654
H25   H     H_    0.876842 0.815066 0.734321 0.191721
H26   H     H_    0.124402 0.264567 0.257870 0.190356
H27   H     H_    0.774490 0.914026 0.637479 0.132788
H28   H     H_    0.220316 0.364425 0.362639 0.112643
O11   O     O_R   0.087220 0.271820 0.085230 -0.553623
O12   O     O_R   0.912780 0.771820 0.914770 -0.551016
O13   O     O_R   0.939860 0.595540 0.069990 -0.532888
O14   O     O_R   0.060140 0.095540 0.930010 -0.535154
C53   C     C_R   0.919462 0.426944 0.085385 0.711135
C54   C     C_R   0.080701 0.926490 0.914878 0.708357
O15   O     O_R   0.088340 0.601930 0.094680 -0.518234
O16   O     O_R   0.911660 0.101930 0.905320 -0.517366
O17   O     O_R   0.062310 0.765410 0.939660 -0.534646
O18   O     O_R   0.937690 0.265410 0.060340 -0.535765
C55   C     C_R   0.114732 0.431456 0.118143 0.764978
C56   C     C_R   0.885063 0.931857 0.881964 0.768621
O19   O     O_3   0.991270 0.429630 0.949130 -0.371894
O20   O     O_3   0.008730 0.929630 0.050870 -0.373777
V3    V     V_3+5 0.001620 0.707150 0.009440 1.559639
V4    V     V_3+5 0.998380 0.207150 0.990560 1.554964
Br1   Br    Br    0.732830 0.965191 0.925234 -0.435080
Br2   Br    Br    0.267976 0.533257 0.083954 -0.414489
S1    S     S_3+6 0.650905 0.556292 0.771200 0.007611
O21   O     O_2   0.699376 0.445863 0.737424 -0.340604
O22   O     O_2   0.662278 0.495005 0.855319 -0.297204
O23   O     O_3   0.561319 0.527618 0.718055 -0.495259
H29   H     H_    0.552703 0.392951 0.719426 0.349749
S2    S     S_3+6 0.360376 0.096046 0.216694 0.038527
O24   O     O_2   0.307769 0.948602 0.222428 -0.345242
O25   O     O_2   0.367377 0.089749 0.134673 -0.272091
O26   O     O_3   0.444629 0.057822 0.282541 -0.493715
H30   H     H_    0.456576 0.928162 0.273346 0.356196
S3    S     S_3+6 0.752825 0.626280 0.593015 0.060029
O27   O     O_2   0.722428 0.719288 0.513271 -0.368977
O28   O     O_2   0.829639 0.558916 0.602199 -0.269040
O29   O     O_3   0.699062 0.444697 0.593338 -0.455180
H31   H     H_    0.707519 0.358368 0.553728 0.338269
S4    S     S_3+6 0.255865 0.075933 0.392188 0.036493
O30   O     O_2   0.182615 0.993629 0.387560 -0.279205
O31   O     O_2   0.303987 0.933485 0.372654 -0.299448
O32   O     O_3   0.296815 0.150723 0.485835 -0.522464
H32   H     H_    0.258433 0.223113 0.499439 0.325533
Br3   Br    Br    0.851068 0.224119 0.728728 -0.426875
Br4   Br    Br    0.131132 0.670460 0.280551 -0.414570
Br5   Br    Br    0.099783 0.400209 0.704262 -0.465262
Br6   Br    Br    0.902991 0.902218 0.297215 -0.452127
Br7   Br    Br    0.293516 0.399911 0.893462 -0.430244
Br8   Br    Br    0.708519 0.906882 0.112482 -0.434776

loop_
_geom_bond_atom_site_label_1
_geom_bond_atom_site_label_2
_ccdc_geom_bond_type
O17   V3    S    
O15   C55   A    
C43   Br3   S    
S4    O30   D    
C28   H12   S    
C44   Br4   S    
C40   H16   S    
S1    O21   D    
O1    C3    A    
C29   Br7   S    
C42   C46   S    
C37   Br1   S    
O11   C55   A    
C2    O7    A    
O23   H29   S    
C40   C48   S    
C27   C29   A    
C37   C45   S    
O5    C3    A    
C44   C46   S    
C39   C47   S    
C11   C17   A    
C7    C9    A    
C12   C14   A    
O11   V4    S    
O20   V3    S    
C49   H27   S    
O16   C56   A    
C50   H28   S    
S2    O24   D    
C6    C8    A    
C30   Br8   S    
C37   H13   S    
C15   C29   A    
C50   S4    S    
S3    O29   S    
C38   H14   S    
C5    C7    A    
C39   S1    S    
C8    C53   S    
O14   C54   A    
C39   H15   S    
C41   H25   S    
C19   C21   A    
O18   V4    S    
C25   C35   A    
C26   C36   A    
C53   O18   A    
C48   C52   S    
C46   C55   S    
C28   C30   A    
O14   V4    S    
O2    C4    A    
O6    V2    S    
C43   C45   S    
C38   C46   S    
C20   H6    S    
C7    C54   S    
C32   C34   A    
C33   C35   A    
O19   V4    S    
C34   C36   A    
O12   V3    S    
C41   C45   S    
O16   V4    S    
C38   C40   S    
C5    C15   A    
C6    C16   A    
C48   C50   S    
C5    H1    S    
C47   C49   S    
O5    V1    S    
S4    O32   S    
C18   Br6   S    
C49   S3    S    
C21   C31   A    
O4    V2    S    
C18   C20   A    
C35   H9    S    
C42   H26   S    
C32   H8    S    
C38   Br2   S    
O6    C4    A    
C27   H11   S    
C17   Br5   S    
C22   C32   A    
S1    O22   D    
O1    V2    S    
C19   H5    S    
C1    C48   S    
O2    V1    S    
C31   C33   A    
S3    O27   D    
O13   V3    S    
C13   C23   A    
C14   C24   A    
C51   H21   S    
C8    C10   A    
C9    C11   A    
C45   C56   S    
C10   C12   A    
O4    C2    A    
C9    H3    S    
O3    V1    S    
C6    H2    S    
C10   H4    S    
O32   H32   S    
C31   H7    S    
S4    O31   D    
C23   C25   A    
C52   H24   S    
C44   C52   S    
C4    C33   S    
O3    C1    A    
C51   H23   S    
O26   H30   S    
O13   C53   A    
C36   H10   S    
C13   C15   A    
C54   O17   A    
O15   V3    S    
C14   C16   A    
H17   C41   S    
S2    O26   S    
C24   C26   A    
C40   S2    S    
C1    O8    A    
C17   C19   A    
O8    V2    S    
C26   C28   A    
C2    C47   S    
C16   C30   A    
C21   C23   A    
S2    O25   D    
S1    O23   S    
C22   C24   A    
C11   C13   A    
O7    V1    S    
C12   C18   A    
S3    O28   D    
O12   C56   A    
C47   C51   S    
C37   C39   S    
C25   C27   A    
C44   H20   S    
O9    V2    S    
C43   H19   S    
O10   V1    S    
C52   H22   S    
C3    C34   S    
H18   C42   S    
C43   C51   S    
C42   C50   S    
C20   C22   A    
O29   H31   S    
C41   C49   S    
