data_mof_unit_50987.cif
_audit_creation_date              2012-12-10T20:28:39-0500
_audit_creation_method            fapswitch 2.2
_symmetry_space_group_name_H-M    P1
_symmetry_Int_Tables_number       1
_space_group_crystal_system       triclinic
_cell_length_a                    10.707396
_cell_length_b                    10.719362
_cell_length_c                    9.895502
_cell_angle_alpha                 88.495121
_cell_angle_beta                  89.283687
_cell_angle_gamma                 92.193033
_cell_volume                      1134.44359882

loop_
_atom_site_label
_atom_site_type_symbol
_atom_type_description
_atom_site_fract_x
_atom_site_fract_y
_atom_site_fract_z
_atom_type_partial_charge
C1    C     C_R   0.504938 0.259804 0.501055 0.889400
C2    C     C_R   0.059738 0.514193 0.629682 0.093632
C3    C     C_R   0.126985 0.521306 0.505330 -0.157950
C4    C     C_R   0.064776 0.515075 0.382395 -0.099135
C5    C     C_R   0.937928 0.494801 0.381423 -0.139877
C6    C     C_R   0.872303 0.475188 0.503153 -0.160486
C7    C     C_R   0.548187 0.060267 0.618478 0.128604
C8    C     C_R   0.527176 0.128742 0.499772 -0.126913
C9    C     C_R   0.534032 0.068634 0.375160 -0.220273
C10   C     C_R   0.532928 0.939644 0.372911 -0.158154
C11   C     C_R   0.527165 0.871606 0.495498 -0.115322
C12   C     C_R   0.260546 0.510934 0.501222 0.918493
C13   C     C_R   0.547563 0.932711 0.615854 0.144931
C14   C     C_3   0.482005 0.915695 0.749064 -0.432549
C15   C     C_3   0.483046 0.056405 0.752938 -0.489790
C16   C     C_R   0.405245 0.439366 0.074831 0.077629
C17   C     C_R   0.585117 0.573419 0.064930 0.435645
C18   C     C_R   0.584828 0.569622 0.922149 -0.189847
C19   C     C_R   0.404416 0.441847 0.931900 0.101255
C20   C     C_3   0.370298 0.307405 0.926448 -0.522121
C21   C     C_3   0.375700 0.301555 0.079334 0.280940
C22   C     C_R   0.504392 0.739990 0.498424 0.900669
C23   C     C_R   0.739112 0.487704 0.500451 0.900473
C24   C     C_R   0.110596 0.549411 0.755308 -0.186947
C25   C     C_R   0.048531 0.516149 0.876213 -0.044553
C26   C     C_R   0.936739 0.445912 0.873907 -0.041018
C27   C     C_R   0.880015 0.422476 0.750696 -0.181362
C28   C     C_R   0.935856 0.468821 0.627799 0.112124
H1    H     H_    0.114129 0.525731 0.286399 0.207233
H2    H     H_    0.541965 0.872557 0.826857 0.243603
H3    H     H_    0.387659 0.093739 0.748356 0.220148
H4    H     H_    0.545384 0.091990 0.833378 0.210622
H5    H     H_    0.654115 0.623212 0.861998 0.209909
H6    H     H_    0.276293 0.290494 0.882461 0.244146
H7    H     H_    0.446930 0.259111 0.878598 0.178967
H8    H     H_    0.454286 0.246740 0.117227 0.064193
H9    H     H_    0.196088 0.605741 0.761805 0.165502
H10   H     H_    0.088672 0.542878 0.971481 0.178177
H11   H     H_    0.891785 0.413201 0.967525 0.177015
H12   H     H_    0.793212 0.367379 0.752840 0.161880
H13   H     H_    0.891301 0.495667 0.285135 0.222813
H14   H     H_    0.530571 0.119436 0.279773 0.175737
H15   H     H_    0.526906 0.894304 0.276540 0.219015
H16   H     H_    0.386428 0.872248 0.741155 0.204403
N1    N     N_R   0.499160 0.499140 0.142800 -0.201544
N2    N     N_R   0.499160 0.499180 0.857150 -0.140412
O1    O     O_R   0.500020 0.316790 0.614690 -0.621767
O2    O     O_R   0.500000 0.316760 0.385350 -0.618509
O3    O     O_R   0.316770 0.500020 0.614690 -0.628339
O4    O     O_R   0.316760 0.499980 0.385350 -0.574332
O5    O     O_R   0.500000 0.683240 0.614650 -0.633971
O6    O     O_R   0.499980 0.683210 0.385310 -0.566828
O7    O     O_R   0.683240 0.500020 0.614650 -0.635860
O8    O     O_R   0.683230 0.499980 0.385310 -0.557184
Zn1   Zn    Zn3+2 0.500010 0.500020 0.653130 0.947362
Zn2   Zn    Zn3+2 0.499990 0.499980 0.346870 1.038568
S1    S     S_3+6 0.704137 0.680319 0.122656 0.006454
O9    O     O_2   0.827681 0.631062 0.080389 -0.365532
O10   O     O_2   0.688375 0.801786 0.046450 -0.339491
O11   O     O_3   0.712775 0.714070 0.286296 -0.529334
H17   H     H_    0.787338 0.771035 0.293271 0.375188
S2    S     S_3+6 0.228105 0.255227 0.156244 0.030593
O12   O     O_2   0.130239 0.345373 0.117033 -0.323884
O13   O     O_2   0.188777 0.127914 0.108250 -0.290434
O14   O     O_3   0.239533 0.249418 0.325476 -0.524216
H18   H     H_    0.272006 0.166138 0.347475 0.352612

loop_
_geom_bond_atom_site_label_1
_geom_bond_atom_site_label_2
_ccdc_geom_bond_type
C16   N1    A    
N2    Zn1   S    
C4    H1    S    
S2    O13   D    
C1    O2    A    
C15   H3    S    
S2    O12   D    
C8    C9    A    
C25   H10   S    
C24   H9    S    
C1    C8    S    
O4    Zn2   S    
C9    C10   A    
C10   H15   S    
C11   C22   S    
C12   O4    A    
C19   C20   S    
C27   H12   S    
C20   H6    S    
C7    C15   S    
C12   O3    A    
C9    H14   S    
C19   N2    A    
C7    C8    A    
C21   H8    S    
C13   C14   S    
C24   C25   A    
C2    C24   A    
C4    C5    A    
C11   C13   A    
S1    O9    D    
C16   C21   S    
C14   H2    S    
C16   C19   A    
C6    C23   S    
C18   N2    A    
C23   O7    A    
C22   O6    A    
C17   N1    A    
C2    C3    A    
C14   H16   S    
O5    Zn1   S    
O7    Zn1   S    
C26   C27   A    
C5    C6    A    
C18   H5    S    
O8    Zn2   S    
C26   H11   S    
S1    O10   D    
C10   C11   A    
C3    C4    A    
C7    C13   A    
C20   C21   S    
C23   O8    A    
C17   C18   A    
O14   H18   S    
C27   C28   A    
O2    Zn2   S    
O1    Zn1   S    
C5    H13   S    
C14   C15   S    
C1    O1    A    
S1    O11   S    
C2    C28   A    
C3    C12   S    
S2    O14   S    
C21   S2    S    
C25   C26   A    
O3    Zn1   S    
C20   H7    S    
O11   H17   S    
C6    C28   A    
O6    Zn2   S    
N1    Zn2   S    
C17   S1    S    
C22   O5    A    
C15   H4    S    
