data_mof_unit_16572.cif
_audit_creation_date              2012-12-11T15:39:27-0500
_audit_creation_method            fapswitch 2.2
_symmetry_space_group_name_H-M    P1
_symmetry_Int_Tables_number       1
_space_group_crystal_system       triclinic
_cell_length_a                    17.347721
_cell_length_b                    24.280047
_cell_length_c                    14.931761
_cell_angle_alpha                 89.996978
_cell_angle_beta                  125.279773
_cell_angle_gamma                 90.045208
_cell_volume                      5134.22254739

loop_
_atom_site_label
_atom_site_type_symbol
_atom_type_description
_atom_site_fract_x
_atom_site_fract_y
_atom_site_fract_z
_atom_type_partial_charge
C1    C     C_R   0.350885 0.348221 0.909120 -0.136723
C2    C     C_R   0.550977 0.500026 0.725842 0.041367
C3    C     C_R   0.187939 0.863001 0.999867 0.041048
C4    C     C_3   0.885877 0.658880 0.573613 -0.908577
C5    C     C_3   0.084803 0.540852 0.455779 -0.860126
C6    C     C_3   0.406607 0.162235 0.583634 -0.905987
C7    C     C_3   0.555811 0.040944 0.407397 -0.868161
C8    C     C_R   0.979591 0.999989 0.306772 0.042344
C9    C     C_R   0.926914 0.999961 0.630280 0.053994
C10   C     C_R   0.174937 0.500902 0.720650 0.068220
C11   C     C_R   0.802608 0.501474 0.365635 0.058586
C12   C     C_R   0.674745 0.000988 0.682765 0.068495
C13   C     C_R   0.297174 0.002226 0.368111 0.072217
C14   C     C_R   0.025532 0.552743 0.607579 0.055654
C15   C     C_R   0.930299 0.553913 0.525722 0.087689
C16   C     C_R   0.526762 0.053110 0.584769 0.054821
C17   C     C_R   0.647410 0.348062 0.091734 -0.123196
C18   C     C_R   0.430074 0.055511 0.518070 0.087403
C19   C     C_R   0.072647 0.503443 0.657629 0.059582
C20   C     C_R   0.882158 0.504126 0.480604 0.024762
C21   C     C_R   0.573836 0.003069 0.624985 0.066731
C22   C     C_R   0.379104 0.005962 0.480161 0.026406
C23   C     C_R   0.017940 0.455580 0.632394 -0.193700
C24   C     C_R   0.922785 0.455703 0.542778 -0.178250
C25   C     C_R   0.521252 0.956033 0.612697 -0.193845
C26   C     C_R   0.423104 0.957430 0.539533 -0.183960
C27   C     C_3   0.940046 0.605142 0.475195 -0.070301
C28   C     C_R   0.815798 0.868646 0.908683 -0.123250
C29   C     C_3   0.045776 0.602081 0.562701 -0.075221
C30   C     C_3   0.432880 0.106616 0.461138 -0.072024
C31   C     C_3   0.539762 0.102343 0.533618 -0.074422
C32   C     C_R   0.289386 0.767478 0.901100 -0.169682
C33   C     C_R   0.708621 0.767020 0.100684 -0.169377
C34   C     C_R   0.663751 0.191713 0.901420 -0.168661
C35   C     C_R   0.341377 0.186046 0.099789 -0.163060
C36   C     C_R   0.608937 0.232816 0.901468 -0.168024
C37   C     C_R   0.387989 0.232402 0.099973 -0.168132
C38   C     C_R   0.242229 0.813475 0.900894 -0.166047
C39   C     C_R   0.189867 0.876000 0.091828 -0.126199
C40   C     C_R   0.762292 0.808922 0.100452 -0.166080
C41   C     C_R   0.638722 0.258206 0.000825 0.140310
C42   C     C_R   0.355643 0.258893 0.000682 0.139898
C43   C     C_R   0.261000 0.832888 0.000048 0.142348
C44   C     C_R   0.745991 0.825214 0.000844 0.147581
C45   C     C_R   0.441565 0.651432 0.091801 -0.122338
C46   C     C_R   0.555447 0.652485 0.909415 -0.139753
C47   C     C_R   0.908643 0.132917 0.091543 -0.125960
C48   C     C_R   0.098458 0.123829 0.908148 -0.127040
C49   C     C_R   0.708287 0.233158 0.100236 -0.168880
C50   C     C_R   0.380748 0.683616 0.000702 0.047058
C51   C     C_R   0.289523 0.232287 0.901319 -0.169291
C52   C     C_R   0.341066 0.813774 0.099448 -0.165566
C53   C     C_R   0.662483 0.809295 0.901705 -0.169049
C54   C     C_R   0.388229 0.767718 0.099750 -0.170453
C55   C     C_R   0.608752 0.767447 0.901933 -0.170530
C56   C     C_R   0.763099 0.192031 0.100196 -0.167855
C57   C     C_R   0.242882 0.185994 0.901226 -0.166720
C58   C     C_R   0.356093 0.741191 0.000573 0.141152
C59   C     C_R   0.639277 0.741790 0.001287 0.141353
C60   C     C_R   0.747410 0.176166 0.000717 0.148030
C61   C     C_R   0.615550 0.684375 0.000959 0.049363
C62   C     C_R   0.261564 0.166667 0.000384 0.140185
C63   C     C_R   0.604459 0.549888 0.626314 -0.166491
C64   C     C_R   0.604299 0.549911 0.533521 -0.172049
C65   C     C_R   0.892556 0.049831 0.468023 -0.171903
C66   C     C_R   0.912873 0.049874 0.391367 -0.169431
C67   C     C_R   0.594320 0.500040 0.480412 0.142528
C68   C     C_R   0.593486 0.500044 0.665178 0.142539
C69   C     C_R   0.933812 0.999968 0.362789 0.149873
C70   C     C_R   0.895049 0.999943 0.516638 0.140139
C71   C     C_R   0.604057 0.450175 0.533390 -0.169861
C72   C     C_R   0.821039 0.147988 0.000431 0.043000
C73   C     C_R   0.604281 0.450204 0.626208 -0.167255
C74   C     C_R   0.912911 0.950037 0.391397 -0.168825
C75   C     C_R   0.892622 0.950051 0.468070 -0.172407
C76   C     C_R   0.546043 0.454119 0.302154 -0.123966
C77   C     C_R   0.519981 0.453893 0.751825 -0.124972
C78   C     C_R   0.003217 0.954174 0.272892 -0.129438
C79   C     C_R   0.946681 0.954268 0.694936 -0.139423
C80   C     C_R   0.233023 0.546393 0.752992 -0.123036
C81   C     C_R   0.753197 0.546469 0.302136 -0.150926
C82   C     C_R   0.732572 0.046338 0.722981 -0.124679
C83   C     C_R   0.188342 0.136630 0.000117 0.042577
C84   C     C_R   0.248729 0.046617 0.304024 -0.169075
C85   C     C_R   0.546049 0.545891 0.302122 -0.123092
C86   C     C_R   0.519969 0.546119 0.751815 -0.125755
C87   C     C_R   0.003016 0.045816 0.272647 -0.127363
C88   C     C_R   0.946652 0.045669 0.694942 -0.140128
C89   C     C_R   0.230728 0.454230 0.747004 -0.141014
C90   C     C_R   0.756153 0.454875 0.303260 -0.116373
C91   C     C_R   0.730872 0.954578 0.721319 -0.143972
C92   C     C_R   0.253636 0.955414 0.305556 -0.132479
C93   C     C_R   0.351928 0.652040 0.909281 -0.142768
C94   C     C_R   0.561142 0.500021 0.365495 0.041384
C95   C     C_R   0.647890 0.651861 0.091991 -0.123298
C96   C     C_R   0.817179 0.132719 0.908870 -0.126460
C97   C     C_R   0.190118 0.123795 0.092024 -0.124427
C98   C     C_R   0.441232 0.348631 0.091799 -0.122641
C99   C     C_R   0.555028 0.347446 0.909185 -0.139997
C100  C     C_R   0.907886 0.867662 0.091437 -0.124864
C101  C     C_R   0.098174 0.875936 0.907947 -0.124815
C102  C     C_R   0.379876 0.316574 0.000611 0.043784
C103  C     C_R   0.614825 0.315524 0.000633 0.048290
C104  C     C_R   0.819617 0.853388 0.000312 0.041251
H1    H     H_    0.313389 0.334334 0.825173 0.083806
H2    H     H_    0.729171 0.750853 0.179013 0.104084
H3    H     H_    0.644812 0.176375 0.823202 0.103051
H4    H     H_    0.362132 0.169574 0.178011 0.111221
H5    H     H_    0.550676 0.248420 0.823167 0.110371
H6    H     H_    0.442917 0.249825 0.178317 0.107355
H7    H     H_    0.184963 0.829678 0.822576 0.108921
H8    H     H_    0.821321 0.824278 0.178579 0.104830
H9    H     H_    0.728181 0.249042 0.178500 0.104550
H10   H     H_    0.266770 0.249579 0.822998 0.105714
H11   H     H_    0.361773 0.830275 0.177621 0.107742
H12   H     H_    0.686233 0.335135 0.176378 0.081497
H13   H     H_    0.643003 0.824870 0.823407 0.103146
H14   H     H_    0.443473 0.750499 0.178102 0.105487
H15   H     H_    0.550669 0.751632 0.823698 0.104761
H16   H     H_    0.822277 0.176887 0.178374 0.104103
H17   H     H_    0.185931 0.169512 0.822950 0.107818
H18   H     H_    0.603086 0.589163 0.659406 0.108040
H19   H     H_    0.603085 0.589230 0.498862 0.106011
H20   H     H_    0.886891 0.089102 0.497840 0.104708
H21   H     H_    0.919615 0.089145 0.362403 0.103639
H22   H     H_    0.602599 0.410847 0.498617 0.105948
H23   H     H_    0.762221 0.857875 0.825151 0.083631
H24   H     H_    0.602772 0.410925 0.659199 0.108881
H25   H     H_    0.919671 0.910776 0.362444 0.104481
H26   H     H_    0.887021 0.910767 0.497922 0.106810
H27   H     H_    0.486584 0.664639 0.176320 0.081964
H28   H     H_    0.508393 0.666372 0.825620 0.083212
H29   H     H_    0.939789 0.145413 0.174643 0.083302
H30   H     H_    0.071478 0.128674 0.822968 0.093956
H31   H     H_    0.562529 0.411770 0.328789 0.082444
H32   H     H_    0.530266 0.411125 0.741929 0.094437
H33   H     H_    0.008547 0.912521 0.300065 0.082292
H34   H     H_    0.247572 0.871192 0.177000 0.093483
H35   H     H_    0.928549 0.911982 0.668274 0.085145
H36   H     H_    0.214134 0.588964 0.749001 0.092381
H37   H     H_    0.758139 0.588149 0.329634 0.098359
H38   H     H_    0.713277 0.088413 0.700271 0.077679
H39   H     H_    0.250948 0.088099 0.331193 0.099486
H40   H     H_    0.562587 0.588258 0.328753 0.083274
H41   H     H_    0.530228 0.588896 0.741865 0.093662
H42   H     H_    0.008064 0.087504 0.299502 0.081971
H43   H     H_    0.928470 0.087933 0.668264 0.082743
H44   H     H_    0.208512 0.411684 0.733137 0.097389
H45   H     H_    0.919930 0.599681 0.390252 0.122244
H46   H     H_    0.767931 0.412737 0.331593 0.082642
H47   H     H_    0.708366 0.912928 0.693790 0.085660
H48   H     H_    0.265804 0.913372 0.334470 0.085370
H49   H     H_    0.315286 0.666113 0.825550 0.080218
H50   H     H_    0.686780 0.664795 0.176666 0.076698
H51   H     H_    0.765080 0.145019 0.825908 0.081320
H52   H     H_    0.247858 0.128555 0.177242 0.086151
H53   H     H_    0.486402 0.335367 0.176234 0.082098
H54   H     H_    0.507950 0.333579 0.825338 0.084805
H55   H     H_    0.938871 0.855044 0.174413 0.083957
H56   H     H_    0.074252 0.637930 0.619617 0.109031
H57   H     H_    0.071105 0.871046 0.822743 0.094593
H58   H     H_    0.050286 0.416901 0.672817 0.123786
H59   H     H_    0.885352 0.416879 0.515912 0.118998
H60   H     H_    0.555290 0.917270 0.650837 0.120061
H61   H     H_    0.384398 0.919154 0.519286 0.121122
H62   H     H_    0.841357 0.669886 0.411678 0.155453
H63   H     H_    0.864391 0.701487 0.576798 0.239944
H64   H     H_    0.953045 0.649692 0.653949 0.253517
H65   H     H_    0.829856 0.630049 0.558853 0.245850
H66   H     H_    0.167450 0.605368 0.562256 0.164509
H67   H     H_    0.402549 0.101775 0.372610 0.114692
H68   H     H_    0.106218 0.548044 0.399621 0.238920
H69   H     H_    0.009970 0.527454 0.405688 0.246652
H70   H     H_    0.129425 0.507350 0.512977 0.247815
H71   H     H_    0.335285 0.170712 0.414450 0.160498
H72   H     H_    0.389951 0.205258 0.592002 0.238356
H73   H     H_    0.479327 0.152867 0.655415 0.247683
H74   H     H_    0.355712 0.134231 0.583178 0.248586
H75   H     H_    0.648852 0.102978 0.510571 0.163782
H76   H     H_    0.567660 0.047749 0.342718 0.243283
H77   H     H_    0.480942 0.028948 0.366703 0.248426
H78   H     H_    0.575058 0.137704 0.590891 0.104423
H79   H     H_    0.602116 0.006652 0.460201 0.244666
H80   H     H_    0.266546 0.750116 0.822787 0.105396
N1    N     N_R   0.394180 0.396910 0.943210 -0.036331
N2    N     N_R   0.474350 0.471570 0.793850 -0.041560
N3    N     N_R   0.025650 0.971570 0.206150 -0.036383
N4    N     N_R   0.974350 0.971570 0.793850 -0.037832
N5    N     N_R   0.319480 0.528420 0.793810 -0.043983
N6    N     N_R   0.680520 0.528420 0.206190 -0.038156
N7    N     N_R   0.819480 0.028420 0.793810 -0.038511
N8    N     N_R   0.180520 0.028420 0.206190 -0.037062
N9    N     N_R   0.525640 0.528390 0.206120 -0.038581
N10   N     N_R   0.474360 0.528390 0.793880 -0.041825
N11   N     N_R   0.025640 0.028390 0.206120 -0.036046
N12   N     N_R   0.605820 0.396910 0.056790 -0.038420
N13   N     N_R   0.974360 0.028390 0.793880 -0.037808
N14   N     N_R   0.319490 0.471590 0.793840 -0.040978
N15   N     N_R   0.680510 0.471590 0.206160 -0.039742
N16   N     N_R   0.819490 0.971590 0.793840 -0.035904
N17   N     N_R   0.180510 0.971590 0.206160 -0.038781
N18   N     N_R   0.394130 0.603080 0.943110 -0.037146
N19   N     N_R   0.605870 0.603080 0.056890 -0.037557
N20   N     N_R   0.894130 0.103080 0.943110 -0.040040
N21   N     N_R   0.105870 0.103080 0.056890 -0.041622
N22   N     N_R   0.450990 0.396900 0.056840 -0.037888
N23   N     N_R   0.894180 0.896910 0.943210 -0.039836
N24   N     N_R   0.549010 0.396900 0.943160 -0.037521
N25   N     N_R   0.950990 0.896900 0.056840 -0.039993
N26   N     N_R   0.049010 0.896900 0.943160 -0.042160
N27   N     N_2   0.897876 0.654713 0.485424 -0.104399
N28   N     N_2   0.098816 0.591220 0.516031 -0.102988
N29   N     N_2   0.398798 0.156700 0.481901 -0.104038
N30   N     N_2   0.579463 0.091014 0.471626 -0.103902
N31   N     N_R   0.105820 0.896910 0.056790 -0.042233
N32   N     N_R   0.450950 0.603070 0.056740 -0.037342
N33   N     N_R   0.549050 0.603070 0.943260 -0.037215
N34   N     N_R   0.950950 0.103070 0.056740 -0.039503
N35   N     N_R   0.049050 0.103070 0.943260 -0.042216
N36   N     N_R   0.525650 0.471570 0.206150 -0.038903
Ni1   Ni    Ni4+2 0.434860 0.434850 0.869700 0.208911
Ni2   Ni    Ni4+2 0.565140 0.434850 0.130300 0.205617
Ni3   Ni    Ni4+2 0.934860 0.934850 0.869700 0.212979
Ni4   Ni    Ni4+2 0.065140 0.934850 0.130300 0.213692
Ni5   Ni    Ni4+2 0.565130 0.565140 0.130240 0.205540
Ni6   Ni    Ni4+2 0.434870 0.565140 0.869760 0.205012
Ni7   Ni    Ni4+2 0.065130 0.065140 0.130240 0.211932
Ni8   Ni    Ni4+2 0.934870 0.065140 0.869760 0.209386

loop_
_geom_bond_atom_site_label_1
_geom_bond_atom_site_label_2
_ccdc_geom_bond_type
N5    N14   A    
C89   H44   S    
C49   H9    S    
C62   C83   S    
C8    C78   A    
C26   H61   S    
N23   Ni3   S    
C16   C21   A    
C87   H42   S    
C55   C59   A    
C82   N7    A    
C27   C29   S    
N6    Ni5   S    
C5    H70   S    
C12   C91   A    
C79   H35   S    
N5    Ni6   S    
C11   C90   A    
C13   C92   A    
C32   C58   A    
C90   H46   S    
N31   Ni4   S    
N36   Ni2   S    
C13   C22   S    
C44   C104  S    
C57   C62   A    
C40   H8    S    
C31   N30   S    
C55   H15   S    
C11   C81   A    
C16   C31   S    
C89   N14   A    
C13   C84   A    
C3    C43   S    
C8    C69   S    
N7    Ni8   S    
C4    N27   S    
C78   H33   S    
C34   H3    S    
H71   N29   S    
C48   H30   S    
C35   C37   A    
C95   H50   S    
N22   Ni2   S    
C2    C68   S    
C9    C88   A    
C46   H28   S    
C30   C31   S    
C53   H13   S    
C43   C52   A    
C97   H52   S    
C66   C69   A    
N3    Ni4   S    
C60   C72   S    
C25   H60   S    
C95   N19   A    
N26   N31   A    
C100  N25   A    
C100  C104  A    
C45   N32   A    
N9    Ni5   S    
C9    C79   A    
C65   H20   S    
C37   C42   A    
C64   H19   S    
C22   C26   A    
C35   H4    S    
C76   C94   A    
C44   C53   A    
C88   H43   S    
N8    Ni7   S    
C20   C24   A    
C10   C89   A    
C92   H48   S    
C67   C94   S    
C23   C24   A    
C71   H22   S    
C84   N8    A    
C18   C30   S    
C77   H32   S    
C32   C38   A    
N35   Ni8   S    
N20   Ni8   S    
C67   C71   A    
C28   H23   S    
C82   H38   S    
N33   Ni6   S    
N9    N36   A    
C23   H58   S    
C3    C101  A    
C81   H37   S    
C39   H34   S    
C3    C39   A    
C27   H45   S    
C46   N33   A    
N1    Ni1   S    
C47   H29   S    
C34   C60   A    
C77   N2    A    
C56   H16   S    
C36   C41   A    
C42   C102  S    
C85   H40   S    
C41   C49   A    
C76   H31   S    
C52   C54   A    
N6    N15   A    
C96   N20   A    
C29   H56   S    
C53   C55   A    
C15   C20   A    
C30   H67   S    
C47   N34   A    
C11   C20   S    
C59   C61   S    
C51   H10   S    
C79   N4    A    
C7    H77   S    
C46   C61   A    
C33   C40   A    
C64   C67   A    
N14   Ni1   S    
C9    C70   S    
N18   Ni6   S    
C99   C103  A    
C4    H65   S    
C71   C73   A    
N19   N33   A    
C90   N15   A    
C84   H39   S    
N24   Ni1   S    
C80   H36   S    
C12   C21   S    
C41   C103  S    
N20   N34   A    
H66   N28   S    
C50   C58   S    
C88   N13   A    
N12   N24   A    
C19   C23   A    
N13   Ni8   S    
C61   C95   A    
H62   N27   S    
C85   C94   A    
C28   C104  A    
C15   C27   S    
C14   C15   A    
C98   H53   S    
C91   H47   S    
C10   C19   S    
N8    N17   A    
C27   N27   S    
C12   C82   A    
C69   C74   A    
N15   Ni2   S    
N7    N16   A    
C93   N18   A    
C37   H6    S    
C96   H51   S    
C51   C57   A    
C91   N16   A    
C16   C18   A    
N2    Ni1   S    
C45   H27   S    
C54   H14   S    
C80   N5    A    
N18   N32   A    
C74   H25   S    
C24   H59   S    
C14   C29   S    
C73   H24   S    
C86   H41   S    
N34   Ni7   S    
N19   Ni5   S    
C63   H18   S    
C29   N28   S    
C54   C58   A    
C52   H11   S    
C31   H78   S    
C28   N23   A    
C5    N28   S    
C21   C25   A    
C63   C68   A    
N21   N35   A    
C10   C80   A    
N26   Ni3   S    
N3    N11   A    
C18   C22   A    
N16   Ni3   S    
C5    H69   S    
C14   C19   A    
N2    N10   A    
N1    N22   A    
C36   H5    S    
C75   H26   S    
C4    H63   S    
C50   C93   A    
C2    C86   A    
C78   N3    A    
C1    N1    A    
C101  N26   A    
C49   C56   A    
C42   C51   A    
N32   Ni5   S    
C48   C83   A    
N11   Ni7   S    
C99   N24   A    
C8    C87   A    
C39   N31   A    
C81   N6    A    
N10   Ni6   S    
C101  H57   S    
C25   C26   A    
C87   N11   A    
C38   C43   A    
C6    H73   S    
C2    C77   A    
C98   C102  A    
C86   N10   A    
C30   N29   S    
C66   H21   S    
C100  H55   S    
C85   N9    A    
C6    N29   S    
C6    H72   S    
N4    N13   A    
C76   N36   A    
C97   N21   A    
H75   N30   S    
C93   H49   S    
C5    H68   S    
C7    H76   S    
N21   Ni7   S    
C35   C62   A    
C34   C36   A    
C7    H79   S    
C17   C103  A    
C47   C72   A    
C7    N30   S    
C57   H17   S    
C63   C64   A    
C72   C96   A    
N4    Ni3   S    
C4    H64   S    
C40   C44   A    
C33   H2    S    
C56   C60   A    
C74   C75   A    
C33   C59   A    
C65   C66   A    
C83   C97   A    
C99   H54   S    
C70   C75   A    
N23   N25   A    
N25   Ni4   S    
C68   C73   A    
C98   N22   A    
C17   N12   A    
C45   C50   A    
N17   Ni4   S    
C32   H80   S    
C38   H7    S    
C1    C102  A    
N12   Ni2   S    
C92   N17   A    
C65   C70   A    
C17   H12   S    
C1    H1    S    
C48   N35   A    
C6    H74   S    
