data_mof_unit_19873.cif
_audit_creation_date              2012-10-26T19:58:18-0400
_audit_creation_method            fapswitch 2.2
_symmetry_space_group_name_H-M    P1
_symmetry_Int_Tables_number       1
_space_group_crystal_system       triclinic
_cell_length_a                    7.49166
_cell_length_b                    8.689391
_cell_length_c                    13.401772
_cell_angle_alpha                 94.976722
_cell_angle_beta                  77.709182
_cell_angle_gamma                 102.899026
_cell_volume                      830.215441242

loop_
_atom_site_label
_atom_site_type_symbol
_atom_type_description
_atom_site_fract_x
_atom_site_fract_y
_atom_site_fract_z
_atom_type_partial_charge
C1    C     C_R   0.543240 0.799695 0.505644 0.542561
C2    C     C_R   0.336680 0.489460 0.806771 -0.004324
C3    C     C_2   0.562768 0.967134 0.514111 -0.163054
C4    C     C_R   0.399622 0.495777 0.694418 0.541514
C5    C     C_2   0.430336 0.031917 0.493923 -0.164535
C6    C     C_R   0.454634 0.200048 0.497364 0.537382
C7    C     C_R   0.600787 0.511048 0.306273 0.537249
C8    C     C_R   0.873362 0.677195 0.056121 -0.133232
C9    C     C_R   0.660529 0.536478 0.196629 -0.009854
C10   C     C_R   0.154185 0.406230 0.848100 0.263787
C11   C     C_R   0.101915 0.382462 0.952705 -0.119604
C12   C     C_R   0.417465 0.504776 0.976099 0.018275
C13   C     C_R   0.231773 0.426656 0.015385 -0.179540
C14   C     C_3   0.979602 0.314384 0.418239 -0.111302
C15   C     C_3   0.003867 0.190278 0.767928 -0.096123
C16   C     C_R   0.463802 0.550094 0.873072 -0.013743
C17   C     C_R   0.557629 0.542608 0.036493 0.040838
C18   C     C_R   0.734575 0.638226 0.996907 0.058244
C19   C     C_R   0.769084 0.697751 0.899938 -0.113338
C20   C     C_R   0.634910 0.656761 0.839655 -0.103968
C21   C     C_R   0.527403 0.487834 0.135288 -0.131424
C22   C     C_R   0.836034 0.627504 0.155981 -0.146670
Cu1   Cu    Cu3+1 0.321300 0.483160 0.488710 0.954092
Cu2   Cu    Cu3+1 0.678700 0.516840 0.511290 0.939617
H1    H     H_    0.940777 0.666010 0.202591 0.132540
H2    H     H_    0.686052 0.036883 0.538432 0.110484
H3    H     H_    0.097144 0.277220 0.363523 0.098929
H4    H     H_    0.922770 0.219129 0.472742 0.115983
H5    H     H_    0.882452 0.329016 0.370876 0.143067
H6    H     H_    0.941120 0.124570 0.838984 0.093825
H7    H     H_    0.140236 0.159174 0.731763 0.113049
H8    H     H_    0.908186 0.151469 0.713517 0.142009
H9    H     H_    0.303728 0.961072 0.472727 0.127651
H10   H     H_    0.016113 0.633659 0.569164 0.227130
H11   H     H_    0.900380 0.776861 0.870513 0.094619
H12   H     H_    0.008784 0.750024 0.026180 0.111603
H13   H     H_    0.399291 0.408961 0.167703 0.111585
H14   H     H_    0.180170 0.402302 0.095031 0.107718
H15   H     H_    0.959922 0.325185 0.985301 0.133896
H16   H     H_    0.666076 0.713554 0.767570 0.130112
N1    N     N_2   0.947230 0.542220 0.528320 -0.219929
N2    N     N_2   0.052770 0.457780 0.471680 -0.155678
O1    O     O_R   0.383920 0.714220 0.492660 -0.511432
O2    O     O_R   0.685730 0.742660 0.511730 -0.512072
O3    O     O_R   0.275440 0.478800 0.636790 -0.449203
O4    O     O_R   0.577250 0.507240 0.655860 -0.502688
O5    O     O_R   0.314270 0.257340 0.488270 -0.514320
O6    O     O_R   0.616080 0.285780 0.507340 -0.512498
O7    O     O_R   0.422750 0.492760 0.344140 -0.507133
O8    O     O_R   0.724560 0.521200 0.363210 -0.515473
O9    O     O_3   0.022862 0.354752 0.787241 -0.536622

loop_
_geom_bond_atom_site_label_1
_geom_bond_atom_site_label_2
_ccdc_geom_bond_type
C12   C17   A    
C8    C22   A    
Cu1   Cu2   S    
C15   H7    S    
Cu1   O3    S    
C15   O9    S    
C14   H3    S    
C2    C16   A    
N1    N2    D    
C1    O2    A    
C2    C4    S    
C19   C20   A    
C16   C20   A    
C14   N2    S    
Cu2   O4    S    
C3    C5    D    
C17   C18   A    
Cu1   O1    S    
C15   H8    S    
C4    O4    A    
C11   H15   S    
Cu2   N1    S    
C11   C13   A    
C9    C21   A    
C13   H14   S    
H10   N1    S    
C6    O6    A    
C20   H16   S    
C10   O9    S    
C6    O5    A    
C4    O3    A    
Cu2   O8    S    
C5    C6    S    
Cu2   O2    S    
C17   C21   A    
C9    C22   A    
Cu1   O7    S    
Cu1   O5    S    
C10   C11   A    
C14   H5    S    
C2    C10   A    
C12   C16   A    
C21   H13   S    
C12   C13   A    
C7    O7    A    
C15   H6    S    
C18   C19   A    
C8    H12   S    
C7    C9    S    
C19   H11   S    
C14   H4    S    
C1    O1    A    
C3    H2    S    
C8    C18   A    
Cu1   N2    S    
C7    O8    A    
C5    H9    S    
C1    C3    S    
C22   H1    S    
Cu2   O6    S    
