data_mof_unit_25223.cif
_audit_creation_date              2012-12-10T17:14:44-0500
_audit_creation_method            fapswitch 2.2
_symmetry_space_group_name_H-M    P1
_symmetry_Int_Tables_number       1
_space_group_crystal_system       triclinic
_cell_length_a                    10.635241
_cell_length_b                    12.961409
_cell_length_c                    11.767979
_cell_angle_alpha                 100.644608
_cell_angle_beta                  94.751558
_cell_angle_gamma                 90.008428
_cell_volume                      1588.5972772

loop_
_atom_site_label
_atom_site_type_symbol
_atom_type_description
_atom_site_fract_x
_atom_site_fract_y
_atom_site_fract_z
_atom_type_partial_charge
C1    C     C_R   0.499994 0.299583 0.478389 0.854521
C2    C     C_R   0.502590 0.700355 0.521623 0.811096
C3    C     C_R   0.587500 0.127779 0.503793 0.199718
C4    C     C_R   0.416332 0.873122 0.498007 0.205844
C5    C     C_R   0.564479 0.022819 0.517326 -0.026216
C6    C     C_R   0.439202 0.978621 0.487492 -0.000492
C7    C     C_R   0.381433 0.401873 0.016697 0.311378
C8    C     C_R   0.618857 0.597802 0.983228 0.311810
C9    C     C_R   0.398063 0.405486 0.138210 0.417546
C10   C     C_R   0.601858 0.594390 0.861814 0.416474
C11   C     C_R   0.548823 0.543595 0.159278 0.047611
C12   C     C_R   0.451683 0.455978 0.840647 0.037817
C13   C     C_R   0.543152 0.535227 0.036054 -0.133306
C14   C     C_R   0.457464 0.464208 0.963875 -0.131516
C15   C     C_R   0.259369 0.499876 0.499370 0.816636
C16   C     C_R   0.740565 0.499634 0.500651 0.812444
C17   C     C_3   0.046110 0.410645 0.531986 -0.274687
C18   C     C_3   0.953808 0.587288 0.468524 -0.259921
C19   C     C_3   0.950217 0.414252 0.425896 -0.255924
C20   C     C_3   0.049452 0.583484 0.574589 -0.251853
C21   C     C_3   0.877261 0.498809 0.502154 -0.122492
C22   C     C_3   0.122577 0.499237 0.498198 -0.109529
C23   C     C_3   0.971202 0.495062 0.607061 0.470098
C24   C     C_3   0.028522 0.502804 0.393298 0.481572
C25   C     C_R   0.516685 0.812773 0.532531 -0.128166
C26   C     C_R   0.486885 0.187125 0.467910 -0.101823
C27   C     C_R   0.341608 0.040488 0.445169 0.289970
C28   C     C_R   0.661214 0.960567 0.560410 0.284659
C29   C     C_R   0.367393 0.143613 0.436657 -0.342890
C30   C     C_R   0.636368 0.856023 0.563793 -0.309088
Cu1   Cu    Cu3+1 0.509400 0.507730 0.615930 0.955459
Cu2   Cu    Cu3+1 0.490600 0.492270 0.384070 0.967656
H1    H     H_    0.907195 0.345283 0.364854 0.178891
H2    H     H_    0.091036 0.651182 0.638174 0.171481
H3    H     H_    0.086087 0.338726 0.558538 0.170998
H4    H     H_    0.913913 0.659324 0.442189 0.172882
H5    H     H_    0.712479 0.807274 0.589704 0.148605
H6    H     H_    0.292274 0.191580 0.407493 0.153520
H7    H     H_    0.388961 0.399568 0.784243 0.200895
H8    H     H_    0.611699 0.599905 0.215641 0.200117
N1    N     N_R   0.523540 0.519360 0.790140 -0.244749
N2    N     N_R   0.476460 0.480640 0.209860 -0.243575
O1    O     O_R   0.506670 0.354460 0.582000 -0.584231
O2    O     O_R   0.493330 0.645540 0.418000 -0.581910
O3    O     O_R   0.490800 0.341410 0.386200 -0.601827
O4    O     O_R   0.509200 0.658590 0.613800 -0.597157
O5    O     O_R   0.324790 0.506500 0.597880 -0.572971
O6    O     O_R   0.675210 0.493500 0.402120 -0.567847
O7    O     O_R   0.308910 0.493440 0.402080 -0.575720
O8    O     O_R   0.691090 0.506560 0.597920 -0.584687
Cl1   Cl    Cl    0.936222 0.490751 0.751676 -0.542387
Cl2   Cl    Cl    0.064155 0.508410 0.249205 -0.516907
N3    N     N_2   0.292702 0.827627 0.475106 -0.386979
H9    H     H_    0.286482 0.756926 0.417819 0.274605
C31   C     C_3   0.227782 0.825605 0.577892 -0.653773
H10   H     H_    0.126825 0.805151 0.552073 0.229247
H11   H     H_    0.233348 0.903785 0.635861 0.238840
H12   H     H_    0.270266 0.766407 0.626127 0.208422
N4    N     N_2   0.711556 0.172186 0.513375 -0.459499
H13   H     H_    0.778690 0.129208 0.467638 0.262850
C32   C     C_3   0.755566 0.239570 0.621716 -0.521091
H14   H     H_    0.846500 0.211063 0.656466 0.238468
H15   H     H_    0.686025 0.243348 0.687870 0.234463
H16   H     H_    0.772648 0.319386 0.605416 0.241697
N5    N     N_2   0.218344 0.998945 0.406166 -0.376658
H17   H     H_    0.198189 0.993429 0.317980 0.259955
C33   C     C_3   0.117442 0.047293 0.471755 -0.635023
H18   H     H_    0.029872 0.999310 0.445524 0.225865
H19   H     H_    0.099203 0.127479 0.454139 0.202298
H20   H     H_    0.141194 0.051782 0.566242 0.238562
N6    N     N_2   0.784981 0.000564 0.598901 -0.434591
H21   H     H_    0.853543 0.957961 0.554724 0.244104
C34   C     C_3   0.814584 0.016308 0.723232 -0.657641
H22   H     H_    0.907235 0.057580 0.746212 0.239240
H23   H     H_    0.821184 0.939725 0.752570 0.222334
H24   H     H_    0.741610 0.065031 0.769040 0.244073
N7    N     N_2   0.663351 0.674550 0.818088 -0.368378
H25   H     H_    0.696359 0.655739 0.737808 0.301402
C35   C     C_3   0.607102 0.777436 0.843000 -0.614011
H26   H     H_    0.660820 0.834221 0.805387 0.217531
H27   H     H_    0.609157 0.806698 0.937800 0.255263
H28   H     H_    0.507406 0.774783 0.806098 0.226420
N8    N     N_2   0.334186 0.326626 0.182314 -0.367466
H29   H     H_    0.302072 0.345920 0.262833 0.300632
C36   C     C_3   0.385775 0.221997 0.156830 -0.618175
H30   H     H_    0.327170 0.166316 0.191873 0.219765
H31   H     H_    0.484259 0.221096 0.195941 0.227401
H32   H     H_    0.385912 0.193744 0.062026 0.254807
Cl3   Cl    Cl    0.260054 0.321046 0.932822 -0.577595
Cl4   Cl    Cl    0.739195 0.679793 0.067032 -0.565188

loop_
_geom_bond_atom_site_label_1
_geom_bond_atom_site_label_2
_ccdc_geom_bond_type
C24   Cl2   S    
C31   H10   S    
C16   C21   S    
C4    N3    S    
C27   C29   A    
C18   C21   S    
C34   H23   S    
Cu2   O3    S    
C15   O5    A    
C16   O6    A    
C4    C25   A    
C15   C22   S    
N7    H25   S    
C2    O4    A    
C9    N2    A    
C17   C23   S    
Cu1   O1    S    
C18   C24   S    
C19   C21   S    
C16   O8    A    
C36   H30   S    
C5    C6    A    
C7    Cl3   S    
C11   N2    A    
C34   H22   S    
C32   H15   S    
C1    O1    A    
C7    C14   A    
N8    H29   S    
C2    O2    A    
N5    C33   S    
Cu1   O4    S    
C29   H6    S    
C6    C27   A    
C20   H2    S    
N7    C35   S    
N4    H13   S    
Cu1   O5    S    
C13   C14   A    
C10   N1    A    
Cu2   O6    S    
C11   H8    S    
C10   N7    S    
N3    C31   S    
C21   C23   S    
N4    C32   S    
C36   H31   S    
C33   H18   S    
C4    C6    A    
C19   H1    S    
C35   H27   S    
N3    H9    S    
C30   H5    S    
C33   H19   S    
C32   H16   S    
C12   N1    A    
C27   N5    S    
C5    C28   A    
C23   Cl1   S    
Cu1   Cu2   S    
C20   C23   S    
Cu2   O2    S    
C9    N8    S    
N8    C36   S    
C20   C22   S    
C31   H11   S    
C1    C26   S    
C34   H24   S    
C22   C24   S    
C28   N6    S    
C8    Cl4   S    
Cu1   O8    S    
N6    C34   S    
C36   H32   S    
C25   C30   A    
C7    C9    A    
Cu1   N1    S    
C3    C26   A    
C12   C14   A    
C3    C5    A    
C35   H28   S    
C17   C22   S    
C33   H20   S    
C12   H7    S    
C28   C30   A    
C19   C24   S    
N6    H21   S    
C11   C13   A    
C1    O3    A    
C17   C19   S    
C2    C25   S    
C18   C20   S    
C15   O7    A    
C32   H14   S    
Cu2   O7    S    
C35   H26   S    
C8    C13   A    
C26   C29   A    
C8    C10   A    
N5    H17   S    
C31   H12   S    
Cu2   N2    S    
C17   H3    S    
C18   H4    S    
C3    N4    S    
