data_mof_unit_44462.cif
_audit_creation_date              2012-12-11T14:52:36-0500
_audit_creation_method            fapswitch 2.2
_symmetry_space_group_name_H-M    P1
_symmetry_Int_Tables_number       1
_space_group_crystal_system       triclinic
_cell_length_a                    8.229507
_cell_length_b                    15.111299
_cell_length_c                    26.980815
_cell_angle_alpha                 97.701926
_cell_angle_beta                  92.299875
_cell_angle_gamma                 80.566082
_cell_volume                      3279.48952558

loop_
_atom_site_label
_atom_site_type_symbol
_atom_type_description
_atom_site_fract_x
_atom_site_fract_y
_atom_site_fract_z
_atom_type_partial_charge
Ba1   Ba    Ba6+2 0.860900 0.457020 0.523210 1.672403
Ba2   Ba    Ba6+2 0.328940 0.542910 0.476780 1.661675
C1    C     C_3   0.745008 0.140192 0.657828 -0.321947
C2    C     C_3   0.713784 0.229735 0.636471 0.323976
C3    C     C_3   0.475087 0.691392 0.629474 0.305616
C4    C     C_3   0.466827 0.725065 0.685294 0.013605
C5    C     C_3   0.015005 0.738257 0.341654 0.300147
C6    C     C_3   0.023760 0.763014 0.289235 -0.310885
C7    C     C_3   0.506963 0.773861 0.366879 0.323633
C8    C     C_3   0.490324 0.866246 0.349034 -0.308951
C9    C     C_R   0.066813 0.437920 0.180758 0.614949
C10   C     C_R   0.878306 0.576410 0.176978 0.580657
C11   C     C_2   0.745088 0.528214 0.270179 -0.072027
C12   C     C_3   0.260951 0.242313 0.654782 0.255404
C13   C     C_3   0.699379 0.522742 0.323748 -0.059494
C14   C     C_1   0.988462 0.488082 0.344380 0.047673
C15   C     C_2   0.034690 0.486616 0.297384 -0.106325
C16   C     C_2   0.906692 0.508749 0.256609 0.186402
C17   C     C_R   0.024643 0.501372 0.101571 -0.075588
C18   C     C_R   0.105557 0.434733 0.129710 -0.044535
C19   C     C_R   0.218148 0.363395 0.105726 -0.073571
C20   C     C_R   0.910538 0.572809 0.125422 -0.032035
C21   C     C_2   0.843917 0.531840 0.359194 -0.278060
C22   C     C_2   0.357947 0.484846 0.640249 -0.282112
C23   C     C_3   0.228093 0.251066 0.710712 -0.211896
C24   C     C_R   0.235927 0.438385 0.977748 0.034002
C25   C     C_R   0.989218 0.551479 0.967782 -0.011675
C26   C     C_R   0.134188 0.496404 0.947681 0.047363
C27   C     C_R   0.389867 0.394916 0.958456 -0.025477
C28   C     C_R   0.430782 0.396999 0.908911 -0.009459
C29   C     C_R   0.323877 0.447087 0.877265 -0.033545
C30   C     C_R   0.178034 0.499319 0.897189 -0.074476
C31   C     C_R   0.076599 0.554710 0.866723 -0.037676
C32   C     C_R   0.124853 0.559645 0.817351 0.618540
C33   C     C_R   0.361156 0.446522 0.826292 0.592100
C34   C     C_3   0.270386 0.255932 0.389408 0.492231
C35   C     C_2   0.463591 0.496293 0.728986 -0.071699
C36   C     C_3   0.505384 0.495032 0.674378 -0.066218
C37   C     C_1   0.209714 0.518961 0.656583 0.042226
C38   C     C_2   0.171359 0.514927 0.703556 -0.098983
C39   C     C_2   0.304420 0.504379 0.743703 0.191536
C40   C     C_R   0.184361 0.429724 0.026855 -0.013735
C41   C     C_R   0.058619 0.497145 0.049601 0.053697
C42   C     C_R   0.966306 0.560723 0.020707 0.047714
C43   C     C_R   0.253500 0.357948 0.054737 -0.052696
C44   C     C_R   0.832826 0.640247 0.097375 -0.042862
C45   C     C_3   0.217900 0.188313 0.420518 -0.011775
C46   C     C_R   0.875455 0.595663 0.933983 -0.050311
C47   C     C_R   0.925101 0.601380 0.885363 -0.071363
C48   C     C_R   0.861097 0.634634 0.046283 -0.042306
C49   C     C_R   0.754538 0.766835 0.479332 -0.287359
C50   C     C_R   0.843839 0.826960 0.462525 0.017448
C51   C     C_R   0.783695 0.920187 0.469289 -0.127812
C52   C     C_R   0.632597 0.954595 0.494284 0.007429
C53   C     C_R   0.549353 0.890894 0.512513 -0.101391
C54   C     C_R   0.611436 0.798774 0.505599 0.039570
C55   C     C_R   0.416796 0.088063 0.529711 -0.115299
C56   C     C_3   0.966119 0.732278 0.583634 0.305628
C57   C     C_R   0.352960 0.180120 0.536709 -0.009583
C58   C     C_R   0.580699 0.212213 0.492415 0.061568
C59   C     C_R   0.644744 0.119680 0.484453 -0.107911
C60   C     C_R   0.565521 0.054970 0.503404 0.012438
C61   C     C_R   0.437615 0.242100 0.519420 -0.286958
C62   C     C_3   0.923051 0.833837 0.599043 -0.350130
C63   C     C_3   0.716204 0.337033 0.373339 0.319521
C64   C     C_3   0.767345 0.300849 0.319855 -0.295948
H1    H     H_    0.828403 0.237104 0.618322 0.122922
H2    H     H_    0.328819 0.144245 0.432827 0.021920
H3    H     H_    0.150925 0.225884 0.453669 0.082264
H4    H     H_    0.853643 0.704837 0.570261 0.002611
H5    H     H_    0.056425 0.719618 0.553055 0.065182
H6    H     H_    0.826704 0.848134 0.628051 0.156687
H7    H     H_    0.876639 0.868468 0.566476 0.049912
H8    H     H_    0.034217 0.861716 0.614298 0.155919
H9    H     H_    0.819683 0.364304 0.393645 0.034161
H10   H     H_    0.608915 0.391811 0.372966 0.023813
H11   H     H_    0.856026 0.137397 0.682610 0.181886
H12   H     H_    0.854308 0.236210 0.318842 0.196571
H13   H     H_    0.829795 0.349105 0.303624 0.054341
H14   H     H_    0.658483 0.288862 0.296232 0.137002
H15   H     H_    0.613521 0.227664 0.607879 -0.035761
H16   H     H_    0.765885 0.083274 0.626869 0.074847
H17   H     H_    0.350128 0.680643 0.615735 0.027381
H18   H     H_    0.561913 0.626580 0.623693 -0.015807
H19   H     H_    0.414251 0.677022 0.705153 0.023063
H20   H     H_    0.592478 0.730858 0.700660 0.101140
H21   H     H_    0.638126 0.132504 0.679740 0.168061
H22   H     H_    0.322645 0.286357 0.731791 0.074650
H23   H     H_    0.093361 0.671744 0.343341 0.086285
H24   H     H_    0.885294 0.732971 0.348799 -0.034466
H25   H     H_    0.150411 0.773342 0.281822 0.147160
H26   H     H_    0.990654 0.707588 0.261570 0.118749
H27   H     H_    0.936748 0.825977 0.285118 0.141023
H28   H     H_    0.630813 0.758500 0.384308 -0.047680
H29   H     H_    0.410715 0.777195 0.395100 0.100749
H30   H     H_    0.507502 0.918346 0.381183 0.090919
H31   H     H_    0.365820 0.884245 0.332067 0.163490
H32   H     H_    0.268388 0.311250 0.645878 0.001838
H33   H     H_    0.585493 0.865391 0.320808 0.134967
H34   H     H_    0.162231 0.460249 0.288032 0.157745
H35   H     H_    0.273569 0.308659 0.126318 0.163268
H36   H     H_    0.564273 0.495620 0.756280 0.125625
H37   H     H_    0.548574 0.360154 0.895698 0.134866
H38   H     H_    0.482979 0.360477 0.981639 0.087960
H39   H     H_    0.647192 0.539625 0.241938 0.121366
H40   H     H_    0.748819 0.697901 0.114842 0.133099
H41   H     H_    0.380361 0.198171 0.646539 0.016825
H42   H     H_    0.839432 0.637549 0.860575 0.157236
H43   H     H_    0.043783 0.518473 0.712933 0.147647
H44   H     H_    0.802766 0.690653 0.027415 0.084807
H45   H     H_    0.834098 0.582131 0.392073 0.060802
H46   H     H_    0.374567 0.452285 0.601946 0.075375
H47   H     H_    0.343958 0.044748 0.544100 0.079414
H48   H     H_    0.859486 0.963609 0.456176 0.102689
H49   H     H_    0.753145 0.100243 0.461998 0.108268
H50   H     H_    0.439551 0.910144 0.534216 0.085542
H51   H     H_    0.386620 0.313274 0.524203 0.072258
H52   H     H_    0.105760 0.292998 0.718622 0.105647
H53   H     H_    0.802662 0.695254 0.475296 0.061198
H54   H     H_    0.351587 0.296930 0.412845 -0.054713
N1    N     N_R   0.952254 0.507781 0.204201 -0.424489
N2    N     N_R   0.263521 0.503695 0.796498 -0.424336
O1    O     O_2   0.905540 0.548000 0.618290 -0.467276
O2    O     O_3   0.673531 0.265850 0.395492 -0.603050
O3    O     O_3   0.135055 0.204798 0.627059 -0.604741
O4    O     O_2   0.284150 0.451970 0.381680 -0.476773
O5    O     O_3   0.052160 0.451990 0.441880 -0.483724
O6    O     O_3   0.501140 0.616030 0.412450 -0.484950
O7    O     O_3   0.129081 0.307845 0.371792 -0.626802
O8    O     O_3   0.615020 0.608480 0.525380 -0.478797
O9    O     O_3   0.085020 0.662210 0.437090 -0.498001
O10   O     O_2   0.183089 0.821399 0.468241 -0.480357
O11   O     O_3   0.072554 0.804795 0.376158 -0.584441
O12   O     O_3   0.137550 0.547930 0.558110 -0.495910
O13   O     O_3   0.574690 0.391440 0.474610 -0.495344
O14   O     O_2   0.341330 0.720570 0.525000 -0.461567
O15   O     O_3   0.532031 0.755833 0.604865 -0.627732
O16   O     O_2   0.354714 0.564214 0.326862 -0.495569
O17   O     O_3   0.487166 0.708280 0.325973 -0.586158
O18   O     O_2   0.134912 0.377868 0.203977 -0.578690
O19   O     O_2   0.479793 0.393750 0.808419 -0.581070
O20   O     O_2   0.785099 0.641496 0.197713 -0.595710
O21   O     O_2   0.044025 0.615144 0.793355 -0.580464
O22   O     O_3   0.688580 0.383890 0.587540 -0.493090
O23   O     O_2   0.849148 0.425642 0.671847 -0.484839
O24   O     O_3   0.032344 0.692678 0.625439 -0.610944
O25   O     O_3   0.667858 0.301137 0.674909 -0.586120
O26   O     O_2   0.848360 0.279400 0.474970 -0.446184
O27   O     O_3   0.104690 0.337720 0.562900 -0.473743
O28   O     O_2   0.010674 0.178362 0.535884 -0.482724
P1    P     P_3+3 0.070480 0.574800 0.610950 1.008708
P2    P     P_3+3 0.668430 0.292880 0.460530 1.013462
P3    P     P_3+3 0.150562 0.221793 0.564662 0.957207
P4    P     P_3+3 0.119230 0.425130 0.389040 1.005108
P5    P     P_3+3 0.046985 0.779846 0.436532 0.959748
P6    P     P_3+3 0.678638 0.403994 0.652745 0.990796
P7    P     P_3+3 0.526595 0.722043 0.540341 0.962809
P8    P     P_3+3 0.511657 0.601766 0.347108 0.971581
I1    I     I_    0.059432 0.100505 0.382111 -0.381378
I2    I     I_    0.312369 0.853972 0.699641 -0.329530
C65   C     C_2   0.341073 0.269504 0.030934 0.865935
O29   O     O_2   0.456818 0.228625 0.052806 -0.580878
O30   O     O_R   0.288112 0.231514 0.984187 -0.732341
H55   H     H_    0.357646 0.171343 0.971867 0.334803
C66   C     C_2   0.696422 0.621687 0.944408 0.849636
O31   O     O_2   0.613698 0.683308 0.924823 -0.584490
O32   O     O_R   0.620402 0.572294 0.974508 -0.762275
H56   H     H_    0.497595 0.594265 0.977546 0.313196
C67   C     C_2   0.233856 0.160618 0.728450 0.943114
O33   O     O_2   0.360359 0.105520 0.724928 -0.577859
O34   O     O_R   0.095235 0.140521 0.749987 -0.733658
H57   H     H_    0.113814 0.077505 0.760467 0.342151
I3    I     I_    0.401574 0.183823 0.325275 -0.350053

loop_
_geom_bond_atom_site_label_1
_geom_bond_atom_site_label_2
_ccdc_geom_bond_type
C25   C46   A    
C53   C54   A    
C38   C39   S    
C66   O31   D    
C37   P1    S    
C7    O17   S    
C67   O33   D    
C17   C18   A    
C22   H46   S    
C36   P6    S    
C9    O18   D    
C23   H52   S    
O10   P5    D    
C65   O29   D    
C57   P3    S    
O6    P8    S    
C55   C60   A    
C45   I1    S    
C51   C52   A    
C50   C51   A    
C50   P5    S    
C64   H13   S    
C26   C30   A    
Ba2   O12   S    
C12   O3    S    
C11   C16   D    
C34   C45   S    
C58   C61   A    
C32   O21   D    
C35   C36   S    
C5    O11   S    
C3    C4    S    
C61   H51   S    
C56   H5    S    
C55   C57   A    
O26   P2    D    
C53   H50   S    
C31   C47   A    
O13   P2    S    
C5    H23   S    
C10   C20   A    
C48   H44   S    
C22   C37   D    
Ba1   P2    S    
C15   C16   S    
Ba1   Ba2   S    
C58   P2    S    
C63   O2    S    
O27   P3    S    
C45   H3    S    
C43   C65   S    
O23   P6    D    
C25   C42   A    
C46   C66   S    
O30   H55   S    
O17   P8    S    
O3    P3    S    
C14   C15   D    
O28   P3    D    
C28   H37   S    
C59   H49   S    
C22   C36   S    
C62   H7    S    
Ba1   O27   S    
C6    H26   S    
C7    C8    S    
C7    H29   S    
C59   C60   A    
C19   H35   S    
Ba2   O5    S    
C13   C21   S    
O2    P2    S    
C34   I3    S    
C32   N2    Am   
C67   O34   S    
C9    N1    Am   
O5    P4    S    
C65   O30   S    
C17   C41   A    
C12   H32   S    
C47   H42   S    
C19   C43   A    
C56   C62   S    
C64   H12   S    
O1    P1    D    
C9    C18   A    
Ba2   O9    S    
C2    H15   S    
C1    H21   S    
C49   C50   A    
Ba1   O5    S    
C5    C6    S    
C17   C20   A    
C13   P8    S    
C11   H39   S    
Ba1   O8    S    
C37   C38   D    
C3    H18   S    
C56   H4    S    
C55   H47   S    
C52   C60   S    
C5    H24   S    
C23   H22   S    
Ba2   O14   S    
C35   H36   S    
C27   H38   S    
C58   C59   A    
C40   C43   A    
C39   N2    S    
O22   P6    S    
C8    H31   S    
C41   C42   A    
Ba1   O1    S    
C27   C28   A    
C54   P7    S    
O16   P8    D    
C49   H53   S    
C29   C30   A    
C8    H30   S    
C28   C29   A    
C1    H16   S    
C31   C32   A    
C6    H25   S    
O25   P6    S    
C63   H10   S    
O34   H57   S    
C33   O19   D    
O14   P7    D    
Ba2   O4    S    
C12   H41   S    
C20   C44   A    
C14   C21   D    
O8    P7    S    
C14   P4    S    
C29   C33   A    
C40   C41   A    
Ba1   O12   S    
C1    H11   S    
O4    P4    D    
C45   H2    S    
O32   H56   S    
C64   H14   S    
C51   H48   S    
C24   C40   A    
C42   C48   A    
C52   C53   A    
C46   C47   A    
O11   P5    S    
C57   C61   A    
C33   N2    Am   
C6    H27   S    
C49   C54   A    
C4    H20   S    
C2    H1    S    
C4    I2    S    
C56   O24   S    
C3    O15   S    
C38   H43   S    
C21   H45   S    
C44   C48   A    
C24   C26   A    
Ba2   O13   S    
C63   H9    S    
O15   P7    S    
C23   C67   S    
C30   C31   A    
C11   C13   S    
Ba1   O22   S    
C34   O7    S    
C2    O25   S    
O7    P4    S    
C3    H17   S    
O12   P1    S    
C44   H40   S    
O9    P5    S    
Ba2   O8    S    
C10   O20   D    
Ba1   P1    S    
C62   H6    S    
C12   C23   S    
C35   C39   D    
C8    H33   S    
C34   H54   S    
C15   H34   S    
C16   N1    S    
O24   P1    S    
C18   C19   A    
C24   C27   A    
C66   O32   S    
C63   C64   S    
Ba2   P4    S    
C4    H19   S    
C25   C26   A    
C62   H8    S    
Ba1   O26   S    
Ba1   O13   S    
C7    H28   S    
C10   N1    Am   
C1    C2    S    
Ba2   O6    S    
