data_mof_unit_31546.cif
_audit_creation_date              2013-03-05T15:57:02-0500
_audit_creation_method            fapswitch 2.2
_symmetry_space_group_name_H-M    P1
_symmetry_Int_Tables_number       1
_space_group_crystal_system       triclinic
_cell_length_a                    14.661736
_cell_length_b                    7.169763
_cell_length_c                    13.577177
_cell_angle_alpha                 90.002581
_cell_angle_beta                  99.895847
_cell_angle_gamma                 89.99854
_cell_volume                      1406.01384785

loop_
_atom_site_label
_atom_site_type_symbol
_atom_site_description
_atom_site_fract_x
_atom_site_fract_y
_atom_site_fract_z
_atom_type_partial_charge
O1    O     O_R   0.336930 0.638190 0.166330 -0.578310
O2    O     O_R   0.663070 0.361810 0.833670 -0.563187
O3    O     O_R   0.163070 0.138190 0.333670 -0.578652
O4    O     O_R   0.836930 0.861810 0.666330 -0.563472
O5    O     O_R   0.147900 0.305430 0.139630 -0.564395
O6    O     O_R   0.852100 0.694570 0.860370 -0.567864
O7    O     O_R   0.352100 0.805430 0.360370 -0.564504
O8    O     O_R   0.647900 0.194570 0.639630 -0.567953
C1    C     C_R   0.115078 0.477576 0.113154 0.979655
C2    C     C_R   0.884907 0.522425 0.886861 0.979464
C3    C     C_R   0.384921 0.977577 0.386847 0.980463
C4    C     C_R   0.615093 0.022423 0.613138 0.979799
O9    O     O_R   0.335280 0.308290 0.154310 -0.580887
O10   O     O_R   0.664720 0.691710 0.845690 -0.602147
O11   O     O_R   0.164720 0.808290 0.345690 -0.581319
O12   O     O_R   0.835280 0.191710 0.654310 -0.602089
O13   O     O_R   0.351790 0.140890 0.348460 -0.584943
O14   O     O_R   0.648210 0.859110 0.651540 -0.580955
O15   O     O_R   0.148210 0.640890 0.151540 -0.584807
O16   O     O_R   0.851790 0.359110 0.848460 -0.580805
C5    C     C_R   0.364342 0.476923 0.133570 1.022178
C6    C     C_R   0.636176 0.523124 0.867162 0.998380
C7    C     C_R   0.135656 0.976926 0.366426 1.022837
C8    C     C_R   0.863804 0.023113 0.632817 0.998565
O17   O     O_3   0.255200 0.472570 0.313680 -0.282789
O18   O     O_3   0.744800 0.527430 0.686320 -0.282897
O19   O     O_3   0.244800 0.972570 0.186320 -0.282250
O20   O     O_3   0.755200 0.027430 0.813680 -0.282547
V1    V     V_3+5 0.249040 0.196590 0.238190 1.263923
V2    V     V_3+5 0.750960 0.803410 0.761810 1.258586
V3    V     V_3+5 0.250960 0.696590 0.261810 1.263694
V4    V     V_3+5 0.749040 0.303410 0.738190 1.258564
C9    C     C_R   0.074173 0.874485 0.519895 -0.101894
C10   C     C_R   0.924185 0.124695 0.477103 -0.074830
C11   C     C_R   0.426220 0.373407 0.980501 -0.100633
C12   C     C_R   0.575310 0.625929 0.022398 -0.074496
C13   C     C_R   0.009190 0.887988 0.585549 0.361863
C14   C     C_R   0.989037 0.110690 0.411789 0.373065
C15   C     C_R   0.491186 0.386924 0.914843 0.361384
C16   C     C_R   0.510473 0.611919 0.087695 0.373069
C17   C     C_R   0.933739 0.013651 0.564793 -0.354609
C18   C     C_R   0.064868 0.986390 0.433221 -0.333948
C19   C     C_R   0.566220 0.513683 0.935164 -0.354560
C20   C     C_R   0.435100 0.486422 0.066747 -0.334157
C21   C     C_1   0.533930 0.008227 0.533126 -0.154384
C22   C     C_1   0.466098 0.991777 0.466847 -0.150694
C23   C     C_1   0.966070 0.508230 0.966874 -0.153708
C24   C     C_1   0.033902 0.491774 0.033153 -0.149959
N1    N     N_3   0.153244 0.754451 0.543826 -0.187179
H1    H     H_    0.130372 0.616421 0.543664 0.184666
H2    H     H_    0.188347 0.787701 0.615366 0.148512
N2    N     N_3   0.845749 0.245092 0.449200 -0.149275
H3    H     H_    0.849972 0.355237 0.500143 0.180342
H4    H     H_    0.784985 0.169379 0.450357 0.110627
N3    N     N_3   0.347573 0.252159 0.956962 -0.186521
H5    H     H_    0.370934 0.114416 0.957624 0.185080
H6    H     H_    0.312379 0.284233 0.885298 0.148357
N4    N     N_3   0.653252 0.747749 0.049900 -0.149455
H7    H     H_    0.648566 0.857395 0.998612 0.181376
H8    H     H_    0.714339 0.672949 0.049035 0.111221
N5    N     N_R   0.023056 0.780364 0.676140 0.225712
O21   O     O_R   0.024805 0.599098 0.672574 -0.423067
O22   O     O_R   0.031634 0.863442 0.762451 -0.408482
N6    N     N_R   0.975124 0.218730 0.321212 0.237480
O23   O     O_R   0.973063 0.137295 0.235195 -0.405936
O24   O     O_R   0.959977 0.397341 0.323948 -0.394597
N7    N     N_R   0.477672 0.278182 0.824639 0.225767
O25   O     O_R   0.476718 0.096932 0.828860 -0.423366
O26   O     O_R   0.468537 0.360272 0.738027 -0.408744
N8    N     N_R   0.523943 0.721328 0.177781 0.237597
O27   O     O_R   0.526963 0.640887 0.264208 -0.406007
O28   O     O_R   0.537739 0.900329 0.174149 -0.394954

loop_
_geom_bond_atom_site_label_1
_geom_bond_atom_site_label_2
_geom_bond_distance
_ccdc_geom_bond_type
O2    C6    1.327212 A    
C11   C15   1.415354 A    
N3    H5    1.044813 S    
O18   V4    1.750616 S    
N8    O27   1.301437 A    
C11   C20   1.411459 A    
C6    C19   1.494842 S    
O19   V1    1.750561 S    
C5    C20   1.492515 S    
O13   V1    1.973644 S    
O1    C5    1.325759 A    
O3    C7    1.325783 A    
C23   C24   1.226864 T    
C16   C20   1.415530 A    
O8    C4    1.350793 A    
O15   V3    1.973634 S    
N6    O23   1.301361 A    
O10   C6    1.327829 A    
O11   C7    1.328121 A    
C13   N5    1.436560 S    
O9    C5    1.328148 A    
O12   C8    1.327838 A    
N6    O24   1.301327 A    
C21   C22   1.226863 T    
O7    C3    1.350820 A    
C8    C17   1.494807 S    
C10   C17   1.419063 A    
O3    V1    2.001584 S    
O5    C1    1.350819 A    
C7    C18   1.492569 S    
C16   N8    1.437799 S    
O10   V2    2.008041 S    
O14   V2    1.973646 S    
C9    C18   1.411406 A    
O20   V2    1.750561 S    
O6    V2    1.979035 S    
N2    H4    1.045697 S    
C14   C18   1.415561 A    
C12   N4    1.435806 S    
N3    H6    1.045618 S    
O1    V3    2.001545 S    
C13   C17   1.416953 A    
N5    O21   1.300951 A    
O4    C8    1.327206 A    
C9    C13   1.415496 A    
O7    V3    1.979018 S    
O6    C2    1.350792 A    
N7    O26   1.301203 A    
N4    H8    1.045714 S    
N7    O25   1.300968 A    
O8    V4    1.979018 S    
O5    V1    1.979036 S    
C12   C16   1.410472 A    
N2    H3    1.044566 S    
C1    C24   1.470492 S    
O2    V4    2.001546 S    
N1    H1    1.044801 S    
O16   V4    1.973634 S    
C9    N1    1.435536 S    
O9    V1    2.008040 S    
C2    C23   1.470459 S    
N5    O22   1.301211 A    
C14   N6    1.438008 S    
O12   V4    2.007974 S    
C3    O13   1.338526 A    
C3    C22   1.470487 S    
C15   C19   1.417070 A    
C10   N2    1.435765 S    
N1    H2    1.045611 S    
N4    H7    1.044615 S    
C10   C14   1.410804 A    
C15   N7    1.436511 S    
O11   V3    2.007975 S    
N8    O28   1.301497 A    
C11   N3    1.435576 S    
O4    V2    2.001584 S    
O17   V3    1.750616 S    
C1    O15   1.338514 A    
C2    O16   1.338518 A    
C4    C21   1.470455 S    
C12   C19   1.419108 A    
C4    O14   1.338529 A    
