data_mof_unit_14892.cif
_audit_creation_date              2012-12-10T20:32:00-0500
_audit_creation_method            fapswitch 2.2
_symmetry_space_group_name_H-M    P1
_symmetry_Int_Tables_number       1
_space_group_crystal_system       triclinic
_cell_length_a                    9.857158
_cell_length_b                    10.716111
_cell_length_c                    15.532745
_cell_angle_alpha                 89.782722
_cell_angle_beta                  69.047199
_cell_angle_gamma                 88.749299
_cell_volume                      1531.85812369

loop_
_atom_site_label
_atom_site_type_symbol
_atom_type_description
_atom_site_fract_x
_atom_site_fract_y
_atom_site_fract_z
_atom_type_partial_charge
C1    C     C_R   0.495670 0.739647 0.505664 0.896235
C2    C     C_R   0.426928 0.429341 0.907139 0.099364
C3    C     C_R   0.286695 0.384099 0.955679 0.180042
C4    C     C_R   0.533436 0.427837 0.948334 0.071066
C5    C     C_R   0.490457 0.408230 0.044133 0.069633
C6    C     C_R   0.348806 0.364062 0.092305 -0.232377
C7    C     C_R   0.250078 0.348758 0.047631 -0.245785
C8    C     C_R   0.682036 0.443237 0.896113 -0.238892
C9    C     C_R   0.782805 0.458661 0.938238 -0.257305
C10   C     C_R   0.737479 0.461603 0.033766 0.185931
C11   C     C_R   0.590902 0.435386 0.087671 0.095382
C12   C     C_R   0.409907 0.496466 0.675690 0.862695
C13   C     C_R   0.836123 0.493253 0.076095 -0.222370
C14   C     C_R   0.789826 0.503295 0.171486 -0.206477
C15   C     C_R   0.546933 0.447123 0.183168 -0.269523
C16   C     C_R   0.361316 0.940029 0.534011 0.119209
C17   C     C_R   0.485328 0.869891 0.525225 -0.145060
C18   C     C_R   0.606108 0.928008 0.532711 -0.260612
C19   C     C_R   0.619942 0.056244 0.522428 0.082483
C20   C     C_R   0.499047 0.126866 0.516168 -0.147311
C21   C     C_R   0.367583 0.067409 0.531195 0.122935
C22   C     C_3   0.267021 0.077011 0.478404 -0.480541
C23   C     C_R   0.501704 0.259201 0.501211 0.874043
C24   C     C_3   0.261701 0.935808 0.480921 -0.484941
C25   C     C_R   0.897224 0.583816 0.552915 0.197426
C26   C     C_R   0.964313 0.430120 0.438443 -0.151603
C27   C     C_R   0.108188 0.429177 0.438915 -0.130011
C28   C     C_R   0.039986 0.583826 0.552933 0.163890
C29   C     C_3   0.988981 0.594807 0.655217 -0.147894
C30   C     C_3   0.834621 0.593230 0.654998 -0.548233
C31   C     C_R   0.589872 0.497339 0.324602 0.874172
C32   C     C_R   0.357408 0.469887 0.774559 -0.048077
C33   C     C_R   0.644241 0.482925 0.224864 -0.059976
C34   C     C_R   0.185601 0.375932 0.911228 -0.227121
C35   C     C_R   0.221684 0.416974 0.820357 -0.215279
C36   C     C_R   0.455403 0.480265 0.819863 -0.267906
H1    H     H_    0.143301 0.313212 0.085992 0.148824
H2    H     H_    0.947594 0.514519 0.035432 0.148413
H3    H     H_    0.699217 0.872586 0.533163 0.174726
H4    H     H_    0.161634 0.122967 0.519651 0.207840
H5    H     H_    0.320104 0.114790 0.407736 0.203148
H6    H     H_    0.152871 0.900534 0.522679 0.192823
H7    H     H_    0.313161 0.891598 0.411849 0.211920
H8    H     H_    0.938748 0.373502 0.389250 0.156636
H9    H     H_    0.191051 0.370003 0.390949 0.139959
H10   H     H_    0.018729 0.510997 0.687702 0.172297
H11   H     H_    0.435061 0.434333 0.226244 0.154646
H12   H     H_    0.778536 0.506022 0.683237 0.194445
H13   H     H_    0.769535 0.680798 0.678997 0.199255
H14   H     H_    0.866535 0.530110 0.203177 0.160487
H15   H     H_    0.895350 0.472670 0.895918 0.138618
H16   H     H_    0.080157 0.335886 0.946079 0.142683
H17   H     H_    0.145335 0.404958 0.785533 0.144145
H18   H     H_    0.553875 0.530097 0.786431 0.148949
H19   H     H_    0.313189 0.336444 0.163698 0.140532
H20   H     H_    0.722985 0.439419 0.822271 0.146173
N1    N     N_R   0.856900 0.500860 0.500610 -0.102947
N2    N     N_R   0.142540 0.500820 0.500610 -0.112276
O1    O     O_R   0.385310 0.683210 0.499990 -0.621028
O2    O     O_R   0.614650 0.683240 0.500000 -0.618219
O3    O     O_R   0.319830 0.499970 0.632240 -0.627795
O4    O     O_R   0.549170 0.500000 0.632250 -0.616680
O5    O     O_R   0.385350 0.316760 0.500000 -0.613706
O6    O     O_R   0.614690 0.316790 0.500010 -0.626543
O7    O     O_R   0.450830 0.500000 0.367750 -0.617819
O8    O     O_R   0.680170 0.500030 0.367760 -0.619761
Zn1   Zn    Zn3+2 0.346870 0.499980 0.499990 0.930623
Zn2   Zn    Zn3+2 0.653130 0.500020 0.500010 0.932124
C37   C     C_3   0.774061 0.102547 0.498580 -0.370432
C38   C     C_3   0.849989 0.109546 0.393168 -0.320236
C39   C     C_3   0.015125 0.104534 0.364353 -0.934079
H21   H     H_    0.065847 0.122488 0.289258 0.251661
H22   H     H_    0.051814 0.175540 0.402236 0.259650
H23   H     H_    0.051787 0.010807 0.379128 0.275288
H24   H     H_    0.818269 0.029548 0.359505 0.225855
H25   H     H_    0.815569 0.196440 0.366867 0.222627
H26   H     H_    0.779354 0.191311 0.533335 0.218995
H27   H     H_    0.837099 0.036321 0.526060 0.182757
C40   C     C_3   0.031910 0.719109 0.686284 -0.359698
C41   C     C_3   0.979819 0.727576 0.791555 -0.352336
C42   C     C_3   0.019394 0.852186 0.822464 -0.872959
H28   H     H_    0.139083 0.863509 0.794418 0.261014
H29   H     H_    0.966588 0.930557 0.798370 0.259772
H30   H     H_    0.981410 0.855367 0.898905 0.254603
H31   H     H_    0.859962 0.717432 0.821523 0.238611
H32   H     H_    0.031854 0.651154 0.818121 0.221348
H33   H     H_    0.152244 0.725420 0.657984 0.225683
H34   H     H_    0.985882 0.799087 0.658977 0.192173

loop_
_geom_bond_atom_site_label_1
_geom_bond_atom_site_label_2
_ccdc_geom_bond_type
C8    C9    A    
C31   O8    A    
O8    Zn2   S    
C16   C21   A    
C35   H17   S    
C24   H6    S    
C37   H26   S    
C19   C20   A    
C9    H15   S    
C15   H11   S    
C6    H19   S    
C4    C8    A    
C8    H20   S    
C14   C33   A    
C40   H33   S    
C42   H28   S    
C26   H8    S    
C25   C28   A    
C26   C27   A    
C29   C30   S    
O6    Zn2   S    
C30   H12   S    
C28   C29   S    
C5    C11   A    
C3    C7    A    
C1    O1    A    
C5    C6    A    
C22   H5    S    
C34   C35   A    
C41   H32   S    
O1    Zn1   S    
C11   C15   A    
C16   C17   A    
O7    Zn1   S    
C31   C33   S    
C38   C39   S    
C9    C10   A    
C27   H9    S    
C23   O5    A    
C16   C24   S    
C21   C22   S    
C12   C32   S    
C37   H27   S    
C25   N1    A    
C40   H34   S    
C42   H29   S    
O5    Zn1   S    
C32   C35   A    
C1    O2    A    
C39   H22   S    
C18   C19   A    
C3    C34   A    
C27   N2    A    
C2    C4    A    
C18   H3    S    
C41   H31   S    
C12   O4    A    
O3    Zn1   S    
C29   C40   S    
C20   C23   S    
C22   H4    S    
C17   C18   A    
C7    H1    S    
C13   H2    S    
C23   O6    A    
C30   H13   S    
C38   H25   S    
C22   C24   S    
C19   C37   S    
N1    Zn2   S    
C32   C36   A    
C42   H30   S    
C2    C36   A    
C25   C30   S    
C31   O7    A    
C34   H16   S    
C41   C42   S    
C10   C13   A    
C39   H23   S    
C6    C7    A    
C28   N2    A    
C1    C17   S    
O4    Zn2   S    
C29   H10   S    
C2    C3    A    
C39   H21   S    
C12   O3    A    
C14   H14   S    
C37   C38   S    
C26   N1    A    
C36   H18   S    
C10   C11   A    
C40   C41   S    
N2    Zn1   S    
C4    C5    A    
C20   C21   A    
O2    Zn2   S    
C38   H24   S    
C24   H7    S    
C13   C14   A    
C15   C33   A    
