data_mof_unit_40418.cif
_audit_creation_date              2013-03-05T16:10:12-0500
_audit_creation_method            fapswitch 2.2
_symmetry_space_group_name_H-M    P1
_symmetry_Int_Tables_number       1
_space_group_crystal_system       triclinic
_cell_length_a                    15.441012
_cell_length_b                    7.390112
_cell_length_c                    13.067777
_cell_angle_alpha                 90.000938
_cell_angle_beta                  99.74656
_cell_angle_gamma                 89.997841
_cell_volume                      1469.65131338

loop_
_atom_site_label
_atom_site_type_symbol
_atom_site_description
_atom_site_fract_x
_atom_site_fract_y
_atom_site_fract_z
_atom_type_partial_charge
O1    O     O_R   0.648180 0.355050 0.151550 -0.541729
O2    O     O_R   0.351820 0.644950 0.848450 -0.541728
O3    O     O_R   0.851820 0.855050 0.348450 -0.541790
O4    O     O_R   0.148180 0.144950 0.651550 -0.541790
O5    O     O_R   0.835240 0.681980 0.154280 -0.528545
O6    O     O_R   0.164760 0.318020 0.845720 -0.528545
O7    O     O_R   0.664760 0.181980 0.345720 -0.528411
O8    O     O_R   0.335240 0.818020 0.654280 -0.528408
C1    C     C_R   0.858138 0.516661 0.126219 0.954285
C2    C     C_R   0.141862 0.483339 0.873781 0.954285
C3    C     C_R   0.641864 0.016664 0.373783 0.954292
C4    C     C_R   0.358136 0.983336 0.626217 0.954291
O9    O     O_R   0.647870 0.684600 0.139630 -0.536793
O10   O     O_R   0.352130 0.315400 0.860370 -0.536794
O11   O     O_R   0.852130 0.184600 0.360370 -0.536737
O12   O     O_R   0.147870 0.815400 0.639630 -0.536737
O13   O     O_R   0.663110 0.857440 0.333700 -0.589079
O14   O     O_R   0.336890 0.142560 0.666300 -0.589081
O15   O     O_R   0.836890 0.357440 0.166300 -0.589034
O16   O     O_R   0.163110 0.642560 0.833700 -0.589034
C5    C     C_R   0.614493 0.516475 0.114326 1.003146
C6    C     C_R   0.385507 0.483525 0.885674 1.003147
C7    C     C_R   0.885507 0.016472 0.385674 1.003016
C8    C     C_R   0.114493 0.983527 0.614326 1.003016
O17   O     O_3   0.755220 0.522230 0.313690 -0.252427
O18   O     O_3   0.244780 0.477770 0.686310 -0.252427
O19   O     O_3   0.744780 0.022230 0.186310 -0.252473
O20   O     O_3   0.255220 0.977770 0.813690 -0.252474
V1    V     V_3+5 0.749030 0.796100 0.238190 1.389376
V2    V     V_3+5 0.250970 0.203900 0.761810 1.389375
V3    V     V_3+5 0.750970 0.296100 0.261810 1.389459
V4    V     V_3+5 0.249030 0.703900 0.738190 1.389460
C9    C     C_1   0.966555 0.005979 0.466372 -0.002873
C10   C     C_1   0.033445 0.994020 0.533628 -0.002873
C11   C     C_1   0.533444 0.505981 0.033628 -0.003022
C12   C     C_1   0.466556 0.494019 0.966371 -0.003024
C13   C     C_R   0.537778 0.028568 0.720596 0.171072
C14   C     C_R   0.462222 0.971433 0.279404 0.171076
C15   C     C_R   0.962214 0.528551 0.779398 0.171207
C16   C     C_R   0.037786 0.471450 0.220602 0.171207
C17   C     C_R   0.617853 0.095337 0.770519 0.128352
C18   C     C_R   0.382147 0.904664 0.229480 0.128353
C19   C     C_R   0.882132 0.595314 0.729481 0.128423
C20   C     C_R   0.117868 0.404687 0.270519 0.128423
C21   C     C_R   0.686932 0.116168 0.715613 0.254236
C22   C     C_R   0.313068 0.883833 0.284386 0.254235
C23   C     C_R   0.813057 0.616149 0.784393 0.254182
C24   C     C_R   0.186943 0.383852 0.215608 0.254182
C25   C     C_R   0.671787 0.094400 0.606458 0.192337
C26   C     C_R   0.328213 0.905601 0.393541 0.192337
C27   C     C_R   0.828207 0.594371 0.893546 0.192363
C28   C     C_R   0.171793 0.405629 0.106454 0.192363
C29   C     C_R   0.586951 0.046156 0.550791 -0.067768
C30   C     C_R   0.413048 0.953845 0.449208 -0.067768
C31   C     C_R   0.913046 0.546134 0.949209 -0.067683
C32   C     C_R   0.086954 0.453866 0.050791 -0.067683
C33   C     C_R   0.517634 0.020733 0.609968 -0.046368
C34   C     C_R   0.482366 0.979268 0.390031 -0.046372
C35   C     C_R   0.982363 0.520719 0.890028 -0.046564
C36   C     C_R   0.017637 0.479281 0.109972 -0.046564
C37   C     C_R   0.570059 0.015407 0.440144 -0.131841
C38   C     C_R   0.429940 0.984594 0.559856 -0.131839
C39   C     C_R   0.929941 0.515396 0.059858 -0.131945
C40   C     C_R   0.070059 0.484604 0.940142 -0.131945
I1    I     I_    0.636885 0.125995 0.934658 -0.003339
I2    I     I_    0.363114 0.874005 0.065342 -0.003339
I3    I     I_    0.863099 0.626022 0.565344 -0.003306
I4    I     I_    0.136901 0.373979 0.434656 -0.003305
N1    N     N_R   0.489417 0.921843 0.782840 0.243155
O21   O     O_R   0.498232 0.746702 0.782467 -0.348074
O22   O     O_R   0.447836 0.997439 0.850204 -0.351162
N2    N     N_R   0.510583 0.078156 0.217159 0.243156
O23   O     O_R   0.501765 0.253293 0.217526 -0.348072
O24   O     O_R   0.552165 0.002558 0.149797 -0.351163
N3    N     N_R   0.010595 0.421914 0.717129 0.243176
O25   O     O_R   0.001623 0.246922 0.717202 -0.348039
O26   O     O_R   0.052213 0.497646 0.649866 -0.351179
N4    N     N_R   0.989405 0.578086 0.282871 0.243176
O27   O     O_R   0.998376 0.753078 0.282797 -0.348039
O28   O     O_R   0.947787 0.502354 0.350134 -0.351179
N5    N     N_R   0.225162 0.863197 0.227973 0.260907
O29   O     O_R   0.195589 0.971182 0.151564 -0.350970
O30   O     O_R   0.169348 0.760959 0.263786 -0.335573
N6    N     N_R   0.774837 0.136804 0.772027 0.260907
O31   O     O_R   0.804410 0.028818 0.848435 -0.350970
O32   O     O_R   0.830652 0.239041 0.736214 -0.335573
N7    N     N_R   0.274850 0.363182 0.272014 0.260913
O33   O     O_R   0.304429 0.471133 0.348437 -0.350926
O34   O     O_R   0.330659 0.260945 0.236181 -0.335560
N8    N     N_R   0.725150 0.636820 0.727986 0.260913
O35   O     O_R   0.695571 0.528869 0.651563 -0.350925
O36   O     O_R   0.669341 0.739056 0.763820 -0.335560
N9    N     N_R   0.743794 0.125355 0.553899 0.220596
O37   O     O_R   0.753382 0.285504 0.517026 -0.307960
O38   O     O_R   0.811739 0.020316 0.573251 -0.422949
N10   N     N_R   0.256206 0.874647 0.446101 0.220596
O39   O     O_R   0.246617 0.714497 0.482974 -0.307960
O40   O     O_R   0.188261 0.979685 0.426749 -0.422949
N11   N     N_R   0.756200 0.625314 0.946109 0.220586
O41   O     O_R   0.746599 0.785464 0.982978 -0.307977
O42   O     O_R   0.688263 0.520265 0.926755 -0.422986
N12   N     N_R   0.243800 0.374686 0.053892 0.220586
O43   O     O_R   0.253401 0.214535 0.017022 -0.307976
O44   O     O_R   0.311737 0.479735 0.073245 -0.422985

loop_
_geom_bond_atom_site_label_1
_geom_bond_atom_site_label_2
_geom_bond_distance
_ccdc_geom_bond_type
O17   V3    1.800417 S    
N7    O33   1.299222 A    
O1    C5    1.358162 A    
N9    O37   1.295767 A    
C16   C36   1.427540 A    
C31   C35   1.434997 A    
O19   V1    1.800433 S    
O13   V1    2.020875 S    
O3    C7    1.358167 A    
C11   C12   1.240829 T    
O15   V3    2.020906 S    
N5    O29   1.299212 A    
C33   C38   1.426006 A    
O7    C3    1.340137 A    
C28   N12   1.420870 S    
C35   C40   1.425990 A    
C26   C30   1.431657 A    
C36   C39   1.425991 A    
O9    V1    2.024006 S    
N6    O32   1.291993 A    
C14   C18   1.387374 A    
C13   N1    1.430734 S    
C30   C34   1.434979 A    
O4    C8    1.358168 A    
N4    O28   1.300035 A    
O1    V3    2.002665 S    
O2    V4    2.002662 S    
C18   C22   1.391177 A    
N1    O22   1.300222 A    
C14   C34   1.427505 A    
C29   C37   1.443134 A    
C1    O15   1.350826 A    
C2    O16   1.350825 A    
C7    C9    1.495803 S    
N10   O40   1.295111 A    
O2    C6    1.358163 A    
C32   C40   1.443149 A    
O14   V2    2.020874 S    
C15   N3    1.430735 S    
C16   C20   1.387384 A    
C34   C37   1.426006 A    
O11   C7    1.364175 A    
O12   C8    1.364174 A    
C13   C17   1.387373 A    
N12   O43   1.295768 A    
O10   V2    2.024005 S    
N5    O30   1.291992 A    
O5    V1    2.044436 S    
C27   N11   1.420872 S    
C14   N2    1.430733 S    
O7    V3    2.044493 S    
O8    V4    2.044490 S    
N6    O31   1.299212 A    
N2    O24   1.300216 A    
C29   C33   1.434979 A    
N4    O27   1.300635 A    
C15   C19   1.387384 A    
C30   C38   1.443134 A    
C8    C10   1.495803 S    
C32   C36   1.434997 A    
C31   C39   1.443149 A    
N3    O25   1.300633 A    
O5    C1    1.340125 A    
C22   N5    1.438873 S    
C4    C38   1.518865 S    
N8    O36   1.292006 A    
N11   O41   1.295768 A    
C21   C25   1.415018 A    
O8    C4    1.340137 A    
C15   C35   1.427540 A    
N10   O39   1.295767 A    
C9    C10   1.240829 T    
C24   N7    1.438877 S    
O9    C5    1.364187 A    
N12   O44   1.295109 A    
N3    O26   1.300035 A    
N11   O42   1.295108 A    
N7    O34   1.292003 A    
C23   N8    1.438877 S    
C16   N4    1.430735 S    
C20   I4    2.127225 S    
C21   N6    1.438873 S    
O16   V4    2.020908 S    
C3    O13   1.350817 A    
O6    V2    2.044436 S    
C1    C39   1.518846 S    
C2    C40   1.518848 S    
N2    O23   1.301518 A    
C3    C37   1.518863 S    
O6    C2    1.340125 A    
C23   C27   1.415012 A    
O11   V3    2.023974 S    
C5    C11   1.495806 S    
O12   V4    2.023975 S    
C6    C12   1.495807 S    
C22   C26   1.415019 A    
C26   N10   1.420879 S    
O10   C6    1.364186 A    
O20   V2    1.800433 S    
O3    V1    2.002679 S    
N8    O35   1.299222 A    
N9    O38   1.295112 A    
C25   C29   1.431658 A    
C27   C31   1.431652 A    
C17   I1    2.127193 S    
N1    O21   1.301539 A    
O4    V2    2.002680 S    
C28   C32   1.431652 A    
C24   C28   1.415013 A    
C19   I3    2.127225 S    
C4    O14   1.350817 A    
C18   I2    2.127193 S    
C17   C21   1.391179 A    
C25   N9    1.420879 S    
C19   C23   1.391165 A    
O18   V4    1.800417 S    
C13   C33   1.427504 A    
C20   C24   1.391166 A    
