data_mof_unit_53698.cif
_audit_creation_date              2012-12-11T14:25:04-0500
_audit_creation_method            fapswitch 2.2
_symmetry_space_group_name_H-M    P1
_symmetry_Int_Tables_number       1
_space_group_crystal_system       triclinic
_cell_length_a                    19.360245
_cell_length_b                    11.053444
_cell_length_c                    18.699206
_cell_angle_alpha                 89.670397
_cell_angle_beta                  92.105955
_cell_angle_gamma                 90.607823
_cell_volume                      3998.59581675

loop_
_atom_site_label
_atom_site_type_symbol
_atom_type_description
_atom_site_fract_x
_atom_site_fract_y
_atom_site_fract_z
_atom_type_partial_charge
C1    C     C_R   0.729167 0.379150 0.147272 0.547235
C2    C     C_R   0.244379 0.927069 0.075295 0.000012
C3    C     C_R   0.632236 0.528771 0.442043 -0.102005
C4    C     C_R   0.898008 0.114108 0.511954 -0.160386
C5    C     C_R   0.074936 0.059149 0.479995 -0.160744
C6    C     C_R   0.398012 0.614102 0.511950 -0.160388
C7    C     C_R   0.574936 0.559149 0.479996 -0.160744
C8    C     C_R   0.913535 0.080341 0.443142 -0.113491
C9    C     C_R   0.064789 0.011463 0.547650 -0.122834
C10   C     C_R   0.413537 0.580333 0.443137 -0.113488
C11   C     C_R   0.564790 0.511463 0.547651 -0.122833
C12   C     C_R   0.886546 0.973915 0.415453 -0.083473
C13   C     C_R   0.261893 0.418182 0.927655 -0.009612
C14   C     C_R   0.115817 0.940999 0.579899 -0.067513
C15   C     C_R   0.386547 0.473908 0.415451 -0.083473
C16   C     C_R   0.615817 0.440998 0.579900 -0.067513
C17   C     C_R   0.771524 0.880719 0.410326 0.003166
C18   C     C_R   0.238595 0.893866 0.582732 -0.004298
C19   C     C_R   0.271524 0.380717 0.410326 0.003165
C20   C     C_R   0.738595 0.393865 0.582732 -0.004299
C21   C     C_R   0.728716 0.375472 0.356836 0.535379
C22   C     C_R   0.286185 0.337003 0.637448 0.538566
C23   C     C_R   0.228716 0.875472 0.356836 0.535380
C24   C     C_R   0.744379 0.427069 0.075295 0.000012
C25   C     C_R   0.786185 0.837003 0.637448 0.538566
C26   C     C_R   0.559183 0.154299 0.361626 0.544465
C27   C     C_R   0.439927 0.152597 0.638083 0.533678
C28   C     C_R   0.059182 0.654299 0.361626 0.544465
C29   C     C_R   0.939928 0.652598 0.638083 0.533681
C30   C     C_R   0.746597 0.959074 0.349800 0.539261
C31   C     C_R   0.255255 0.963742 0.647527 0.527532
C32   C     C_R   0.246597 0.459074 0.349800 0.539260
C33   C     C_R   0.755255 0.463742 0.647527 0.527532
C34   C     C_3   0.549591 0.210403 0.955161 -0.110820
C35   C     C_R   0.698691 0.891923 0.957405 -0.017562
C36   C     C_3   0.516977 0.274252 0.018809 -0.092308
C37   C     C_3   0.049591 0.710403 0.955161 -0.110820
C38   C     C_3   0.016977 0.774252 0.018809 -0.092308
C39   C     C_3   0.563465 0.098269 0.002156 -0.140766
C40   C     C_3   0.445152 0.220350 0.996243 -0.121277
C41   C     C_3   0.063464 0.598269 0.002156 -0.140765
C42   C     C_3   0.945152 0.720349 0.996243 -0.121277
C43   C     C_3   0.530132 0.161003 0.064404 0.054870
C44   C     C_3   0.478555 0.157536 0.934166 0.045649
C45   C     C_3   0.030132 0.661003 0.064404 0.054870
C46   C     C_R   0.303153 0.887292 0.042369 -0.009870
C47   C     C_3   0.978555 0.657536 0.934166 0.045650
C48   C     C_2   0.887787 0.995230 0.945872 0.269455
C49   C     C_2   0.134987 0.049343 0.066000 0.274697
C50   C     C_2   0.387787 0.495230 0.945872 0.269455
C51   C     C_2   0.634987 0.549343 0.066000 0.274697
C52   C     C_R   0.198691 0.391923 0.957405 -0.017562
C53   C     C_R   0.803153 0.387292 0.042369 -0.009870
C54   C     C_R   0.694413 0.881574 0.032424 -0.014549
C55   C     C_R   0.302680 0.874606 0.967201 -0.015602
C56   C     C_R   0.194413 0.381574 0.032424 -0.014549
C57   C     C_R   0.272799 0.375870 0.854232 0.544327
C58   C     C_R   0.802680 0.374606 0.967201 -0.015602
C59   C     C_R   0.816338 0.938450 0.047623 0.022115
C60   C     C_R   0.186630 0.961645 0.958768 0.020819
C61   C     C_R   0.316338 0.438450 0.047623 0.022115
C62   C     C_R   0.686630 0.461645 0.958768 0.020819
C63   C     C_R   0.820376 0.951270 0.973299 -0.010182
C64   C     C_R   0.189270 0.977042 0.032922 0.007548
C65   C     C_R   0.320376 0.451270 0.973299 -0.010181
C66   C     C_R   0.689269 0.477042 0.032922 0.007548
C67   C     C_R   0.639088 0.872910 0.912947 -0.069124
C68   C     C_R   0.229167 0.879150 0.147272 0.547235
C69   C     C_R   0.361730 0.854378 0.084219 -0.079382
C70   C     C_R   0.139088 0.372910 0.912947 -0.069124
C71   C     C_R   0.861730 0.354378 0.084219 -0.079382
C72   C     C_R   0.082387 0.314972 0.939471 -0.105283
C73   C     C_R   0.912149 0.285983 0.055686 -0.117478
C74   C     C_R   0.582387 0.814972 0.939471 -0.105283
C75   C     C_R   0.412149 0.785983 0.055686 -0.117477
C76   C     C_R   0.580367 0.793277 0.012243 -0.123011
C77   C     C_R   0.410257 0.764360 0.982719 -0.115111
C78   C     C_R   0.080367 0.293277 0.012243 -0.123011
C79   C     C_R   0.772799 0.875870 0.854232 0.544327
C80   C     C_R   0.910257 0.264360 0.982719 -0.115111
C81   C     C_R   0.632406 0.835011 0.058798 -0.051021
C82   C     C_R   0.357311 0.810423 0.938132 -0.060332
C83   C     C_R   0.132406 0.335011 0.058798 -0.051021
C84   C     C_R   0.857311 0.310423 0.938132 -0.060332
C85   C     C_R   0.558814 0.152277 0.137351 0.557378
C86   C     C_R   0.446490 0.151521 0.862715 0.556964
C87   C     C_R   0.058814 0.652277 0.137351 0.557378
C88   C     C_R   0.946490 0.651521 0.862715 0.556964
C89   C     C_R   0.751696 0.916472 0.077639 0.014594
C90   C     C_3   0.459098 0.107834 0.042888 -0.091663
C91   C     C_R   0.246720 0.921712 0.924535 -0.009816
C92   C     C_R   0.251696 0.416472 0.077639 0.014594
C93   C     C_R   0.746720 0.421712 0.924535 -0.009816
C94   C     C_R   0.464363 0.153555 0.564036 -0.004187
C95   C     C_R   0.534202 0.160691 0.434825 -0.001815
C96   C     C_R   0.964363 0.653555 0.564036 -0.004187
C97   C     C_R   0.034201 0.660692 0.434824 -0.001814
C98   C     C_R   0.489318 0.045537 0.533245 0.049525
C99   C     C_R   0.534931 0.055831 0.477305 0.026400
C100  C     C_R   0.989318 0.545537 0.533245 0.049524
C101  C     C_3   0.492069 0.044760 0.979873 -0.105914
C102  C     C_R   0.034931 0.555832 0.477305 0.026400
C103  C     C_R   0.503252 0.265099 0.460597 -0.134503
C104  C     C_R   0.471725 0.262819 0.526671 -0.157279
C105  C     C_R   0.003250 0.765099 0.460597 -0.134502
C106  C     C_R   0.971724 0.762819 0.526670 -0.157279
C107  C     C_R   0.476093 0.927766 0.559999 -0.083277
C108  C     C_R   0.580487 0.960663 0.465927 -0.089516
C109  C     C_R   0.976093 0.427766 0.559999 -0.083277
C110  C     C_R   0.080487 0.460664 0.465927 -0.089515
C111  C     C_R   0.022608 0.336058 0.550499 -0.131123
C112  C     C_3   0.959098 0.607834 0.042888 -0.091663
C113  C     C_R   0.074866 0.353316 0.503780 -0.121681
C114  C     C_R   0.522609 0.836058 0.550498 -0.131122
C115  C     C_R   0.574866 0.853315 0.503779 -0.121681
C116  C     C_R   0.778699 0.856227 0.559253 -0.006498
C117  C     C_R   0.238744 0.902800 0.433490 -0.001065
C118  C     C_R   0.278700 0.356225 0.559253 -0.006498
C119  C     C_R   0.738744 0.402799 0.433490 -0.001065
C120  C     C_R   0.822685 0.938120 0.522760 0.023082
C121  C     C_R   0.182722 0.950664 0.471994 0.032411
C122  C     C_R   0.322687 0.438116 0.522758 0.023082
C123  C     C_3   0.992069 0.544759 0.979873 -0.105914
C124  C     C_R   0.682722 0.450663 0.471994 0.032411
C125  C     C_R   0.830648 0.919770 0.449507 0.037433
C126  C     C_R   0.177786 0.921706 0.544685 0.027431
C127  C     C_R   0.330649 0.419766 0.449506 0.037434
C128  C     C_R   0.677786 0.421705 0.544685 0.027431
C129  C     C_R   0.728825 0.796840 0.443205 -0.171890
C130  C     C_R   0.293086 0.844209 0.546450 -0.153600
C131  C     C_R   0.228824 0.296840 0.443205 -0.171890
C132  C     C_R   0.793086 0.344209 0.546450 -0.153600
C133  C     C_R   0.741445 0.968052 0.149097 0.563099
C134  C     C_R   0.761893 0.918182 0.927655 -0.009612
C135  C     C_R   0.258020 0.968763 0.851368 0.550520
C136  C     C_R   0.241445 0.468052 0.149097 0.563099
C137  C     C_R   0.758020 0.468763 0.851368 0.550520
C138  C     C_R   0.737274 0.776255 0.517443 -0.168717
C139  C     C_R   0.292901 0.846730 0.472078 -0.148280
C140  C     C_R   0.237274 0.276255 0.517443 -0.168716
C141  C     C_R   0.792901 0.346731 0.472078 -0.148280
C142  C     C_R   0.854752 0.042584 0.552833 -0.099458
C143  C     C_R   0.132236 0.028772 0.442042 -0.102003
C144  C     C_R   0.354756 0.542579 0.552831 -0.099466
Cr1   Cr    Cr6+3 0.772820 0.169820 0.252640 1.030030
Cr2   Cr    Cr6+3 0.383280 0.011130 0.749340 0.995711
Cr3   Cr    Cr6+3 0.116720 0.511130 0.250660 1.007023
Cr4   Cr    Cr6+3 0.883280 0.511130 0.749340 0.995710
Cr5   Cr    Cr6+3 0.227180 0.169820 0.747360 1.039488
Cr6   Cr    Cr6+3 0.272820 0.669820 0.252640 1.030030
Cr7   Cr    Cr6+3 0.727180 0.669820 0.747360 1.039488
Cr8   Cr    Cr6+3 0.615040 0.323610 0.249150 1.057700
Cr9   Cr    Cr6+3 0.384960 0.323610 0.750850 1.061727
Cr10  Cr    Cr6+3 0.115040 0.823610 0.249150 1.057701
Cr11  Cr    Cr6+3 0.884960 0.823610 0.750850 1.061728
Cr12  Cr    Cr6+3 0.616720 0.011130 0.250660 1.007022
H1    H     H_    0.615263 0.059702 0.007017 0.125726
H2    H     H_    0.622244 0.971464 0.430727 0.153968
H3    H     H_    0.932834 0.406513 0.592145 0.143845
H4    H     H_    0.122244 0.471466 0.430728 0.153967
H5    H     H_    0.018514 0.251960 0.579771 0.110894
H6    H     H_    0.108928 0.281163 0.495456 0.122717
H7    H     H_    0.518514 0.751959 0.579771 0.110893
H8    H     H_    0.608928 0.781162 0.495455 0.122717
H9    H     H_    0.687370 0.754455 0.412266 0.114812
H10   H     H_    0.336769 0.809717 0.576668 0.113610
H11   H     H_    0.187369 0.254457 0.412267 0.114812
H12   H     H_    0.393455 0.260265 0.991228 0.117325
H13   H     H_    0.836770 0.309719 0.576668 0.113609
H14   H     H_    0.841740 0.078776 0.603966 0.158934
H15   H     H_    0.137758 0.073298 0.391049 0.144390
H16   H     H_    0.341749 0.578770 0.603964 0.158936
H17   H     H_    0.637757 0.573297 0.391050 0.144390
H18   H     H_    0.707424 0.705855 0.542841 0.153248
H19   H     H_    0.335251 0.806951 0.444704 0.150484
H20   H     H_    0.207423 0.205856 0.542841 0.153248
H21   H     H_    0.835251 0.306953 0.444704 0.150485
H22   H     H_    0.917374 0.197875 0.532662 0.097152
H23   H     H_    0.115263 0.559702 0.007017 0.125726
H24   H     H_    0.040734 0.124941 0.457361 0.113781
H25   H     H_    0.417378 0.697869 0.532656 0.097154
H26   H     H_    0.540734 0.624941 0.457362 0.113781
H27   H     H_    0.941948 0.140478 0.408931 0.113044
H28   H     H_    0.019565 0.034082 0.576774 0.121370
H29   H     H_    0.441950 0.640469 0.408925 0.113044
H30   H     H_    0.519566 0.534083 0.576776 0.121368
H31   H     H_    0.897895 0.950320 0.360935 0.144855
H32   H     H_    0.109564 0.910019 0.634402 0.144679
H33   H     H_    0.397894 0.450312 0.360932 0.144856
H34   H     H_    0.893455 0.760265 0.991228 0.117325
H35   H     H_    0.609564 0.410018 0.634403 0.144679
H36   H     H_    0.587531 0.243758 0.916639 0.157967
H37   H     H_    0.529544 0.366953 0.036702 0.142904
H38   H     H_    0.087531 0.743758 0.916639 0.157967
H39   H     H_    0.029544 0.866953 0.036702 0.142903
H40   H     H_    0.422389 0.070045 0.081331 0.141133
H41   H     H_    0.479464 0.954229 0.959593 0.143871
H42   H     H_    0.922389 0.570045 0.081331 0.141133
H43   H     H_    0.979464 0.454229 0.959593 0.143871
H44   H     H_    0.636831 0.897968 0.856906 0.144212
H45   H     H_    0.504776 0.348504 0.430344 0.156089
H46   H     H_    0.368191 0.878535 0.140093 0.138145
H47   H     H_    0.136831 0.397968 0.856906 0.144212
H48   H     H_    0.868191 0.378535 0.140093 0.138145
H49   H     H_    0.040332 0.288120 0.903230 0.137414
H50   H     H_    0.951514 0.249553 0.091703 0.133214
H51   H     H_    0.540332 0.788120 0.903230 0.137414
H52   H     H_    0.451514 0.749553 0.091703 0.133214
H53   H     H_    0.040223 0.239682 0.033341 0.108833
H54   H     H_    0.950693 0.212907 0.960290 0.156874
H55   H     H_    0.540223 0.739682 0.033341 0.108833
H56   H     H_    0.452753 0.345813 0.548431 0.146100
H57   H     H_    0.450693 0.712907 0.960290 0.156874
H58   H     H_    0.624815 0.817415 0.114470 0.202098
H59   H     H_    0.357577 0.787422 0.882161 0.184726
H60   H     H_    0.124815 0.317415 0.114470 0.202098
H61   H     H_    0.857577 0.287423 0.882161 0.184726
H62   H     H_    0.936347 0.970323 0.971561 0.132091
H63   H     H_    0.082243 0.048820 0.045464 0.115282
H64   H     H_    0.436347 0.470323 0.971561 0.132091
H65   H     H_    0.582243 0.548820 0.045464 0.115282
H66   H     H_    0.004773 0.848504 0.430343 0.156087
H67   H     H_    0.952750 0.845813 0.548430 0.146099
H68   H     H_    0.432834 0.906513 0.592145 0.143844
I1    I     I_    0.909961 0.948289 0.116011 -0.421131
I2    I     I_    0.089235 0.001446 0.900859 -0.425703
I3    I     I_    0.409961 0.448289 0.116011 -0.421131
I4    I     I_    0.589235 0.501446 0.900859 -0.425703
O1    O     O_R   0.788190 0.043000 0.172520 -0.468183
O2    O     O_R   0.454170 0.051610 0.669840 -0.513960
O3    O     O_R   0.045830 0.551610 0.330160 -0.507643
O4    O     O_R   0.954170 0.551610 0.669840 -0.513961
O5    O     O_R   0.681920 0.959720 0.327070 -0.531379
O6    O     O_R   0.318080 0.959720 0.672930 -0.531004
O7    O     O_R   0.181920 0.459720 0.327070 -0.531378
O8    O     O_R   0.818080 0.459720 0.672930 -0.531004
O9    O     O_3   0.668190 0.168190 0.250820 -0.299005
O10   O     O_3   0.331810 0.168190 0.749180 -0.312199
O11   O     O_3   0.168190 0.668190 0.250820 -0.299004
O12   O     O_R   0.211810 0.043000 0.827480 -0.461143
O13   O     O_3   0.831810 0.668190 0.749180 -0.312199
O14   O     O_R   0.766240 0.292300 0.176860 -0.511969
O15   O     O_R   0.233760 0.292300 0.823140 -0.500270
O16   O     O_R   0.266240 0.792300 0.176860 -0.511969
O17   O     O_R   0.733760 0.792300 0.823140 -0.500270
O18   O     O_R   0.670310 0.409160 0.168720 -0.467073
O19   O     O_R   0.329690 0.409160 0.831280 -0.453047
O20   O     O_R   0.170310 0.909160 0.168720 -0.467073
O21   O     O_R   0.829690 0.909160 0.831280 -0.453047
O22   O     O_R   0.556160 0.251900 0.173380 -0.472500
O23   O     O_R   0.288190 0.543000 0.172520 -0.468184
O24   O     O_R   0.443840 0.251900 0.826620 -0.471081
O25   O     O_R   0.056160 0.751900 0.173380 -0.472500
O26   O     O_R   0.943840 0.751900 0.826620 -0.471081
O27   O     O_R   0.545410 0.050140 0.168240 -0.520291
O28   O     O_R   0.454590 0.050140 0.831760 -0.520453
O29   O     O_R   0.045410 0.550140 0.168240 -0.520291
O30   O     O_R   0.954590 0.550140 0.831760 -0.520453
O31   O     O_R   0.681530 0.958350 0.176970 -0.540459
O32   O     O_R   0.318470 0.958350 0.823030 -0.532978
O33   O     O_R   0.181530 0.458350 0.176970 -0.540459
O34   O     O_R   0.711810 0.543000 0.827480 -0.461143
O35   O     O_R   0.818470 0.458350 0.823030 -0.532978
O36   O     O_R   0.788610 0.044480 0.334450 -0.510594
O37   O     O_R   0.211390 0.044480 0.665550 -0.523802
O38   O     O_R   0.288610 0.544480 0.334450 -0.510594
O39   O     O_R   0.711390 0.544480 0.665550 -0.523801
O40   O     O_R   0.766630 0.293670 0.326970 -0.498847
O41   O     O_R   0.233370 0.293670 0.673030 -0.488062
O42   O     O_R   0.266630 0.793670 0.326970 -0.498847
O43   O     O_R   0.733370 0.793670 0.673030 -0.488062
O44   O     O_R   0.670730 0.410640 0.330640 -0.530393
O45   O     O_R   0.556550 0.253260 0.323480 -0.492420
O46   O     O_R   0.329270 0.410640 0.669360 -0.535516
O47   O     O_R   0.170730 0.910640 0.330640 -0.530393
O48   O     O_R   0.829270 0.910640 0.669360 -0.535515
O49   O     O_2   0.890192 0.064274 0.894895 -0.506195
O50   O     O_2   0.149226 0.110374 0.118756 -0.517840
O51   O     O_2   0.390192 0.564274 0.894895 -0.506195
O52   O     O_2   0.649226 0.610374 0.118756 -0.517840
O53   O     O_R   0.443450 0.253260 0.676520 -0.501625
O54   O     O_R   0.056550 0.753260 0.323480 -0.492420
O55   O     O_R   0.943450 0.753260 0.676520 -0.501625
O56   O     O_R   0.545830 0.051610 0.330160 -0.507643

loop_
_geom_bond_atom_site_label_1
_geom_bond_atom_site_label_2
_ccdc_geom_bond_type
C73   H50   S    
Cr2   O6    S    
C111  H5    S    
Cr10  O54   S    
Cr5   O37   S    
C57   O19   A    
C114  C115  A    
C28   O54   A    
C135  O32   A    
C61   I3    S    
C45   C87   S    
C4    C142  A    
C95   C99   A    
C5    C143  A    
C105  H66   S    
C10   H29   S    
C38   H39   S    
C38   C45   S    
C131  C140  A    
C23   O47   A    
C46   C55   A    
C138  H18   S    
C142  H14   S    
C97   C105  A    
C137  O34   A    
C94   C104  A    
C100  C109  A    
C15   C127  A    
C17   C30   S    
C117  C139  A    
C20   C132  A    
C118  C140  A    
C19   C32   S    
C35   C134  A    
C112  H42   S    
C31   O6    A    
C85   O27   A    
C43   C85   S    
C67   H44   S    
C71   C73   A    
C120  C125  A    
C48   C63   S    
C17   C129  A    
C51   C66   S    
C103  H45   S    
Cr7   O17   S    
C37   C38   S    
C42   H34   S    
C47   C123  S    
C53   C58   A    
Cr1   O36   S    
C34   C44   S    
C111  C113  A    
C67   C74   A    
C33   O8    A    
C20   C33   S    
C119  C141  A    
C18   C130  A    
C53   C71   A    
C56   C83   A    
C80   H54   S    
C22   C118  S    
C136  O33   A    
C29   O4    A    
Cr11  O48   S    
C44   C101  S    
Cr12  O9    S    
C59   C63   A    
C14   C126  A    
C60   C64   A    
C34   H36   S    
C21   C119  S    
C9    H28   S    
C77   C82   A    
C51   H65   S    
C50   O51   D    
Cr1   O40   S    
C60   I2    S    
C30   O5    A    
Cr11  O55   S    
Cr5   O41   S    
C82   H59   S    
C61   C65   A    
Cr6   O11   S    
C62   C93   A    
C41   C45   S    
C18   C31   S    
C54   C81   A    
C21   O44   A    
Cr10  O25   S    
C28   C97   S    
C23   O42   A    
Cr2   O32   S    
C87   O29   A    
Cr8   O22   S    
C83   H60   S    
Cr11  O21   S    
C68   O20   A    
C99   C108  A    
C74   C76   A    
C49   H63   S    
C108  C115  A    
C123  H43   S    
C25   O48   A    
C2    C68   S    
C109  C111  A    
C93   C137  S    
C101  H41   S    
C13   C57   S    
C86   O28   A    
C118  C122  A    
C122  C127  A    
C42   C112  S    
C72   C78   A    
Cr7   O34   S    
Cr8   O9    S    
Cr2   O10   S    
C37   C47   S    
C26   O56   A    
C15   H33   S    
C131  H11   S    
C69   H46   S    
C49   C64   S    
Cr3   O3    S    
C95   C103  A    
C74   H51   S    
C71   H48   S    
C89   C133  S    
C62   C66   A    
C34   C39   S    
C25   C116  S    
C12   H31   S    
C116  C120  A    
C5    C9    A    
C16   H35   S    
Cr7   O13   S    
C106  H67   S    
C78   H53   S    
C35   C67   A    
C8    C12   A    
C75   C77   A    
C25   O43   A    
C8    H27   S    
C98   C99   A    
C104  H56   S    
C6    C144  A    
C109  H3    S    
C110  H4    S    
C22   O41   A    
C107  H68   S    
C132  C141  A    
C79   C134  S    
Cr1   O1    S    
C41   H23   S    
C4    H22   S    
C27   C94   S    
C23   C117  S    
C29   C96   S    
C61   C92   A    
Cr3   O11   S    
C18   C126  A    
C62   I4    S    
C96   C100  A    
Cr1   O14   S    
C34   C36   S    
C37   C41   S    
C50   C65   S    
C1    O14   A    
C40   C44   S    
C90   H40   S    
C24   C66   A    
C1    C24   S    
C31   O37   A    
C11   H30   S    
C80   C84   A    
C77   H57   S    
C48   H62   S    
C48   O49   D    
Cr9   O10   S    
C141  H21   S    
C79   O17   A    
C58   C93   A    
C3    C7    A    
Cr8   O45   S    
Cr11  O26   S    
C94   C98   A    
C135  O12   A    
C55   C91   A    
C21   O40   A    
C78   C83   A    
Cr4   O4    S    
Cr6   O38   S    
Cr8   O18   S    
C97   C102  A    
Cr12  O27   S    
C88   O30   A    
C124  C128  A    
Cr12  O31   S    
Cr6   O16   S    
C35   C54   A    
Cr6   O42   S    
C92   C136  S    
C130  C139  A    
C86   O24   A    
Cr9   O24   S    
C43   C90   S    
C63   C134  A    
C112  C123  S    
Cr12  O56   S    
C88   O26   A    
C12   C125  A    
C24   C53   A    
C98   C107  A    
Cr3   O29   S    
C9    C14   A    
C5    H24   S    
C26   O45   A    
C13   C52   A    
C14   H32   S    
C75   H52   S    
C130  H10   S    
C27   O2    A    
Cr5   O10   S    
Cr11  O13   S    
Cr7   O39   S    
C102  C110  A    
C132  H13   S    
C3    C124  A    
C70   H47   S    
C6    C10   A    
C38   C42   S    
C72   H49   S    
C105  C106  A    
C144  H16   S    
C129  H9    S    
C1    O18   A    
C37   H38   S    
C143  H15   S    
C57   O15   A    
Cr9   O19   S    
C50   H64   S    
C51   O52   D    
C69   C75   A    
C59   I1    S    
C133  O1    A    
C84   H61   S    
C133  O31   A    
C91   C135  S    
C103  C104  A    
C36   C43   S    
C40   C90   S    
C22   O46   A    
C140  H20   S    
C32   O7    A    
Cr3   O7    S    
C121  C143  A    
C139  H19   S    
C122  C144  A    
C4    C8    A    
C17   C125  A    
C45   C112  S    
Cr6   O23   S    
C107  C114  A    
C13   C65   A    
C119  C124  A    
C2    C46   A    
C7    C11   A    
C33   O39   A    
C68   O16   A    
C20   C128  A    
C10   C15   A    
C59   C89   A    
C108  H2    S    
Cr5   O12   S    
C11   C16   A    
C115  H8    S    
C117  C121  A    
C36   H37   S    
C46   C69   A    
C113  H6    S    
C3    H17   S    
C129  C138  A    
Cr1   O9    S    
C136  O23   A    
C32   O38   A    
Cr9   O46   S    
Cr5   O15   S    
C85   O22   A    
C39   H1    S    
C79   O21   A    
C44   C86   S    
C2    C64   A    
C39   C101  S    
C116  C138  A    
C19   C131  A    
C6    H25   S    
Cr9   O53   S    
C36   C40   S    
C120  C142  A    
C54   C89   A    
C87   O25   A    
C39   C43   S    
Cr10  O11   S    
Cr4   O8    S    
C90   C101  S    
C58   C84   A    
C81   H58   S    
Cr12  O5    S    
C29   O55   A    
C100  C102  A    
C55   C82   A    
C16   C128  A    
C28   O3    A    
C76   H55   S    
Cr10  O20   S    
Cr4   O13   S    
Cr3   O33   S    
C137  O35   A    
Cr2   O2    S    
C60   C91   A    
C26   C95   S    
C96   C106  A    
C7    H26   S    
Cr2   O28   S    
Cr4   O30   S    
C76   C81   A    
C27   O53   A    
C47   C88   S    
C41   C123  S    
C121  C126  A    
Cr7   O43   S    
C114  H7    S    
C49   O50   D    
Cr8   O44   S    
C19   C127  A    
C73   C80   A    
C30   O36   A    
C42   C47   S    
Cr4   O35   S    
Cr10  O47   S    
C40   H12   S    
C52   C70   A    
C56   C92   A    
C110  C113  A    
C70   C72   A    
C52   C56   A    
