data_mof_unit_50124.cif
_audit_creation_date              2012-12-11T20:41:07-0500
_audit_creation_method            fapswitch 2.2
_symmetry_space_group_name_H-M    P1
_symmetry_Int_Tables_number       1
_space_group_crystal_system       triclinic
_cell_length_a                    8.231645
_cell_length_b                    18.820756
_cell_length_c                    27.024786
_cell_angle_alpha                 96.638983
_cell_angle_beta                  92.895826
_cell_angle_gamma                 86.442996
_cell_volume                      4146.77939022

loop_
_atom_site_label
_atom_site_type_symbol
_atom_type_description
_atom_site_fract_x
_atom_site_fract_y
_atom_site_fract_z
_atom_type_partial_charge
Ba1   Ba    Ba6+2 0.852670 0.466460 0.522850 1.669882
Ba2   Ba    Ba6+2 0.337150 0.533490 0.477140 1.659164
C1    C     C_3   0.692230 0.201879 0.659496 -0.360665
C2    C     C_R   0.967663 0.575431 0.182286 0.592031
C3    C     C_2   0.766743 0.553697 0.271112 -0.130132
C4    C     C_3   0.154066 0.263522 0.652872 0.321359
C5    C     C_3   0.744217 0.571656 0.327120 -0.047495
C6    C     C_1   0.976122 0.486608 0.341734 0.031777
C7    C     C_2   0.017394 0.483327 0.294328 -0.057481
C8    C     C_2   0.906829 0.516391 0.255792 0.168287
C9    C     C_R   0.021583 0.507554 0.101654 -0.087537
C10   C     C_R   0.015455 0.443914 0.124428 -0.047908
C11   C     C_R   0.041012 0.377812 0.095428 -0.044371
C12   C     C_3   0.644590 0.273936 0.641073 0.385057
C13   C     C_R   0.992982 0.574433 0.130477 -0.030669
C14   C     C_2   0.840405 0.520619 0.358124 -0.297805
C15   C     C_2   0.343386 0.475126 0.639926 -0.254718
C16   C     C_3   0.093722 0.241148 0.700716 -0.303023
C17   C     C_R   0.096849 0.433679 0.968175 0.021225
C18   C     C_R   0.118314 0.564384 0.977340 0.026507
C19   C     C_R   0.124214 0.497481 0.947147 0.052201
C20   C     C_R   0.091803 0.369124 0.935752 -0.090113
C21   C     C_R   0.118912 0.367025 0.885076 -0.046751
C22   C     C_R   0.154465 0.428949 0.864426 -0.012745
C23   C     C_3   0.526505 0.633251 0.629002 0.287119
C24   C     C_R   0.157730 0.494370 0.895429 -0.071551
C25   C     C_R   0.194292 0.556677 0.874739 -0.030837
C26   C     C_R   0.231903 0.552305 0.823836 0.636587
C27   C     C_R   0.187655 0.426656 0.813416 0.636487
C28   C     C_3   0.182401 0.318509 0.418721 0.308788
C29   C     C_2   0.417594 0.443114 0.727183 -0.088908
C30   C     C_3   0.440500 0.425254 0.671356 -0.135422
C31   C     C_1   0.211638 0.511491 0.657002 0.040729
C32   C     C_2   0.171296 0.516207 0.704356 -0.094650
C33   C     C_2   0.279967 0.482325 0.742455 0.238213
C34   C     C_3   0.529445 0.649387 0.685466 -0.344528
C35   C     C_R   0.073715 0.436564 0.020510 0.021226
C36   C     C_R   0.056277 0.504038 0.049931 0.055567
C37   C     C_R   0.073078 0.567953 0.027993 0.030998
C38   C     C_R   0.068448 0.374096 0.044713 -0.093642
C39   C     C_R   0.992550 0.637860 0.106380 -0.029063
C40   C     C_3   0.204101 0.237648 0.406613 -0.360329
C41   C     C_R   0.158918 0.625625 0.955686 -0.091715
C42   C     C_R   0.195957 0.621735 0.905637 -0.055123
C43   C     C_R   0.037716 0.633811 0.056890 -0.140051
C44   C     C_2   0.415226 0.302605 0.523188 -0.249977
C45   C     C_3   0.027077 0.718012 0.344122 0.308281
C46   C     C_3   0.334595 0.255711 0.554914 -0.075744
C47   C     C_2   0.372918 0.176555 0.541267 -0.124211
C48   C     C_2   0.498367 0.153342 0.511876 -0.072226
C49   C     C_2   0.586407 0.207592 0.488845 -0.128915
C50   C     C_1   0.534526 0.276120 0.494306 0.075256
C51   C     C_R   0.652916 0.934286 0.494351 0.461481
C52   C     C_3   0.014485 0.684010 0.584165 0.307806
C53   C     C_R   0.551355 0.075765 0.504376 0.462791
C54   C     C_R   0.617433 0.808494 0.512124 -0.128473
C55   C     C_R   0.666217 0.735752 0.508412 0.030717
C56   C     C_3   0.920585 0.780869 0.327032 -0.340055
C57   C     C_R   0.898157 0.757254 0.462242 0.014644
C58   C     C_R   0.851347 0.830783 0.465866 -0.149257
C59   C     C_R   0.707416 0.856954 0.489999 -0.063775
C60   C     C_R   0.800934 0.710099 0.481419 -0.272938
C61   C     C_3   0.005440 0.764810 0.597939 -0.373800
C62   C     C_3   0.639740 0.367258 0.366100 0.241534
C63   C     C_3   0.566377 0.343979 0.314010 -0.245195
C64   C     C_2   0.613957 0.389432 0.275985 0.443619
C65   C     C_2   0.118582 0.679893 0.301454 0.719159
C66   C     C_2   0.534481 0.409994 0.762823 0.549859
C67   C     C_3   0.533251 0.728702 0.372557 0.395601
C68   C     C_2   0.645660 0.580138 0.233750 0.606567
C69   C     C_2   0.936566 0.710046 0.129406 0.626901
C70   C     C_3   0.499197 0.803282 0.356520 -0.294770
C71   C     C_R   0.982454 0.447342 0.175630 0.621839
H1    H     H_    0.659411 0.268807 0.600161 0.053617
H2    H     H_    0.772255 0.373674 0.364180 0.006239
H3    H     H_    0.578032 0.418768 0.381232 0.049131
H4    H     H_    0.811222 0.180581 0.645073 0.146403
H5    H     H_    0.607165 0.287257 0.302425 0.149261
H6    H     H_    0.431353 0.346750 0.315170 0.085834
H7    H     H_    0.514361 0.286217 0.649299 -0.113503
H8    H     H_    0.599699 0.162970 0.645607 0.072661
H9    H     H_    0.400577 0.621310 0.615605 0.014849
H10   H     H_    0.609906 0.585484 0.619488 0.070527
H11   H     H_    0.443389 0.695677 0.696420 0.137395
H12   H     H_    0.295493 0.224118 0.377637 0.125770
H13   H     H_    0.492852 0.602062 0.702317 0.082175
H14   H     H_    0.654302 0.662091 0.699881 0.132541
H15   H     H_    0.698723 0.207270 0.700898 0.113117
H16   H     H_    0.193550 0.244334 0.729946 0.112958
H17   H     H_    0.946237 0.678993 0.356600 -0.139053
H18   H     H_    0.996287 0.820156 0.312635 0.153549
H19   H     H_    0.830951 0.761190 0.297239 0.127015
H20   H     H_    0.853914 0.808946 0.358861 0.079303
H21   H     H_    0.667336 0.717527 0.374613 -0.094866
H22   H     H_    0.484899 0.728240 0.410137 0.063782
H23   H     H_    0.246406 0.212710 0.440511 0.073888
H24   H     H_    0.560934 0.843227 0.383325 0.048377
H25   H     H_    0.366560 0.817763 0.355474 0.163751
H26   H     H_    0.187891 0.320268 0.660130 0.019146
H27   H     H_    0.545198 0.805157 0.318810 0.144133
H28   H     H_    0.132289 0.456452 0.282974 0.104225
H29   H     H_    0.038783 0.328056 0.111874 0.131391
H30   H     H_    0.113355 0.316047 0.862059 0.115008
H31   H     H_    0.062856 0.319230 0.948206 0.071446
H32   H     H_    0.089475 0.321056 0.025639 0.073529
H33   H     H_    0.168128 0.677416 0.976952 0.077410
H34   H     H_    0.086163 0.215510 0.392760 0.141291
H35   H     H_    0.263355 0.227840 0.643439 -0.035727
H36   H     H_    0.226565 0.670352 0.891203 0.123489
H37   H     H_    0.059396 0.545467 0.716131 0.102944
H38   H     H_    0.033044 0.683576 0.040534 0.054741
H39   H     H_    0.806273 0.518971 0.396223 0.076607
H40   H     H_    0.371720 0.472834 0.600979 0.074081
H41   H     H_    0.307509 0.139237 0.559464 0.098421
H42   H     H_    0.690834 0.190293 0.466566 0.114322
H43   H     H_    0.511335 0.827038 0.533092 0.107385
H44   H     H_    0.927965 0.867063 0.450858 0.104236
H45   H     H_    0.891664 0.666166 0.573088 -0.000868
H46   H     H_    0.389316 0.359972 0.530496 0.070121
H47   H     H_    0.989328 0.277047 0.714125 0.177593
H48   H     H_    0.838080 0.653671 0.479015 0.060551
H49   H     H_    0.057164 0.184920 0.694492 0.089761
H50   H     H_    0.301461 0.340070 0.430513 -0.005852
H51   H     H_    0.097816 0.330550 0.449580 0.087701
H52   H     H_    0.573438 0.445204 0.278471 -0.003593
H53   H     H_    0.129836 0.621932 0.296690 -0.032907
H54   H     H_    0.609896 0.362832 0.750148 0.003562
H55   H     H_    0.637406 0.552493 0.196246 -0.021896
H56   H     H_    0.095860 0.670723 0.552558 0.073178
H57   H     H_    0.002761 0.756317 0.123659 -0.026644
H58   H     H_    0.918943 0.779730 0.628155 0.131419
H59   H     H_    0.963365 0.792459 0.565230 0.067550
H60   H     H_    0.127867 0.782970 0.610856 0.130943
N1    N     N_R   0.954421 0.512657 0.203798 -0.442721
N2    N     N_R   0.231055 0.487451 0.793994 -0.408764
N3    N     N_R   0.516389 0.957683 0.518950 -0.243887
N4    N     N_R   0.466922 0.026714 0.523912 -0.244441
N5    N     N_R   0.687528 0.052488 0.479393 -0.237198
N6    N     N_R   0.737249 0.983206 0.474448 -0.239636
O1    O     O_2   0.914730 0.537460 0.618690 -0.454531
O2    O     O_2   0.232400 0.753308 0.474369 -0.482700
O3    O     O_3   0.141804 0.744036 0.381092 -0.603755
O4    O     O_3   0.146720 0.537410 0.558510 -0.496055
O5    O     O_3   0.553920 0.415280 0.473710 -0.491464
O6    O     O_2   0.383540 0.672140 0.526840 -0.456552
O7    O     O_3   0.576408 0.692939 0.608218 -0.637393
O8    O     O_2   0.403761 0.541690 0.323887 -0.504762
O9    O     O_3   0.455911 0.678396 0.338167 -0.523145
O10   O     O_2   0.977697 0.392033 0.194972 -0.534737
O11   O     O_2   0.179491 0.370288 0.786285 -0.629754
O12   O     O_3   0.617679 0.311493 0.394639 -0.634051
O13   O     O_2   0.959406 0.632387 0.208684 -0.566878
O14   O     O_2   0.267302 0.606012 0.806267 -0.592232
O15   O     O_3   0.666360 0.409390 0.586570 -0.471730
O16   O     O_2   0.770368 0.466689 0.676781 -0.477742
O17   O     O_3   0.073831 0.651589 0.625889 -0.630985
O18   O     O_3   0.743629 0.327178 0.665008 -0.579961
O19   O     O_2   0.806150 0.327840 0.473120 -0.457247
O20   O     O_3   0.073640 0.373350 0.561550 -0.467751
O21   O     O_2   0.008957 0.244172 0.516353 -0.480507
O22   O     O_2   0.694244 0.363267 0.241027 -0.515093
O23   O     O_3   0.032648 0.255615 0.614269 -0.567300
O24   O     O_2   0.188232 0.713195 0.273429 -0.512424
O25   O     O_2   0.551298 0.436002 0.806174 -0.579086
O26   O     O_2   0.557760 0.633893 0.243775 -0.508906
O27   O     O_2   0.809859 0.719210 0.151506 -0.521282
O28   O     O_2   0.274960 0.462520 0.381280 -0.472761
O29   O     O_3   0.042980 0.462530 0.441480 -0.492527
O30   O     O_3   0.523340 0.590550 0.413420 -0.484722
O31   O     O_3   0.120106 0.348071 0.376053 -0.623255
O32   O     O_3   0.635780 0.584660 0.526290 -0.478116
O33   O     O_3   0.116060 0.626590 0.438450 -0.475511
P1    P     P_3+3 0.084800 0.558370 0.611580 0.993647
P2    P     P_3+3 0.628800 0.338360 0.458800 0.991653
P3    P     P_3+3 0.112159 0.280843 0.560401 0.968723
P4    P     P_3+3 0.104900 0.441570 0.388420 0.994983
P5    P     P_3+3 0.095918 0.720551 0.439298 0.962165
P6    P     P_3+3 0.656186 0.409963 0.650990 0.965064
P7    P     P_3+3 0.568361 0.673693 0.543220 0.950128
P8    P     P_3+3 0.531219 0.592607 0.349400 0.999095

loop_
_geom_bond_atom_site_label_1
_geom_bond_atom_site_label_2
_ccdc_geom_bond_type
O33   P5    S    
C19   C24   A    
C63   H6    S    
C50   P2    S    
C67   C70   S    
C26   N2    Am   
Ba2   O5    S    
C30   P6    S    
C15   H40   S    
C55   C60   A    
C70   H25   S    
Ba2   O6    S    
C45   O3    S    
Ba1   P1    S    
C24   C25   A    
C35   C36   A    
C53   N5    A    
C40   H23   S    
C12   H1    S    
Ba1   O19   S    
C17   C19   A    
C56   H20   S    
C22   C24   A    
C32   C33   S    
C35   C38   A    
C52   O17   S    
C36   C37   A    
O28   P4    D    
O3    P5    S    
C52   C61   S    
C44   C50   D    
C20   H31   S    
C54   C55   A    
Ba1   Ba2   S    
C40   H34   S    
C22   C27   A    
C28   O31   S    
C11   C38   A    
C71   N1    Am   
C17   C35   A    
Ba2   P4    S    
C27   O11   D    
C16   H47   S    
C9    C13   A    
O8    P8    D    
O19   P2    D    
C21   H30   S    
C4    O23   S    
O1    P1    D    
C69   O27   D    
C1    H8    S    
C21   C22   A    
C23   O7    S    
C12   H7    S    
C31   P1    S    
C7    C8    S    
O30   P8    S    
O16   P6    D    
Ba2   O32   S    
C37   C43   A    
C46   P3    S    
C42   H36   S    
C47   H41   S    
C57   C58   A    
C6    C14   D    
O12   P2    S    
O20   P3    S    
C10   C71   A    
C56   H18   S    
Ba2   O4    S    
O32   P7    S    
C51   N3    A    
C15   C31   D    
C4    C16   S    
C25   C42   A    
C45   C65   S    
C31   C32   D    
C44   H46   S    
C66   O25   D    
C34   H14   S    
C54   H43   S    
C29   C66   S    
C2    O13   D    
C44   C46   S    
Ba1   P2    S    
C15   C30   S    
C12   O18   S    
C49   C50   D    
C57   P5    S    
C17   C20   A    
C13   C39   A    
C67   H21   S    
C65   H53   S    
C33   N2    S    
C3    C5    S    
C18   C37   A    
C6    C7    D    
O31   P4    S    
O23   P3    S    
C62   O12   S    
Ba1   O29   S    
C34   H13   S    
O17   P1    S    
Ba1   O32   S    
C49   H42   S    
C64   O22   D    
C58   C59   A    
C41   H33   S    
C9    C36   A    
C41   C42   A    
C3    C68   S    
Ba1   O4    S    
Ba2   O29   S    
C29   C30   S    
Ba1   O20   S    
C48   C53   S    
O6    P7    D    
C43   H38   S    
C48   C49   S    
C62   H3    S    
C58   H44   S    
C54   C59   A    
C40   H12   S    
C61   H59   S    
C10   C11   A    
C28   H50   S    
Ba1   O1    S    
C66   H54   S    
C1    C12   S    
C16   H49   S    
C46   C47   S    
C27   N2    Am   
C28   H51   S    
C47   C48   D    
C61   H58   S    
O15   P6    S    
C26   O14   D    
C32   H37   S    
O21   P3    D    
O2    P5    D    
C68   O26   D    
O4    P1    S    
C51   C59   S    
C1    H4    S    
C61   H60   S    
C18   C41   A    
C14   H39   S    
C2    N1    Am   
C70   H27   S    
C68   H55   S    
O29   P4    S    
C52   H56   S    
C5    C14   S    
C57   C60   A    
C39   C43   A    
C63   H5    S    
C71   O10   D    
C1    H15   S    
C51   N6    A    
C16   H16   S    
O7    P7    S    
C8    N1    S    
N3    N4    A    
C67   H22   S    
O9    P8    S    
C55   P7    S    
C9    C10   A    
C6    P4    S    
C70   H24   S    
C53   N4    A    
C64   H52   S    
C39   C69   S    
C62   C63   S    
C2    C13   A    
C52   H45   S    
C3    C8    D    
Ba1   O5    S    
C4    H26   S    
C69   H57   S    
C23   H9    S    
C34   H11   S    
C45   H17   S    
C62   H2    S    
C5    P8    S    
C29   C33   D    
O18   P6    S    
Ba1   O15   S    
Ba2   O30   S    
N5    N6    A    
C23   C34   S    
C65   O24   D    
C18   C19   A    
C7    H28   S    
C63   C64   S    
O5    P2    S    
C25   C26   A    
C23   H10   S    
C67   O9    S    
C4    H35   S    
C20   C21   A    
C28   C40   S    
C11   H29   S    
C56   H19   S    
Ba2   O28   S    
C60   H48   S    
Ba2   O33   S    
C38   H32   S    
C45   C56   S    
