data_mof_unit_45928.cif
_audit_creation_date              2012-12-11T14:54:36-0500
_audit_creation_method            fapswitch 2.2
_symmetry_space_group_name_H-M    P1
_symmetry_Int_Tables_number       1
_space_group_crystal_system       triclinic
_cell_length_a                    19.325234
_cell_length_b                    11.048538
_cell_length_c                    18.66407
_cell_angle_alpha                 90.161264
_cell_angle_beta                  89.989503
_cell_angle_gamma                 90.275476
_cell_volume                      3985.00787021

loop_
_atom_site_label
_atom_site_type_symbol
_atom_type_description
_atom_site_fract_x
_atom_site_fract_y
_atom_site_fract_z
_atom_type_partial_charge
C1    C     C_R   0.729448 0.376462 0.646499 0.566242
C2    C     C_R   0.320815 0.955276 0.476395 -0.135490
C3    C     C_R   0.049949 0.564518 0.441279 0.254333
C4    C     C_3   0.530982 0.850911 0.532344 -0.009578
C5    C     C_3   0.607580 0.001001 0.340819 -0.079628
C6    C     C_3   0.037470 0.353920 0.536645 -0.017827
C7    C     C_3   0.110045 0.503574 0.341909 -0.072088
C8    C     C_3   0.905350 0.036322 0.041409 0.025494
C9    C     C_3   0.095766 0.036137 0.957955 0.024249
C10   C     C_3   0.405357 0.536315 0.041397 0.025672
C11   C     C_3   0.595774 0.536148 0.957961 0.024367
C12   C     C_3   0.600119 0.798852 0.901197 -0.020001
C13   C     C_R   0.217291 0.339205 0.544277 -0.059221
C14   C     C_3   0.399416 0.799349 0.098111 -0.022919
C15   C     C_3   0.100142 0.298822 0.901155 -0.020276
C16   C     C_3   0.899431 0.299374 0.098086 -0.022928
C17   C     C_3   0.501190 0.503193 0.369895 -0.086721
C18   C     C_3   0.390023 0.221645 0.569353 -0.076186
C19   C     C_3   0.001136 0.003683 0.370244 -0.081615
C20   C     C_3   0.888361 0.723857 0.569350 -0.069332
C21   C     C_3   0.417271 0.950946 0.887734 -0.077535
C22   C     C_3   0.583447 0.954043 0.112470 -0.088603
C23   C     C_3   0.917340 0.450867 0.887810 -0.077173
C24   C     C_R   0.820836 0.454438 0.476308 -0.129232
C25   C     C_3   0.083487 0.454082 0.112589 -0.088394
C26   C     C_R   0.721002 0.835468 0.472544 0.371785
C27   C     C_R   0.311647 0.925233 0.548113 0.320431
C28   C     C_R   0.218183 0.321963 0.470951 0.384110
C29   C     C_R   0.811643 0.424988 0.548105 0.322721
C30   C     C_R   0.750799 0.917703 0.424234 0.028805
C31   C     C_R   0.244350 0.912044 0.574357 0.038399
C32   C     C_R   0.252779 0.406326 0.426755 0.027023
C33   C     C_R   0.270978 0.373710 0.354690 0.533790
C34   C     C_R   0.744358 0.412517 0.574454 0.036783
C35   C     C_R   0.771837 0.032891 0.447149 -0.195553
C36   C     C_R   0.187151 0.923338 0.529002 -0.177845
C37   C     C_R   0.281733 0.511162 0.455512 -0.206647
C38   C     C_R   0.687143 0.424379 0.529173 -0.176560
C39   C     C_R   0.763688 0.065261 0.518255 -0.148914
C40   C     C_R   0.196036 0.948929 0.458483 -0.086972
C41   C     C_R   0.279408 0.529258 0.528116 -0.120235
C42   C     C_R   0.696002 0.449385 0.458591 -0.085733
C43   C     C_R   0.736006 0.981587 0.566516 0.015064
C44   C     C_R   0.229433 0.876342 0.646456 0.571404
C45   C     C_R   0.262569 0.968382 0.432094 0.002294
C46   C     C_R   0.248322 0.442266 0.572749 0.017745
C47   C     C_R   0.762554 0.467909 0.432057 0.009789
C48   C     C_R   0.492405 0.050118 0.963484 0.268992
C49   C     C_R   0.508132 0.050579 0.036604 0.274182
C50   C     C_R   0.992483 0.550101 0.963523 0.269058
C51   C     C_R   0.008215 0.550585 0.036645 0.273991
C52   C     C_R   0.501114 0.160042 0.075156 -0.091642
C53   C     C_R   0.498939 0.159540 0.924958 -0.095043
C54   C     C_R   0.001160 0.660050 0.075185 -0.091754
C55   C     C_R   0.770679 0.875743 0.354100 0.541335
C56   C     C_R   0.998979 0.659523 0.924985 -0.094466
C57   C     C_R   0.502917 0.267807 0.037428 0.414095
C58   C     C_R   0.496601 0.267486 0.962770 0.414067
C59   C     C_R   0.002939 0.767809 0.037449 0.414017
C60   C     C_R   0.996620 0.767472 0.962792 0.414209
C61   C     C_R   0.562631 0.150372 0.638706 0.566085
C62   C     C_R   0.469441 0.156105 0.352324 0.521453
C63   C     C_R   0.062822 0.650485 0.638772 0.585122
C64   C     C_R   0.969398 0.656125 0.352359 0.524075
C65   C     C_R   0.819611 0.900026 0.945518 0.332775
C66   C     C_3   0.471408 0.381048 0.466151 0.173116
C67   C     C_R   0.180011 0.899571 0.054358 0.328706
C68   C     C_R   0.319605 0.400020 0.945517 0.332411
C69   C     C_R   0.680008 0.399561 0.054361 0.328743
C70   C     C_R   0.830033 0.883330 0.018344 0.245039
C71   C     C_R   0.169640 0.882889 0.981489 0.245016
C72   C     C_R   0.330026 0.383336 0.018343 0.245265
C73   C     C_R   0.669636 0.382882 0.981491 0.245004
C74   C     C_R   0.776493 0.842996 0.062154 -0.076954
C75   C     C_R   0.223053 0.842579 0.937701 -0.079559
C76   C     C_R   0.276486 0.343012 0.062155 -0.077324
C77   C     C_3   0.481644 0.364313 0.547009 0.222351
C78   C     C_R   0.723049 0.342570 0.937702 -0.079990
C79   C     C_R   0.711856 0.818208 0.030927 -0.199610
C80   C     C_R   0.287419 0.817447 0.969036 -0.199621
C81   C     C_R   0.211846 0.318234 0.030931 -0.199877
C82   C     C_R   0.787414 0.317437 0.969038 -0.199922
C83   C     C_R   0.697514 0.860030 0.961982 0.165567
C84   C     C_R   0.301931 0.859696 0.038001 0.167747
C85   C     C_R   0.197508 0.360032 0.961982 0.166629
C86   C     C_R   0.801929 0.359699 0.038000 0.167845
C87   C     C_R   0.752789 0.902671 0.919221 -0.012438
C88   C     C_3   0.970772 0.881875 0.466441 0.175372
C89   C     C_R   0.246821 0.902363 0.080747 -0.013025
C90   C     C_R   0.252784 0.402668 0.919220 -0.011884
C91   C     C_R   0.746819 0.402361 0.080748 -0.012950
C92   C     C_R   0.728805 0.016465 0.640256 0.539738
C93   C     C_R   0.270111 0.011328 0.360072 0.583711
C94   C     C_R   0.240906 0.472435 0.646953 0.553734
C95   C     C_R   0.770059 0.511045 0.360074 0.590673
C96   C     C_R   0.711667 0.331006 0.859776 0.581740
C97   C     C_R   0.288163 0.330965 0.140005 0.586933
C98   C     C_R   0.211669 0.831010 0.859777 0.580398
C99   C     C_3   0.980766 0.865013 0.547406 0.223094
C100  C     C_R   0.788165 0.830960 0.140005 0.586784
C101  C     C_R   0.530901 0.156203 0.853017 0.589583
C102  C     C_R   0.469110 0.156371 0.147026 0.575510
C103  C     C_R   0.030911 0.656200 0.853027 0.589657
C104  C     C_R   0.969121 0.656373 0.147035 0.575690
C105  C     C_R   0.740795 0.969678 0.853545 0.596657
C106  C     C_R   0.259101 0.969670 0.146489 0.590851
C107  C     C_R   0.240793 0.469680 0.853548 0.588745
C108  C     C_R   0.759100 0.469669 0.146489 0.590763
C109  C     C_R   0.515740 0.167647 0.414170 -0.061351
C110  C     C_R   0.715616 0.866273 0.543885 -0.026031
C111  C     C_R   0.548679 0.155016 0.561399 -0.040220
C112  C     C_R   0.015400 0.668024 0.414411 -0.061920
C113  C     C_R   0.048951 0.655675 0.561535 -0.037660
C114  C     C_R   0.517896 0.272658 0.456363 -0.077887
C115  C     C_R   0.530188 0.263113 0.528670 -0.102698
C116  C     C_R   0.016826 0.772845 0.456748 -0.079778
C117  C     C_R   0.028663 0.762991 0.529009 -0.105217
C118  C     C_R   0.558827 0.052811 0.516575 0.253127
C119  C     C_R   0.548999 0.063121 0.441347 0.253399
C120  C     C_R   0.061549 0.555031 0.516246 0.255136
Cr1   Cr    Cr6+3 0.771950 0.169480 0.750100 1.073897
Cr2   Cr    Cr6+3 0.383410 0.010620 0.249390 1.005590
Cr3   Cr    Cr6+3 0.116590 0.510620 0.750610 1.027746
Cr4   Cr    Cr6+3 0.883410 0.510620 0.249390 1.007495
Cr5   Cr    Cr6+3 0.228050 0.169480 0.249900 1.049828
Cr6   Cr    Cr6+3 0.271950 0.669480 0.750100 1.073345
Cr7   Cr    Cr6+3 0.728050 0.669480 0.249900 1.046082
Cr8   Cr    Cr6+3 0.614930 0.323340 0.749170 1.072721
Cr9   Cr    Cr6+3 0.385070 0.323340 0.250830 1.023107
Cr10  Cr    Cr6+3 0.114930 0.823340 0.749170 1.076510
Cr11  Cr    Cr6+3 0.885070 0.823340 0.250830 1.024649
Cr12  Cr    Cr6+3 0.616590 0.010620 0.750610 1.028692
F1    F     F_    0.872999 0.933529 0.903015 -0.565936
F2    F     F_    0.488686 0.371757 0.926424 -0.530028
F3    F     F_    0.010688 0.872508 0.073879 -0.534534
F4    F     F_    0.988680 0.871733 0.926442 -0.529736
F5    F     F_    0.126746 0.933130 0.096841 -0.576933
F6    F     F_    0.372994 0.433505 0.903009 -0.567232
F7    F     F_    0.626744 0.433113 0.096847 -0.577043
F8    F     F_    0.700614 0.723140 0.451914 -0.644601
F9    F     F_    0.367160 0.912977 0.591921 -0.665106
F10   F     F_    0.187468 0.221087 0.444055 -0.635619
F11   F     F_    0.867125 0.412358 0.591884 -0.664116
F12   F     F_    0.510689 0.372495 0.073864 -0.534563
H1    H     H_    0.670373 0.779583 0.062083 0.167300
H2    H     H_    0.372516 0.971079 0.455901 0.133924
H3    H     H_    0.191541 0.273944 0.578504 0.139719
H4    H     H_    0.872602 0.469523 0.455766 0.136417
H5    H     H_    0.795636 0.096402 0.410381 0.141286
H6    H     H_    0.134797 0.911330 0.547872 0.152269
H7    H     H_    0.308081 0.576971 0.422113 0.143980
H8    H     H_    0.634777 0.413265 0.548141 0.152082
H9    H     H_    0.779816 0.154491 0.535916 0.145648
H10   H     H_    0.150263 0.956121 0.425317 0.196930
H11   H     H_    0.301366 0.612528 0.549165 0.171886
H12   H     H_    0.328691 0.778471 0.937938 0.166253
H13   H     H_    0.650198 0.457065 0.425514 0.192845
H14   H     H_    0.550029 0.794532 0.487219 0.200592
H15   H     H_    0.477820 0.883630 0.520442 0.164482
H16   H     H_    0.527346 0.791512 0.580024 0.152416
H17   H     H_    0.652253 0.056018 0.359921 0.095270
H18   H     H_    0.579502 0.052280 0.299127 0.118835
H19   H     H_    0.627360 0.918863 0.313919 0.159906
H20   H     H_    0.050428 0.300259 0.488163 0.208435
H21   H     H_    0.982884 0.385223 0.533579 0.170884
H22   H     H_    0.041255 0.292272 0.583272 0.143975
H23   H     H_    0.170361 0.279618 0.062087 0.167243
H24   H     H_    0.156264 0.552212 0.363080 0.098298
H25   H     H_    0.083757 0.561296 0.301879 0.111619
H26   H     H_    0.127461 0.422076 0.312569 0.162826
H27   H     H_    0.935349 0.063592 0.089403 0.150498
H28   H     H_    0.857461 0.091814 0.037830 0.059672
H29   H     H_    0.937933 0.053666 0.993620 0.209399
H30   H     H_    0.065060 0.062274 0.910425 0.156099
H31   H     H_    0.144227 0.091183 0.959952 0.061712
H32   H     H_    0.064331 0.055113 0.006354 0.206106
H33   H     H_    0.435359 0.563582 0.089389 0.150399
H34   H     H_    0.828683 0.278452 0.937941 0.166010
H35   H     H_    0.357474 0.591820 0.037811 0.059912
H36   H     H_    0.437943 0.553639 0.993607 0.209504
H37   H     H_    0.565061 0.562299 0.910438 0.156227
H38   H     H_    0.644239 0.591183 0.959951 0.061854
H39   H     H_    0.564348 0.555129 0.006367 0.206005
H40   H     H_    0.637589 0.733699 0.877375 0.064491
H41   H     H_    0.574150 0.841225 0.855010 0.202874
H42   H     H_    0.558385 0.754768 0.932168 0.136727
H43   H     H_    0.361922 0.733420 0.121552 0.059347
H44   H     H_    0.441069 0.756226 0.066754 0.137686
H45   H     H_    0.916431 0.871767 0.447531 0.153447
H46   H     H_    0.425490 0.841599 0.144542 0.200520
H47   H     H_    0.137628 0.233673 0.877355 0.062209
H48   H     H_    0.074196 0.341203 0.854956 0.202262
H49   H     H_    0.058390 0.254727 0.932093 0.136991
H50   H     H_    0.861945 0.233449 0.121546 0.059042
H51   H     H_    0.941071 0.256250 0.066709 0.137762
H52   H     H_    0.925521 0.341620 0.144508 0.200633
H53   H     H_    0.447003 0.506161 0.350471 0.151442
H54   H     H_    0.530864 0.430568 0.342555 0.146183
H55   H     H_    0.525923 0.590615 0.355488 0.151434
H56   H     H_    0.009081 0.941297 0.573299 0.175186
H57   H     H_    0.417706 0.148430 0.597648 0.194223
H58   H     H_    0.387116 0.202597 0.511038 0.077885
H59   H     H_    0.336359 0.220104 0.590141 0.144091
H60   H     H_    0.946960 0.007234 0.350798 0.150243
H61   H     H_    0.030566 0.930772 0.342890 0.144339
H62   H     H_    0.026179 0.090856 0.355874 0.156978
H63   H     H_    0.915575 0.650441 0.598039 0.189123
H64   H     H_    0.886068 0.704344 0.511056 0.080701
H65   H     H_    0.834318 0.723688 0.589254 0.157178
H66   H     H_    0.423983 0.010521 0.840647 0.135735
H67   H     H_    0.417094 0.370169 0.447369 0.152460
H68   H     H_    0.372997 0.985447 0.919619 0.140679
H69   H     H_    0.404839 0.860581 0.865312 0.144943
H70   H     H_    0.627827 0.988180 0.080439 0.142436
H71   H     H_    0.595775 0.864504 0.135521 0.135260
H72   H     H_    0.576710 0.014870 0.159135 0.103462
H73   H     H_    0.924021 0.510426 0.840711 0.136387
H74   H     H_    0.873074 0.485366 0.919706 0.141146
H75   H     H_    0.904916 0.360487 0.865405 0.144856
H76   H     H_    0.127885 0.488306 0.080613 0.142079
H77   H     H_    0.095837 0.364523 0.135600 0.135692
H78   H     H_    0.509540 0.441172 0.572790 0.174439
H79   H     H_    0.076684 0.514807 0.159299 0.104953
H80   H     H_    0.694963 0.800408 0.581221 0.158773
O1    O     O_R   0.787510 0.042610 0.670410 -0.464864
O2    O     O_R   0.454250 0.051070 0.169440 -0.507188
O3    O     O_R   0.045750 0.551070 0.830560 -0.506278
O4    O     O_R   0.954250 0.551070 0.169440 -0.506694
O5    O     O_R   0.681210 0.959150 0.825320 -0.500089
O6    O     O_R   0.318790 0.959150 0.174680 -0.496198
O7    O     O_R   0.181210 0.459150 0.825320 -0.504957
O8    O     O_R   0.818790 0.459150 0.174680 -0.496459
O9    O     O_3   0.667820 0.167810 0.749960 -0.353951
O10   O     O_3   0.332180 0.167810 0.250040 -0.310502
O11   O     O_3   0.167820 0.667810 0.749960 -0.336562
O12   O     O_R   0.212490 0.042610 0.329590 -0.478164
O13   O     O_3   0.832180 0.667810 0.250040 -0.309034
O14   O     O_R   0.765670 0.292090 0.675090 -0.470177
O15   O     O_R   0.234330 0.292090 0.324910 -0.454935
O16   O     O_R   0.265670 0.792090 0.675090 -0.457356
O17   O     O_R   0.734330 0.792090 0.324910 -0.457336
O18   O     O_R   0.670220 0.409020 0.668560 -0.547774
O19   O     O_R   0.329780 0.409020 0.331440 -0.561133
O20   O     O_R   0.170220 0.909020 0.668560 -0.551599
O21   O     O_R   0.829780 0.909020 0.331440 -0.560195
O22   O     O_R   0.556580 0.251590 0.674980 -0.491803
O23   O     O_R   0.287510 0.542610 0.670410 -0.490382
O24   O     O_R   0.443420 0.251590 0.325020 -0.534504
O25   O     O_R   0.056580 0.751590 0.674980 -0.493619
O26   O     O_R   0.943420 0.751590 0.325020 -0.533940
O27   O     O_R   0.545890 0.049670 0.670030 -0.462139
O28   O     O_R   0.454110 0.049670 0.329970 -0.491672
O29   O     O_R   0.045890 0.549670 0.670030 -0.466599
O30   O     O_R   0.954110 0.549670 0.329970 -0.489718
O31   O     O_R   0.681340 0.957860 0.676500 -0.505861
O32   O     O_R   0.318660 0.957860 0.323500 -0.522541
O33   O     O_R   0.181340 0.457860 0.676500 -0.504775
O34   O     O_R   0.712490 0.542610 0.329590 -0.484295
O35   O     O_R   0.818660 0.457860 0.323500 -0.524847
O36   O     O_R   0.787380 0.044010 0.830940 -0.447538
O37   O     O_R   0.212620 0.044010 0.169060 -0.456575
O38   O     O_R   0.287380 0.544010 0.830940 -0.450184
O39   O     O_R   0.712620 0.544010 0.169060 -0.456847
O40   O     O_R   0.765540 0.293390 0.823910 -0.528569
O41   O     O_R   0.234460 0.293390 0.176090 -0.543765
O42   O     O_R   0.265540 0.793390 0.823910 -0.529028
O43   O     O_R   0.734460 0.793390 0.176090 -0.544774
O44   O     O_R   0.670090 0.410410 0.829090 -0.468970
O45   O     O_R   0.556450 0.252890 0.823790 -0.420854
O46   O     O_R   0.329910 0.410410 0.170910 -0.476274
O47   O     O_R   0.170090 0.910410 0.829090 -0.471403
O48   O     O_R   0.829910 0.910410 0.170910 -0.477243
O49   O     O_3   0.579009 0.944563 0.547262 -0.563795
O50   O     O_3   0.563887 0.964640 0.397734 -0.545450
O51   O     O_3   0.085943 0.448904 0.545946 -0.558344
O52   O     O_3   0.065112 0.466479 0.397538 -0.539515
O53   O     O_3   0.891937 0.912154 0.048712 -0.479379
O54   O     O_3   0.107957 0.911702 0.951114 -0.481792
O55   O     O_3   0.391933 0.412153 0.048710 -0.479431
O56   O     O_R   0.443550 0.252890 0.176210 -0.432188
O57   O     O_3   0.607955 0.411710 0.951116 -0.481764
O58   O     O_3   0.629844 0.888695 0.945289 -0.519275
O59   O     O_3   0.369686 0.889133 0.054662 -0.517788
O60   O     O_3   0.129835 0.388656 0.945278 -0.518208
O61   O     O_3   0.869682 0.389161 0.054655 -0.517918
O62   O     O_3   0.503865 0.490369 0.444838 -0.601389
O63   O     O_3   0.419790 0.335817 0.585617 -0.561994
O64   O     O_3   0.003759 0.990741 0.445185 -0.596139
O65   O     O_3   0.918597 0.837599 0.585713 -0.554068
O66   O     O_3   0.477648 0.940672 0.930223 -0.511742
O67   O     O_R   0.056450 0.752890 0.823790 -0.421745
O68   O     O_3   0.523154 0.941788 0.069878 -0.506741
O69   O     O_3   0.977735 0.440642 0.930275 -0.511874
O70   O     O_3   0.023233 0.441801 0.069936 -0.506910
O71   O     O_R   0.943550 0.752890 0.176210 -0.432466
O72   O     O_R   0.545750 0.051070 0.830560 -0.505814

loop_
_geom_bond_atom_site_label_1
_geom_bond_atom_site_label_2
_ccdc_geom_bond_type
C69   F7    S    
C7    H24   S    
C107  O7    A    
Cr8   O18   S    
C68   F6    S    
C11   H37   S    
Cr6   O16   S    
C114  C115  A    
C3    O52   S    
C58   F2    S    
Cr7   O43   S    
C111  C118  A    
C90   C107  S    
C88   O64   S    
C97   O46   A    
C64   C112  S    
C94   O33   A    
Cr3   O3    S    
C103  O3    A    
Cr10  O11   S    
Cr1   O1    S    
C9    H32   S    
C78   C96   S    
C89   C106  S    
C70   C74   A    
C68   C90   A    
C17   H53   S    
C18   H59   S    
C43   C110  A    
C55   O17   A    
C94   O23   A    
Cr11  O26   S    
C62   O28   A    
C6    H21   S    
C59   C60   A    
C93   O12   A    
C104  O4    A    
C88   H45   S    
C85   C90   A    
C23   H75   S    
C71   O54   S    
C27   C31   A    
C28   C32   A    
C74   C100  S    
C75   C98   S    
Cr12  O72   S    
C5    H17   S    
C113  C120  A    
C78   C82   A    
C103  O67   A    
C3    C112  A    
C68   C72   A    
C82   H34   S    
C81   H23   S    
Cr7   O34   S    
Cr4   O8    S    
C64   O26   A    
C97   O41   A    
Cr2   O10   S    
C92   O1    A    
C74   C79   A    
C14   O59   S    
C9    O54   S    
C42   H13   S    
Cr10  O67   S    
C66   C77   S    
C15   H47   S    
Cr5   O41   S    
C56   C103  S    
C53   C58   A    
C98   O47   A    
C10   H36   S    
C16   H51   S    
C32   C33   S    
C14   H43   S    
C36   H6    S    
C12   H41   S    
C27   F9    S    
C17   H55   S    
C18   H57   S    
C88   C99   S    
Cr1   O36   S    
Cr2   O28   S    
C63   C113  S    
C92   O31   A    
C7    H26   S    
C31   C36   A    
C25   H76   S    
C21   O66   S    
C16   O61   S    
C77   C115  S    
Cr2   O2    S    
C96   O44   A    
C23   H73   S    
C45   C93   S    
Cr12  O5    S    
C8    O53   S    
C93   O32   A    
Cr3   O33   S    
C104  O71   A    
C10   H35   S    
C5    H19   S    
C65   C70   A    
C21   H66   S    
Cr10  O20   S    
C48   O66   S    
Cr11  O48   S    
Cr4   O35   S    
C46   C94   S    
C99   H56   S    
Cr5   O10   S    
C10   O55   S    
C60   F4    S    
C8    H27   S    
C96   O40   A    
C22   H71   S    
C15   O60   S    
C77   O63   S    
C44   O16   A    
C1    C34   S    
C54   C59   A    
C2    C45   A    
C48   C53   A    
C84   O59   S    
C66   O62   S    
C7    O52   S    
C61   O22   A    
C101  O45   A    
C50   C56   A    
Cr6   O11   S    
C99   C117  S    
C62   O24   A    
C87   C105  S    
C32   C37   A    
C109  C114  A    
C113  C117  A    
C26   C30   A    
C105  O36   A    
C21   H69   S    
C33   O19   A    
C13   H3    S    
C112  C116  A    
C44   O20   A    
C108  O8    A    
Cr10  O25   S    
C73   O57   S    
Cr8   O9    S    
C57   F12   S    
Cr6   O23   S    
C10   H33   S    
C43   C92   S    
C21   H68   S    
Cr9   O10   S    
C83   O58   S    
C119  O50   S    
Cr10  O47   S    
C57   C58   A    
C62   C109  S    
C98   O42   A    
C19   O64   S    
C9    H31   S    
C37   C41   A    
C67   F5    S    
C16   H50   S    
C1    O18   A    
C14   H46   S    
C77   H78   S    
Cr5   O37   S    
C4    O49   S    
Cr6   O42   S    
C49   O68   S    
C20   H63   S    
C69   C91   A    
C81   C85   A    
Cr12  O27   S    
C41   H11   S    
C95   O34   A    
C83   C87   A    
C6    H22   S    
Cr7   O17   S    
C80   C84   A    
C110  H80   S    
C52   C102  S    
C39   H9    S    
C54   C104  S    
C26   F8    S    
C86   C91   A    
Cr1   O40   S    
Cr2   O32   S    
C4    H15   S    
Cr1   O14   S    
C29   F11   S    
C102  O2    A    
Cr9   O56   S    
C24   C29   A    
C51   O70   S    
Cr9   O46   S    
C53   C101  S    
C19   H62   S    
C13   C28   A    
C69   C73   A    
C2    C27   A    
Cr12  O9    S    
C11   H38   S    
C40   C45   A    
Cr4   O30   S    
C18   O63   S    
C76   C97   S    
C82   C86   A    
C29   C34   A    
C56   C60   A    
C105  O5    A    
C35   C39   A    
C16   H52   S    
C14   H44   S    
C61   O27   A    
C49   C52   A    
C12   H42   S    
C50   C51   A    
Cr8   O44   S    
C17   H54   S    
C18   H58   S    
C20   H65   S    
Cr3   O11   S    
C48   C49   A    
C63   O25   A    
C6    H20   S    
Cr7   O13   S    
Cr1   O9    S    
C7    H25   S    
C86   O61   S    
C11   O57   S    
C109  C119  A    
C100  O48   A    
C66   C114  S    
C91   C108  S    
C102  O56   A    
C30   C55   S    
Cr8   O22   S    
C5    H18   S    
C72   O55   S    
C50   O69   S    
Cr5   O12   S    
C79   C83   A    
C12   H40   S    
C59   F3    S    
C19   H60   S    
Cr7   O39   S    
C107  O38   A    
C67   C71   A    
Cr3   O29   S    
C52   C57   A    
C15   H49   S    
C106  O6    A    
Cr3   O7    S    
C5    O50   S    
C35   H5    S    
C66   H67   S    
C23   O69   S    
C8    H28   S    
Cr9   O24   S    
C15   H48   S    
C17   O62   S    
C22   H72   S    
C25   O70   S    
Cr8   O45   S    
C72   C76   A    
C79   H1    S    
C4    H16   S    
C95   O35   A    
C70   O53   S    
C30   C35   A    
C20   O65   S    
C38   C42   A    
C13   C46   A    
C67   C89   A    
C116  C117  A    
Cr6   O38   S    
C108  O39   A    
C118  C119  A    
Cr11  O21   S    
Cr12  O31   S    
C4    H14   S    
C85   O60   S    
C41   C46   A    
C25   H77   S    
C22   O68   S    
C75   C80   A    
C26   C110  A    
Cr5   O15   S    
C23   H74   S    
C40   H10   S    
C37   H7    S    
C38   H8    S    
Cr4   O4    S    
C80   H12   S    
C64   O30   A    
Cr2   O6    S    
C31   C44   S    
C36   C40   A    
C11   H39   S    
C24   H4    S    
C8    H29   S    
C39   C43   A    
Cr9   O19   S    
C106  O37   A    
C88   C116  S    
C33   O15   A    
C73   C78   A    
Cr11  O71   S    
C9    H30   S    
C65   C87   A    
C6    O51   S    
C22   H70   S    
C28   F10   S    
C84   C89   A    
C20   H64   S    
C61   C111  S    
C120  O51   S    
C34   C38   A    
C24   C47   A    
C76   C81   A    
C101  O72   A    
C100  O43   A    
C1    O14   A    
C2    H2    S    
C51   C54   A    
C71   C75   A    
Cr4   O13   S    
C63   O29   A    
Cr11  O13   S    
C25   H79   S    
C42   C47   A    
C3    C120  A    
C55   O21   A    
C19   H61   S    
C47   C95   S    
C111  C115  A    
C99   O65   S    
C118  O49   S    
C65   F1    S    
C12   O58   S    
