data_mof_unit_12954.cif
_audit_creation_date              2012-12-10T20:27:16-0500
_audit_creation_method            fapswitch 2.2
_symmetry_space_group_name_H-M    P1
_symmetry_Int_Tables_number       1
_space_group_crystal_system       triclinic
_cell_length_a                    10.553583
_cell_length_b                    10.832015
_cell_length_c                    9.979235
_cell_angle_alpha                 92.097802
_cell_angle_beta                  102.399512
_cell_angle_gamma                 93.589213
_cell_volume                      1110.52980375

loop_
_atom_site_label
_atom_site_type_symbol
_atom_type_description
_atom_site_fract_x
_atom_site_fract_y
_atom_site_fract_z
_atom_type_partial_charge
C1    C     C_R   0.506837 0.260645 0.500022 0.902328
C2    C     C_R   0.602746 0.549273 0.098721 -0.077661
C3    C     C_R   0.604286 0.548292 0.956780 -0.024311
C4    C     C_R   0.258021 0.504693 0.443930 0.942669
C5    C     C_R   0.394609 0.446713 0.900777 0.207665
C6    C     C_3   0.359752 0.308719 0.896908 0.183770
C7    C     C_3   0.332921 0.321394 0.040000 -0.346443
C8    C     C_R   0.511002 0.740105 0.504525 0.891177
C9    C     C_R   0.741985 0.512034 0.555889 0.817693
C10   C     C_2   0.119925 0.525830 0.417002 -0.208176
C11   C     C_2   0.078499 0.604454 0.502326 -0.002359
C12   C     C_R   0.523889 0.129431 0.504143 -0.129294
C13   C     C_2   0.883197 0.535330 0.582368 0.135269
C14   C     C_2   0.939800 0.609186 0.500496 -0.176140
C15   C     C_R   0.520497 0.070028 0.625347 0.013846
C16   C     C_2   0.867237 0.699287 0.409875 0.496849
C17   C     C_2   0.721319 0.190687 0.776153 0.632604
C18   C     C_2   0.718659 0.607905 0.919298 0.633266
C19   C     C_2   0.192608 0.323713 0.055061 0.686358
C20   C     C_2   0.407272 0.229433 0.126602 0.465895
C21   C     C_R   0.551229 0.061767 0.393215 -0.063300
C22   C     C_R   0.552070 0.934060 0.395187 -0.098842
C23   C     C_R   0.534984 0.873331 0.512696 -0.105118
C24   C     C_R   0.530615 0.943078 0.632268 0.045155
C25   C     C_3   0.631524 0.961891 0.766749 0.643984
C26   C     C_3   0.606425 0.098687 0.764058 -0.446066
C27   C     C_R   0.394246 0.450283 0.044485 0.111476
H1    H     H_    0.685104 0.590220 0.174450 0.170814
H2    H     H_    0.705221 0.656071 0.826637 0.158570
H3    H     H_    0.184834 0.213234 0.545575 0.379361
H4    H     H_    0.135593 0.237395 0.058394 0.146020
H5    H     H_    0.512699 0.237558 0.145830 0.080351
H6    H     H_    0.125786 0.567004 0.814144 0.371081
H7    H     H_    0.678699 0.829637 0.108230 0.366158
H8    H     H_    0.893341 0.764163 0.731058 0.387207
H9    H     H_    0.452822 0.267807 0.898875 0.053091
H10   H     H_    0.147328 0.658581 0.583133 0.177035
H11   H     H_    0.052433 0.475619 0.332046 0.186613
H12   H     H_    0.573117 0.106410 0.305726 0.181220
H13   H     H_    0.564716 0.883125 0.304114 0.180343
H14   H     H_    0.547552 0.126778 0.835282 0.218989
H15   H     H_    0.769401 0.719361 0.416514 0.069106
H16   H     H_    0.744778 0.231449 0.686246 0.111466
N1    N     N_R   0.499160 0.499140 0.142600 -0.141526
N2    N     N_R   0.499160 0.499180 0.856960 -0.169379
O1    O     O_R   0.500020 0.316790 0.614700 -0.609858
O2    O     O_2   0.790546 0.218055 0.889198 -0.463828
O3    O     O_2   0.826484 0.609720 0.994933 -0.491179
O4    O     O_2   0.290605 0.093498 0.752996 -0.275567
O5    O     O_2   0.111652 0.198711 0.807065 -0.162728
O6    O     O_3   0.219345 0.282292 0.614084 -0.480589
O7    O     O_2   0.142233 0.421015 0.066452 -0.514572
O8    O     O_2   0.350753 0.140871 0.166477 -0.535628
O9    O     O_2   0.911464 0.427162 0.822466 -0.223956
O10   O     O_2   0.962014 0.315474 0.625070 -0.224951
O11   O     O_3   0.128025 0.491963 0.755139 -0.499607
O12   O     O_R   0.500000 0.316760 0.385350 -0.628637
O13   O     O_2   0.505892 0.976822 0.981582 -0.290029
O14   O     O_2   0.495315 0.776247 0.863054 -0.325381
O15   O     O_3   0.712968 0.857808 0.028707 -0.490479
O16   O     O_2   0.835075 0.009702 0.641553 -0.284978
O17   O     O_2   0.889775 0.957685 0.882546 -0.158975
O18   O     O_3   0.802066 0.782940 0.694623 -0.665872
O19   O     O_R   0.317820 0.500020 0.571850 -0.529654
O20   O     O_R   0.317800 0.499980 0.342510 -0.580318
O21   O     O_R   0.500000 0.683240 0.614650 -0.582278
O22   O     O_R   0.499980 0.683210 0.385300 -0.628694
O23   O     O_R   0.682200 0.500020 0.657490 -0.627423
O24   O     O_R   0.682180 0.499980 0.428150 -0.653084
O25   O     O_2   0.917677 0.754177 0.327773 -0.482463
S1    S     S_3+6 0.240175 0.218865 0.767167 0.143549
S2    S     S_3+6 0.971752 0.439433 0.700114 0.080949
S3    S     S_3+6 0.581448 0.891564 0.911532 0.041892
S4    S     S_3+6 0.794770 0.929982 0.747629 0.063829
Zn1   Zn    Zn3+2 0.500010 0.500020 0.653140 1.040836
Zn2   Zn    Zn3+2 0.499990 0.499980 0.346860 0.980858

loop_
_geom_bond_atom_site_label_1
_geom_bond_atom_site_label_2
_ccdc_geom_bond_type
H8    O18   S    
C23   C24   A    
C17   H16   S    
C8    O21   A    
C6    C7    S    
O18   S4    S    
C1    O12   A    
O16   S4    D    
O14   S3    D    
C7    C27   S    
C7    C19   S    
O10   S2    D    
C21   H12   S    
C12   C15   A    
C10   H11   S    
N2    Zn1   S    
C22   H13   S    
H6    O11   S    
C2    C3    A    
C9    O23   A    
C19   H4    S    
C18   H2    S    
C5    C27   A    
C21   C22   A    
O23   Zn1   S    
H7    O15   S    
O20   Zn2   S    
C4    O19   A    
C5    C6    S    
C1    C12   S    
O6    S1    S    
C8    O22   A    
C17   C26   S    
C12   C21   A    
O12   Zn2   S    
C15   C24   A    
C13   S2    S    
O19   Zn1   S    
C6    H9    S    
C25   S4    S    
C25   S3    S    
C22   C23   A    
C19   O7    D    
O4    S1    D    
C6    S1    S    
C11   C14   S    
C14   C16   S    
C1    O1    A    
C10   C11   D    
O21   Zn1   S    
C4    C10   S    
C13   C14   D    
H3    O6    S    
C16   H15   S    
O15   S3    S    
C8    C23   S    
C16   O25   D    
C24   C25   S    
C26   H14   S    
C3    C18   S    
N1    Zn2   S    
C7    C20   S    
C20   H5    S    
C2    N1    A    
C11   H10   S    
C9    C13   S    
C4    O20   A    
O1    Zn1   S    
C15   C26   S    
C2    H1    S    
O22   Zn2   S    
O9    S2    D    
C25   C26   S    
C27   N1    A    
O24   Zn2   S    
C5    N2    A    
O5    S1    D    
C3    N2    A    
O17   S4    D    
C17   O2    D    
O13   S3    D    
C9    O24   A    
C20   O8    D    
O11   S2    S    
C18   O3    D    
