data_mof_unit_22959.cif
_audit_creation_date              2012-12-10T17:14:42-0500
_audit_creation_method            fapswitch 2.2
_symmetry_space_group_name_H-M    P1
_symmetry_Int_Tables_number       1
_space_group_crystal_system       triclinic
_cell_length_a                    10.655702
_cell_length_b                    13.011705
_cell_length_c                    11.71981
_cell_angle_alpha                 100.155477
_cell_angle_beta                  94.73391
_cell_angle_gamma                 90.953503
_cell_volume                      1593.21783427

loop_
_atom_site_label
_atom_site_type_symbol
_atom_type_description
_atom_site_fract_x
_atom_site_fract_y
_atom_site_fract_z
_atom_type_partial_charge
C1    C     C_R   0.498203 0.299144 0.478367 0.804424
C2    C     C_R   0.500318 0.700810 0.521488 0.805147
C3    C     C_R   0.484425 0.139340 0.562578 -0.250603
C4    C     C_R   0.513899 0.860556 0.436939 -0.248786
C5    C     C_R   0.488450 0.031120 0.554045 0.106456
C6    C     C_R   0.508895 0.968745 0.445155 0.106635
C7    C     C_R   0.382585 0.398742 0.018551 -0.152667
C8    C     C_R   0.624077 0.595678 0.980765 -0.148024
C9    C     C_R   0.394642 0.407701 0.141798 0.407363
C10   C     C_R   0.611511 0.587130 0.857562 0.409247
C11   C     C_R   0.550412 0.542985 0.158689 -0.016619
C12   C     C_R   0.447725 0.458606 0.841456 -0.004903
C13   C     C_R   0.543963 0.535447 0.035340 -0.039395
C14   C     C_R   0.456553 0.464168 0.964587 -0.041669
C15   C     C_R   0.259402 0.501361 0.499575 0.806287
C16   C     C_R   0.740643 0.500882 0.500819 0.809155
C17   C     C_3   0.044555 0.412805 0.531204 -0.217513
C18   C     C_3   0.955888 0.591566 0.470436 -0.259315
C19   C     C_3   0.950751 0.421466 0.426593 0.306780
C20   C     C_3   0.049620 0.582844 0.575002 0.320302
C21   C     C_3   0.877221 0.502015 0.502710 -0.070908
C22   C     C_3   0.122844 0.502213 0.498606 -0.082585
C23   C     C_3   0.970199 0.495359 0.609674 -0.176624
C24   C     C_3   0.029987 0.509120 0.392293 -0.234285
C25   C     C_R   0.496965 0.814050 0.533486 -0.078972
C26   C     C_R   0.499727 0.185791 0.465730 -0.072798
C27   C     C_R   0.523944 0.016208 0.347269 -0.014578
C28   C     C_R   0.472242 0.983550 0.651612 -0.014502
C29   C     C_R   0.518813 0.124269 0.358422 -0.240818
C30   C     C_R   0.474676 0.875422 0.639838 -0.250692
Cu1   Cu    Cu3+1 0.509400 0.507730 0.615930 0.965892
Cu2   Cu    Cu3+1 0.490600 0.492270 0.384070 0.958453
H1    H     H_    0.083413 0.339784 0.554263 0.144577
H2    H     H_    0.918127 0.665132 0.447876 0.152598
H3    H     H_    0.944220 0.491009 0.698518 0.143887
H4    H     H_    0.053839 0.515887 0.303689 0.158358
H5    H     H_    0.531059 0.811794 0.355161 0.167913
H6    H     H_    0.468683 0.188134 0.644739 0.167511
H7    H     H_    0.458240 0.839034 0.713791 0.167094
H8    H     H_    0.531595 0.160525 0.283482 0.159797
H9    H     H_    0.380828 0.404990 0.785540 0.149606
H10   H     H_    0.615484 0.598163 0.214719 0.150830
N1    N     N_R   0.523540 0.519360 0.790140 -0.198929
N2    N     N_R   0.476460 0.480640 0.209860 -0.199718
O1    O     O_R   0.506670 0.354460 0.582000 -0.595780
O2    O     O_R   0.493330 0.645540 0.418000 -0.593766
O3    O     O_R   0.490800 0.341410 0.386200 -0.567697
O4    O     O_R   0.509200 0.658590 0.613800 -0.556365
O5    O     O_R   0.324790 0.506500 0.597880 -0.576065
O6    O     O_R   0.675210 0.493500 0.402120 -0.591957
O7    O     O_R   0.308910 0.493440 0.402080 -0.558129
O8    O     O_R   0.691090 0.506560 0.597920 -0.570807
N3    N     N_2   0.895143 0.334188 0.342614 -0.439083
H11   H     H_    0.836885 0.356920 0.277506 0.263330
C31   C     C_3   0.841757 0.250356 0.391206 -0.658563
H12   H     H_    0.801552 0.188005 0.319715 0.231312
H13   H     H_    0.765726 0.279471 0.446590 0.212380
H14   H     H_    0.915840 0.215894 0.443772 0.232634
N4    N     N_2   0.110494 0.671117 0.653748 -0.417704
H15   H     H_    0.166037 0.716179 0.612500 0.244020
C32   C     C_3   0.028834 0.731888 0.730133 -0.668081
H16   H     H_    0.083313 0.799211 0.784248 0.235254
H17   H     H_    0.991497 0.683424 0.789371 0.230546
H18   H     H_    0.949683 0.761879 0.678799 0.219868
C33   C     C_1   0.544920 0.956534 0.234441 0.219729
N5    N     N_1   0.561678 0.908854 0.144160 -0.274767
C34   C     C_1   0.453947 0.043026 0.765118 0.222465
N6    N     N_1   0.439783 0.090291 0.856212 -0.269728
N7    N     N_2   0.696267 0.643581 0.802058 -0.385964
H19   H     H_    0.787163 0.618000 0.807722 0.224095
C35   C     C_3   0.688922 0.756366 0.823899 -0.638643
H20   H     H_    0.699852 0.785715 0.741871 0.227801
H21   H     H_    0.766561 0.791865 0.888610 0.223364
H22   H     H_    0.597363 0.781726 0.856620 0.230284
N8    N     N_2   0.328868 0.335482 0.195235 -0.384799
H23   H     H_    0.360276 0.260311 0.176903 0.239513
C36   C     C_3   0.192825 0.340315 0.188408 -0.627683
H24   H     H_    0.160116 0.333446 0.274181 0.246849
H25   H     H_    0.149523 0.274059 0.123426 0.222710
H26   H     H_    0.160292 0.414671 0.163616 0.209704
C37   C     C_1   0.296459 0.320688 0.948392 0.232547
N9    N     N_1   0.227490 0.258638 0.892092 -0.280339
C38   C     C_1   0.722543 0.663033 0.049579 0.221935
N10   N     N_1   0.801199 0.716649 0.104790 -0.287830

loop_
_geom_bond_atom_site_label_1
_geom_bond_atom_site_label_2
_ccdc_geom_bond_type
C31   H12   S    
C16   C21   S    
C27   C29   A    
C8    C38   S    
Cu1   O8    S    
C4    C25   A    
C15   C22   S    
N3    H11   S    
C2    O2    A    
C17   C23   S    
Cu1   N1    S    
C38   N10   T    
C18   C24   S    
C19   C21   S    
C16   O6    A    
C12   N1    A    
C5    C6    A    
C18   C21   S    
C11   H10   S    
C32   H17   S    
N7    C35   S    
C7    C14   A    
C6    C27   A    
C3    H6    S    
C15   O7    A    
C19   N3    S    
C36   H25   S    
N4    H15   S    
C13   C14   A    
C32   H16   S    
C17   H1    S    
Cu1   O5    S    
C37   N9    T    
N3    C31   S    
N4    C32   S    
C34   N6    T    
C28   C34   S    
C4    C6    A    
C35   H21   S    
C1    O3    A    
C2    O4    A    
C36   H24   S    
C32   H18   S    
N8    H23   S    
Cu2   O7    S    
C12   H9    S    
C27   C33   S    
C5    C28   A    
N8    C36   S    
Cu1   Cu2   S    
C20   C23   S    
Cu2   N2    S    
C11   N2    A    
C24   H4    S    
C20   N4    S    
C18   H2    S    
Cu2   O6    S    
C7    C37   S    
C20   C22   S    
C23   H3    S    
Cu1   O4    S    
C31   H13   S    
C1    C26   S    
Cu2   O3    S    
C22   C24   S    
C36   H26   S    
C25   C30   A    
C7    C9    A    
C9    N2    A    
C10   N1    A    
Cu2   O2    S    
C3    C26   A    
C16   O8    A    
C12   C14   A    
C3    C5    A    
C35   H22   S    
C17   C22   S    
C21   C23   S    
C19   C24   S    
C35   H20   S    
C11   C13   A    
C1    O1    A    
C29   H8    S    
C28   C30   A    
C17   C19   S    
C30   H7    S    
C2    C25   S    
C18   C20   S    
C15   O5    A    
C8    C13   A    
N7    H19   S    
C10   N7    S    
C4    H5    S    
C26   C29   A    
C8    C10   A    
C33   N5    T    
Cu1   O1    S    
C31   H14   S    
C9    N8    S    
