data_mof_unit_6859.cif
_audit_creation_date              2012-12-10T19:48:02-0500
_audit_creation_method            fapswitch 2.2
_symmetry_space_group_name_H-M    P1
_symmetry_Int_Tables_number       1
_space_group_crystal_system       triclinic
_cell_length_a                    14.989982
_cell_length_b                    14.263029
_cell_length_c                    10.468285
_cell_angle_alpha                 89.115874
_cell_angle_beta                  90.018279
_cell_angle_gamma                 89.97918
_cell_volume                      2237.87927972

loop_
_atom_site_label
_atom_site_type_symbol
_atom_type_description
_atom_site_fract_x
_atom_site_fract_y
_atom_site_fract_z
_atom_type_partial_charge
C1    C     C_R   0.327857 0.499979 0.499227 0.788713
C2    C     C_R   0.562951 0.796179 0.568968 0.074145
C3    C     C_R   0.547436 0.202036 0.590931 0.093658
C4    C     C_R   0.435497 0.797076 0.433496 0.101230
C5    C     C_R   0.499383 0.053062 0.499577 0.063251
C6    C     C_R   0.499296 0.946881 0.499574 0.047388
C7    C     C_R   0.514613 0.500746 0.260121 0.876139
C8    C     C_R   0.486111 0.499237 0.740461 0.849660
C9    C     C_R   0.559386 0.673748 0.097619 0.035561
C10   C     C_R   0.456624 0.320343 0.905670 -0.025716
C11   C     C_R   0.436608 0.672228 0.895173 -0.015758
C12   C     C_R   0.673466 0.499938 0.495524 0.865879
C13   C     C_R   0.580267 0.335967 0.106267 0.008543
C14   C     C_R   0.526963 0.757722 0.046060 -0.285182
C15   C     C_R   0.494003 0.240209 0.964027 -0.051293
C16   C     C_R   0.463790 0.756931 0.949591 -0.092652
C17   C     C_R   0.558299 0.248132 0.058192 -0.073441
C18   C     C_R   0.473547 0.585344 0.942207 -0.009142
C19   C     C_R   0.534558 0.416765 0.059170 -0.015885
C20   C     C_R   0.523934 0.587184 0.055116 0.092739
C21   C     C_R   0.484184 0.411553 0.946417 0.015878
C22   C     C_R   0.467649 0.497647 0.878426 -0.248846
C23   C     C_R   0.050189 0.493277 0.437832 -0.002443
C24   C     C_R   0.536130 0.502452 0.123172 -0.167576
C25   C     C_R   0.083385 0.479899 0.560640 -0.084848
C26   C     C_R   0.909545 0.410784 0.448152 -0.100737
C27   C     C_R   0.911042 0.578694 0.421785 -0.097246
C28   C     C_R   0.106355 0.510390 0.334541 -0.079633
C29   C     C_R   0.174236 0.483624 0.583481 -0.043236
C30   C     C_R   0.818899 0.411441 0.474613 -0.027770
C31   C     C_R   0.820100 0.583871 0.448123 0.015364
C32   C     C_R   0.198563 0.512411 0.353303 -0.015418
C33   C     C_R   0.232383 0.499758 0.479163 -0.172535
C34   C     C_R   0.954836 0.493416 0.423382 0.009175
C35   C     C_R   0.771222 0.498816 0.473121 -0.194255
C36   C     C_2   0.637321 0.679424 0.183886 0.436423
C37   C     C_2   0.384655 0.305579 0.810771 0.507564
C38   C     C_2   0.365544 0.677013 0.796550 0.524518
C39   C     C_2   0.656535 0.343437 0.196167 0.443012
C40   C     C_2   0.206084 0.472474 0.716739 0.492305
C41   C     C_2   0.780615 0.318749 0.510704 0.453276
C42   C     C_2   0.782692 0.680462 0.453138 0.476437
C43   C     C_2   0.258303 0.525736 0.240925 0.442092
C44   C     C_2   0.396379 0.253495 0.311765 0.430449
C45   C     C_R   0.455912 0.105748 0.404322 -0.196357
C46   C     C_2   0.627869 0.748217 0.655012 0.409691
C47   C     C_2   0.606596 0.248188 0.684682 0.410891
C48   C     C_2   0.367376 0.749483 0.355494 0.458185
C49   C     C_R   0.565427 0.894963 0.563364 -0.187342
C50   C     C_R   0.543377 0.103253 0.594749 -0.148513
C51   C     C_R   0.432962 0.895874 0.436857 -0.178549
C52   C     C_R   0.453068 0.204560 0.407974 0.119068
H1    H     H_    0.589957 0.184932 0.094755 0.191420
H2    H     H_    0.619243 0.930838 0.610652 0.198044
H3    H     H_    0.575696 0.066033 0.672524 0.181225
H4    H     H_    0.378989 0.932286 0.388929 0.188124
H5    H     H_    0.653836 0.745691 0.227617 0.047417
H6    H     H_    0.352175 0.364135 0.766227 0.055352
H7    H     H_    0.337914 0.614128 0.758854 0.039156
H8    H     H_    0.677780 0.411167 0.230552 0.089516
H9    H     H_    0.274678 0.484582 0.739227 -0.024419
H10   H     H_    0.720618 0.292572 0.466678 0.127289
H11   H     H_    0.716410 0.697073 0.420708 0.092295
H12   H     H_    0.437974 0.823554 0.914927 0.199709
H13   H     H_    0.329936 0.521044 0.251305 0.041042
H14   H     H_    0.373179 0.323754 0.325038 0.133839
H15   H     H_    0.622879 0.675215 0.678893 0.141492
H16   H     H_    0.621205 0.321560 0.679224 0.141529
H17   H     H_    0.379871 0.682181 0.314776 0.105736
H18   H     H_    0.475559 0.170520 0.933924 0.193009
H19   H     H_    0.551349 0.824472 0.079705 0.158897
H20   H     H_    0.037200 0.468481 0.639168 0.199856
H21   H     H_    0.946857 0.345560 0.453797 0.189210
H22   H     H_    0.949777 0.642217 0.406881 0.193953
H23   H     H_    0.077951 0.520807 0.240142 0.199577
H24   H     H_    0.422817 0.070450 0.327019 0.180532
N1    N     N_R   0.500000 0.252470 0.500000 -0.181750
N2    N     N_R   0.500000 0.747530 0.500000 -0.186887
O1    O     O_R   0.369060 0.579480 0.500010 -0.624725
O2    O     O_2   0.361140 0.226959 0.780598 -0.552481
O3    O     O_2   0.337421 0.752019 0.755467 -0.546621
O4    O     O_2   0.698475 0.273927 0.229778 -0.586029
O5    O     O_2   0.155521 0.450080 0.803468 -0.512335
O6    O     O_2   0.818888 0.268074 0.588264 -0.511235
O7    O     O_2   0.828180 0.745258 0.491593 -0.513177
O8    O     O_2   0.228009 0.541691 0.134460 -0.529597
O9    O     O_2   0.371965 0.213843 0.215260 -0.578920
O10   O     O_2   0.688844 0.791501 0.704283 -0.528739
O11   O     O_2   0.643670 0.202871 0.769261 -0.552997
O12   O     O_R   0.630940 0.420520 0.499990 -0.672589
O13   O     O_2   0.295577 0.786721 0.332908 -0.538820
O14   O     O_R   0.630940 0.579480 0.499990 -0.655067
O15   O     O_R   0.369060 0.420520 0.500010 -0.639647
O16   O     O_R   0.499990 0.579480 0.316780 -0.648130
O17   O     O_R   0.500010 0.420520 0.683220 -0.652378
O18   O     O_R   0.500010 0.579480 0.683220 -0.642062
O19   O     O_R   0.499990 0.420520 0.316780 -0.658172
O20   O     O_2   0.686253 0.612043 0.201722 -0.617379
Zn1   Zn    Zn3+2 0.500000 0.606140 0.500000 0.922033
Zn2   Zn    Zn3+2 0.500000 0.393860 0.500000 0.917040

loop_
_geom_bond_atom_site_label_1
_geom_bond_atom_site_label_2
_ccdc_geom_bond_type
C11   C18   A    
C31   C42   S    
C14   H19   S    
C44   H14   S    
C8    O18   A    
C48   H17   S    
C1    C33   S    
C2    C46   S    
C30   C35   A    
C10   C37   S    
C12   O12   A    
C19   C21   A    
C10   C15   A    
C5    C6    S    
C7    C24   S    
O18   Zn1   S    
C29   C33   A    
C26   H21   S    
N1    Zn2   S    
C51   H4    S    
C7    O16   A    
C26   C34   A    
C20   C24   A    
C48   O13   D    
C9    C36   S    
C8    C22   S    
C30   C41   S    
C6    C51   A    
C27   H22   S    
C18   C20   A    
C37   H6    S    
C44   C52   S    
C27   C34   A    
C21   C22   A    
C47   O11   D    
C40   O5    D    
C8    O17   A    
C41   H10   S    
O12   Zn2   S    
C3    C50   A    
C46   O10   D    
C10   C21   A    
C25   C29   A    
C37   O2    D    
C13   C19   A    
C4    C51   A    
C27   C31   A    
C28   C32   A    
C36   H5    S    
C42   O7    D    
O17   Zn2   S    
C45   C52   A    
C41   O6    D    
C5    C45   A    
C40   H9    S    
C11   C38   S    
C9    C14   A    
C4    N2    A    
C2    N2    A    
C2    C49   A    
C11   C16   A    
C9    C20   A    
C43   H13   S    
C23   C34   S    
C25   H20   S    
C23   C28   A    
C12   C35   S    
O15   Zn2   S    
C26   C30   A    
C45   H24   S    
C38   O3    D    
C1    O1    A    
C31   C35   A    
C5    C50   A    
C52   N1    A    
C44   O9    D    
C17   H1    S    
C47   H16   S    
O19   Zn2   S    
C4    C48   S    
O1    Zn1   S    
C15   C17   A    
C15   H18   S    
C7    O19   A    
C18   C22   A    
C43   O8    D    
C12   O14   A    
C39   O4    D    
C50   H3    S    
C13   C17   A    
C32   C33   A    
C19   C24   A    
C46   H15   S    
O16   Zn1   S    
C39   H8    S    
C29   C40   S    
C3    C47   S    
C32   C43   S    
C14   C16   A    
C23   C25   A    
C6    C49   A    
C13   C39   S    
C38   H7    S    
C1    O15   A    
N2    Zn1   S    
C36   O20   D    
C16   H12   S    
C28   H23   S    
C42   H11   S    
C49   H2    S    
O14   Zn1   S    
C3    N1    A    
