data_mof_unit_39092.cif
_audit_creation_date              2012-12-10T18:23:51-0500
_audit_creation_method            fapswitch 2.2
_symmetry_space_group_name_H-M    P1
_symmetry_Int_Tables_number       1
_space_group_crystal_system       triclinic
_cell_length_a                    15.709756
_cell_length_b                    14.889841
_cell_length_c                    14.103277
_cell_angle_alpha                 89.517343
_cell_angle_beta                  89.604471
_cell_angle_gamma                 88.812919
_cell_volume                      3298.07913034

loop_
_atom_site_label
_atom_site_type_symbol
_atom_type_description
_atom_site_fract_x
_atom_site_fract_y
_atom_site_fract_z
_atom_type_partial_charge
C1    C     C_R   0.500913 0.327049 0.500400 0.866175
C2    C     C_R   0.499469 0.046568 0.502588 -0.011049
C3    C     C_R   0.432882 0.908332 0.454596 0.010075
C4    C     C_R   0.565523 0.091322 0.550155 0.012210
C5    C     C_R   0.634244 0.948184 0.589225 0.437136
C6    C     C_R   0.364706 0.051484 0.414499 0.452655
C7    C     C_R   0.631918 0.041839 0.594655 -0.121168
C8    C     C_R   0.365622 0.957699 0.411558 -0.126667
C9    C     C_R   0.451693 0.562694 0.798372 0.459125
C10   C     C_R   0.540465 0.430821 0.202001 0.481820
C11   C     C_R   0.543897 0.433960 0.798374 0.461251
C12   C     C_R   0.499877 0.672850 0.499567 0.873416
C13   C     C_R   0.457304 0.565957 0.200046 0.475309
C14   C     C_R   0.533362 0.422950 0.898944 -0.145033
C15   C     C_R   0.442467 0.557008 0.100770 -0.133552
C16   C     C_R   0.338048 0.500437 0.500281 0.890226
C17   C     C_R   0.661914 0.499849 0.499686 0.871697
C18   C     C_R   0.486312 0.488890 0.949445 0.005245
C19   C     C_R   0.486205 0.488705 0.050660 -0.018337
C20   C     C_R   0.439701 0.555391 0.898947 -0.143644
C21   C     C_R   0.530568 0.421041 0.101662 -0.118704
C22   C     C_R   0.564842 0.346721 0.950230 -0.065572
C23   C     C_R   0.500462 0.767981 0.498507 -0.069267
C24   C     C_R   0.383746 0.612876 0.050686 -0.042709
C25   C     C_R   0.560840 0.344713 0.050770 -0.037775
C26   C     C_R   0.380810 0.610418 0.950453 -0.057817
C27   C     C_3   0.974761 0.417844 0.531462 -0.157294
C28   C     C_3   0.025054 0.579728 0.467452 -0.160528
C29   C     C_3   0.031459 0.434379 0.443504 0.482053
C30   C     C_3   0.968375 0.563226 0.555389 0.474442
C31   C     C_1   0.249345 0.501225 0.500964 -0.152178
C32   C     C_1   0.750560 0.498288 0.498756 -0.217839
C33   C     C_3   0.026661 0.484922 0.588847 -0.144448
C34   C     C_R   0.500658 0.231740 0.501454 -0.054859
C35   C     C_3   0.973136 0.512684 0.410084 -0.133832
C36   C     C_3   0.083408 0.501233 0.500808 -0.040113
C37   C     C_3   0.916420 0.496347 0.498123 -0.036648
C38   C     C_1   0.174165 0.501626 0.501202 0.043378
C39   C     C_1   0.825708 0.496825 0.498104 0.024087
C40   C     C_R   0.435110 0.814871 0.453324 -0.224215
C41   C     C_R   0.563590 0.184841 0.550937 -0.187193
C42   C     C_3   0.013942 0.308210 0.351104 0.089803
C43   C     C_3   0.048549 0.266017 0.260541 -0.780292
C44   C     C_3   0.985261 0.690029 0.646964 0.091214
C45   C     C_R   0.565112 0.810891 0.545084 -0.257618
C46   C     C_3   0.950478 0.732815 0.737144 -0.787564
C47   C     C_1   0.595058 0.266952 0.900752 0.243156
C48   C     C_1   0.319978 0.665742 0.101816 0.251710
C49   C     C_1   0.580578 0.261000 0.100236 0.268143
C50   C     C_1   0.311894 0.658132 0.902277 0.250121
C51   C     C_1   0.945001 0.330934 0.567109 0.154587
C52   C     C_1   0.055440 0.666192 0.431231 0.183906
C53   C     C_1   0.941893 0.527351 0.313177 0.205699
C54   C     C_1   0.057788 0.470733 0.685867 0.216172
C55   C     C_3   0.759437 0.868144 0.564182 0.074598
C56   C     C_R   0.436746 0.188648 0.453643 -0.213571
C57   C     C_3   0.841035 0.921397 0.568396 -0.811369
C58   C     C_3   0.241243 0.134671 0.439202 0.076930
C59   C     C_3   0.158571 0.083035 0.438169 -0.809372
C60   C     C_1   0.699174 0.085525 0.645299 0.258694
C61   C     C_1   0.296670 0.913546 0.364108 0.223592
C62   C     C_3   0.465680 0.712149 0.767087 0.117726
C63   C     C_3   0.419030 0.795398 0.728891 -0.767390
C64   C     C_3   0.677949 0.411294 0.253820 0.167827
C65   C     C_3   0.736945 0.374576 0.176371 -0.926256
C66   C     C_3   0.684205 0.414698 0.764684 0.094912
C67   C     C_R   0.566848 0.903917 0.545175 -0.003203
C68   C     C_3   0.749646 0.358152 0.710742 -0.740403
C69   C     C_3   0.503429 0.709035 0.219547 0.104680
C70   C     C_3   0.463908 0.801395 0.199458 -0.802639
C71   C     C_R   0.433176 0.095710 0.456679 -0.007004
C72   C     C_R   0.499652 0.953073 0.500880 -0.003274
H1    H     H_    0.385329 0.777454 0.419661 0.168775
H2    H     H_    0.992371 0.743794 0.592582 0.155965
H3    H     H_    0.049099 0.659817 0.663142 0.145757
H4    H     H_    0.944209 0.680914 0.793649 0.260926
H5    H     H_    0.994489 0.785099 0.761591 0.214114
H6    H     H_    0.887032 0.764457 0.723653 0.261146
H7    H     H_    0.735453 0.869105 0.489785 0.126567
H8    H     H_    0.775474 0.796936 0.581686 0.182221
H9    H     H_    0.864818 0.923087 0.642312 0.268925
H10   H     H_    0.890536 0.889302 0.522589 0.214935
H11   H     H_    0.829130 0.991098 0.542581 0.248266
H12   H     H_    0.612063 0.222130 0.587089 0.161559
H13   H     H_    0.226268 0.205663 0.419670 0.187070
H14   H     H_    0.266281 0.135296 0.513143 0.125469
H15   H     H_    0.169624 0.013765 0.465682 0.248089
H16   H     H_    0.110420 0.117253 0.484042 0.216502
H17   H     H_    0.133518 0.080024 0.364853 0.268530
H18   H     H_    0.529280 0.706350 0.732376 0.157083
H19   H     H_    0.476256 0.722827 0.844130 0.111474
H20   H     H_    0.362981 0.811814 0.774235 0.243672
H21   H     H_    0.462185 0.853535 0.728711 0.213439
H22   H     H_    0.396603 0.783888 0.655749 0.269194
H23   H     H_    0.613880 0.770859 0.580623 0.161746
H24   H     H_    0.707210 0.391064 0.322357 0.176474
H25   H     H_    0.677392 0.486278 0.250494 0.127012
H26   H     H_    0.716369 0.399246 0.105610 0.249198
H27   H     H_    0.802526 0.398197 0.188410 0.236311
H28   H     H_    0.738676 0.300062 0.178306 0.273885
H29   H     H_    0.701137 0.411438 0.841202 0.121902
H30   H     H_    0.688898 0.485782 0.740422 0.158105
H31   H     H_    0.731174 0.352245 0.635275 0.250206
H32   H     H_    0.812919 0.389769 0.714594 0.217461
H33   H     H_    0.754263 0.290086 0.742954 0.260699
H34   H     H_    0.389075 0.228488 0.416075 0.169823
H35   H     H_    0.543189 0.690333 0.156404 0.098773
H36   H     H_    0.547828 0.715003 0.279823 0.174893
H37   H     H_    0.415294 0.818474 0.253802 0.271926
H38   H     H_    0.514011 0.852914 0.200033 0.214309
H39   H     H_    0.433565 0.802651 0.128664 0.240301
H40   H     H_    0.950286 0.338979 0.335121 0.132003
H41   H     H_    0.006390 0.253997 0.404894 0.157932
H42   H     H_    0.111729 0.233679 0.273856 0.266043
H43   H     H_    0.004152 0.214390 0.235417 0.206876
H44   H     H_    0.055313 0.318398 0.204613 0.264096
N1    N     N_R   0.500040 0.500070 0.750030 -0.183227
N2    N     N_1   0.082332 0.459635 0.762315 -0.188736
N3    N     N_1   0.753259 0.119830 0.685764 -0.197015
N4    N     N_1   0.241633 0.878291 0.326161 -0.167286
N5    N     N_R   0.499960 0.499930 0.249970 -0.199411
N6    N     N_1   0.618988 0.203164 0.861579 -0.178811
N7    N     N_1   0.268955 0.707710 0.142423 -0.159056
N8    N     N_1   0.595939 0.194038 0.139400 -0.183921
N9    N     N_1   0.256390 0.695701 0.864397 -0.191949
N10   N     N_1   0.921631 0.262396 0.595097 -0.206891
N11   N     N_1   0.079439 0.734267 0.402669 -0.188249
N12   N     N_1   0.917307 0.538985 0.236830 -0.215154
O1    O     O_R   0.500020 0.367860 0.580280 -0.579475
O2    O     O_3   0.926950 0.626403 0.614950 -0.610611
O3    O     O_3   0.700019 0.900146 0.632862 -0.617464
O4    O     O_3   0.299064 0.099475 0.370567 -0.609635
O5    O     O_3   0.417157 0.634892 0.748557 -0.570042
O6    O     O_3   0.595569 0.373605 0.250871 -0.585202
O7    O     O_3   0.601816 0.381349 0.748517 -0.576938
O8    O     O_3   0.438861 0.646833 0.243778 -0.576338
O9    O     O_R   0.499980 0.632140 0.419720 -0.594382
O10   O     O_R   0.500020 0.367840 0.419730 -0.577852
O11   O     O_R   0.499980 0.632160 0.580270 -0.594933
O12   O     O_R   0.376770 0.500000 0.580260 -0.587220
O13   O     O_R   0.623230 0.500000 0.419740 -0.642542
O14   O     O_R   0.376780 0.499980 0.419710 -0.593669
O15   O     O_R   0.623220 0.500020 0.580290 -0.600894
O16   O     O_3   0.072674 0.371063 0.383936 -0.602789
Zn1   Zn    Zn3+2 0.499990 0.500020 0.607200 1.015204
Zn2   Zn    Zn3+2 0.500010 0.499980 0.392800 1.001469

loop_
_geom_bond_atom_site_label_1
_geom_bond_atom_site_label_2
_ccdc_geom_bond_type
C66   C68   S    
C34   C56   A    
C23   C45   A    
C35   C53   S    
C9    N1    A    
C66   H30   S    
C16   O14   A    
C68   H31   S    
O10   Zn2   S    
C5    C67   A    
C10   N5    A    
C48   N7    T    
C46   H4    S    
C69   H35   S    
C27   C33   S    
C16   C31   S    
C15   C19   A    
C29   C36   S    
C62   O5    S    
N1    Zn1   S    
C35   C37   S    
C24   C26   A    
C65   H26   S    
C18   C19   A    
C1    O1    A    
C26   C50   S    
C43   H42   S    
C11   C14   A    
C27   C29   S    
C4    C41   A    
C44   O2    S    
C23   C40   A    
C57   H10   S    
C33   C36   S    
C55   H7    S    
C40   H1    S    
C60   N3    T    
C17   O13   A    
C67   C72   A    
C59   H17   S    
C32   C39   T    
O14   Zn2   S    
C59   H16   S    
C29   O16   S    
C42   H40   S    
C70   H38   S    
C43   H43   S    
C69   H36   S    
O11   Zn1   S    
C28   C35   S    
C58   O4    S    
C22   C25   A    
C63   H20   S    
C45   C67   A    
C57   H11   S    
O1    Zn1   S    
C8    C61   S    
C22   C47   S    
C61   N4    T    
C66   H29   S    
C16   O12   A    
C34   C41   A    
C4    C7    A    
C2    C72   A    
C58   H14   S    
C52   N11   T    
C44   C46   S    
C1    C34   S    
C59   H15   S    
C10   C21   A    
C6    C71   A    
C64   O6    S    
C24   C48   S    
C68   H32   S    
O9    Zn2   S    
C64   H24   S    
C6    O4    S    
C3    C8    A    
C46   H6    S    
C47   N6    T    
C6    C8    A    
C58   C59   S    
C30   O2    S    
C49   N8    T    
C30   C37   S    
C44   H3    S    
C2    C4    A    
C55   C57   S    
C62   C63   S    
C53   N12   T    
C11   O7    S    
C43   H44   S    
C13   N5    A    
C9    C20   A    
C12   C23   S    
C56   C71   A    
C62   H19   S    
C12   O11   A    
C50   N9    T    
C44   H2    S    
C56   H34   S    
O13   Zn2   S    
C15   C24   A    
C3    C40   A    
C69   O8    S    
C55   O3    S    
C13   C15   A    
C42   O16   S    
C13   O8    S    
C57   H9    S    
C42   C43   S    
C2    C71   A    
C45   H23   S    
C58   H13   S    
C7    C60   S    
C42   H41   S    
C5    C7    A    
C33   C54   S    
O15   Zn1   S    
C21   C25   A    
C64   H25   S    
C70   H37   S    
C30   C33   S    
C19   C21   A    
C12   O9    A    
C51   N10   T    
C14   C18   A    
C10   O6    S    
C65   H28   S    
O12   Zn1   S    
C46   H5    S    
C65   H27   S    
C28   C52   S    
C29   C35   S    
C31   C38   T    
C17   O15   A    
C64   C65   S    
C14   C22   A    
C54   N2    T    
C3    C72   A    
C28   C30   S    
C37   C39   S    
C55   H8    S    
C41   H12   S    
C20   C26   A    
C27   C37   S    
C62   H18   S    
C36   C38   S    
C27   C51   S    
C63   H22   S    
C18   C20   A    
C69   C70   S    
C25   C49   S    
C70   H39   S    
C66   O7    S    
C5    O3    S    
C28   C36   S    
C68   H33   S    
C17   C32   S    
N5    Zn2   S    
C63   H21   S    
C1    O10   A    
C9    O5    S    
C11   N1    A    
