data_mof_unit_55152.cif
_audit_creation_date              2012-12-10T20:45:28-0500
_audit_creation_method            fapswitch 2.2
_symmetry_space_group_name_H-M    P1
_symmetry_Int_Tables_number       1
_space_group_crystal_system       triclinic
_cell_length_a                    10.631147
_cell_length_b                    10.663263
_cell_length_c                    9.856327
_cell_angle_alpha                 89.755945
_cell_angle_beta                  89.735566
_cell_angle_gamma                 89.107835
_cell_volume                      1117.18285196

loop_
_atom_site_label
_atom_site_type_symbol
_atom_type_description
_atom_site_fract_x
_atom_site_fract_y
_atom_site_fract_z
_atom_type_partial_charge
C1    C     C_R   0.503417 0.259889 0.500161 0.902363
C2    C     C_R   0.214752 0.917208 0.227292 -0.185930
C3    C     C_R   0.930272 0.585233 0.422479 -0.141412
C4    C     C_R   0.872296 0.492615 0.499675 -0.080105
C5    C     C_R   0.941148 0.405633 0.578520 0.039606
C6    C     C_R   0.069991 0.415505 0.580274 -0.258547
C7    C     C_R   0.127874 0.507270 0.502063 -0.062501
C8    C     C_R   0.059321 0.594503 0.423483 0.092035
C9    C     C_R   0.826279 0.326615 0.780864 -0.091698
C10   C     C_R   0.774261 0.230664 0.858422 -0.239952
C11   C     C_R   0.781370 0.107192 0.813049 -0.246360
C12   C     C_R   0.260350 0.505247 0.500360 0.878943
C13   C     C_R   0.840000 0.078894 0.689570 0.665475
C14   C     C_R   0.891717 0.174736 0.608639 0.046908
C15   C     C_R   0.883191 0.300795 0.654848 -0.025430
C16   C     C_R   0.527695 0.062906 0.622144 0.050162
C17   C     C_R   0.523771 0.128376 0.500109 -0.158557
C18   C     C_R   0.546587 0.065403 0.377734 -0.348232
C19   C     C_R   0.550189 0.935921 0.376972 0.601926
C20   C     C_R   0.528481 0.870793 0.499233 -0.202644
C21   C     C_R   0.530399 0.935155 0.621996 -0.006673
C22   C     C_3   0.447608 0.928137 0.745138 0.494860
C23   C     C_R   0.505887 0.739898 0.499600 0.950449
C24   C     C_3   0.443660 0.070291 0.743739 -0.528354
C25   C     C_R   0.445287 0.404604 0.071781 0.053863
C26   C     C_R   0.564633 0.587115 0.071266 -0.039847
C27   C     C_R   0.564548 0.587212 0.927225 -0.095177
C28   C     C_R   0.445341 0.404629 0.929188 0.101291
C29   C     C_3   0.310781 0.367908 0.923239 -0.517544
C30   C     C_3   0.310523 0.367491 0.077179 0.500318
C31   C     C_R   0.739706 0.493522 0.499917 0.871497
C32   C     C_R   0.228969 0.899533 0.366880 -0.118711
C33   C     C_R   0.181617 0.792265 0.429594 -0.217801
C34   C     C_R   0.117686 0.702576 0.353451 -0.039163
C35   C     C_R   0.101161 0.722305 0.213310 0.744144
C36   C     C_R   0.151045 0.828637 0.150566 -0.198169
H1    H     H_    0.252072 0.000077 0.178837 0.161436
H2    H     H_    0.741643 0.032908 0.874111 0.169049
H3    H     H_    0.554293 0.115165 0.282050 0.191164
H4    H     H_    0.495650 0.886398 0.834911 0.093303
H5    H     H_    0.349349 0.110722 0.719341 0.216120
H6    H     H_    0.491174 0.112351 0.832460 0.168023
H7    H     H_    0.615127 0.658602 0.125019 0.196478
H8    H     H_    0.275791 0.969471 0.426788 0.164751
H9    H     H_    0.614721 0.658982 0.872277 0.150029
H10   H     H_    0.249378 0.442222 0.877952 0.259618
H11   H     H_    0.298829 0.273118 0.879733 0.143820
H12   H     H_    0.296346 0.273641 0.123821 0.043979
H13   H     H_    0.191864 0.780312 0.538036 0.222868
H14   H     H_    0.139073 0.843191 0.042605 0.187855
H15   H     H_    0.874298 0.653439 0.365957 0.165565
H16   H     H_    0.125716 0.348502 0.638750 0.152043
H17   H     H_    0.822674 0.421578 0.819498 0.179627
H18   H     H_    0.729407 0.251968 0.954613 0.165128
N1    N     N_R   0.499160 0.499140 0.142800 -0.089936
N2    N     N_R   0.499160 0.499180 0.857150 -0.085999
O1    O     O_R   0.500020 0.316790 0.614690 -0.609173
O2    O     O_R   0.500000 0.316760 0.385350 -0.646553
O3    O     O_R   0.316770 0.500030 0.614670 -0.617658
O4    O     O_R   0.316750 0.499990 0.385330 -0.551800
O5    O     O_R   0.500000 0.683240 0.614650 -0.605382
O6    O     O_R   0.499980 0.683210 0.385310 -0.564708
O7    O     O_R   0.683250 0.500010 0.614670 -0.627027
O8    O     O_R   0.683230 0.499970 0.385330 -0.625236
Zn1   Zn    Zn3+2 0.500010 0.500020 0.653130 0.976076
Zn2   Zn    Zn3+2 0.499990 0.499980 0.346870 1.011468
F1    F     F_    0.847756 0.957264 0.649769 -0.687689
C37   C     C_3   0.957793 0.139107 0.477107 -0.395636
C38   C     C_3   0.864071 0.103493 0.367808 -0.771712
H19   H     H_    0.812166 0.018423 0.398399 0.293510
H20   H     H_    0.796560 0.182284 0.349540 0.247785
H21   H     H_    0.915190 0.082863 0.271751 0.246830
H22   H     H_    0.015805 0.215942 0.436142 0.214109
H23   H     H_    0.023474 0.058903 0.496034 0.241730
F2    F     F_    0.563723 0.876540 0.256087 -0.678644
F3    F     F_    0.331343 0.877598 0.717992 -0.671318
F4    F     F_    0.233245 0.461027 0.129531 -0.591070
F5    F     F_    0.036419 0.639224 0.137773 -0.633862

loop_
_geom_bond_atom_site_label_1
_geom_bond_atom_site_label_2
_ccdc_geom_bond_type
O7    Zn1   S    
C16   C21   A    
C38   H21   S    
C24   H6    S    
C35   C36   A    
C22   F3    S    
C26   N1    A    
C28   N2    A    
C7    C8    A    
C25   C28   A    
C26   C27   A    
C29   H11   S    
C30   H12   S    
C28   C29   S    
C18   C19   A    
C5    C6    A    
C37   H23   S    
N2    Zn1   S    
C2    C32   A    
C34   C35   A    
C38   H20   S    
C12   O3    A    
O2    Zn2   S    
C23   O6    A    
C19   C20   A    
C16   C17   A    
C9    C10   A    
C27   H9    S    
O4    Zn2   S    
C16   C24   S    
C21   C22   S    
C24   H5    S    
C30   F4    S    
C26   H7    S    
C33   C34   A    
C7    C12   S    
O6    Zn2   S    
C31   O7    A    
C3    C8    A    
C3    H15   S    
C27   N2    A    
C37   C38   S    
C37   H22   S    
O8    Zn2   S    
C11   H2    S    
C18   H3    S    
C29   C30   S    
C1    O1    A    
C20   C23   S    
C22   H4    S    
C17   C18   A    
C32   H8    S    
C8    C34   S    
C22   C24   S    
C9    H17   S    
C3    C4    A    
N1    Zn2   S    
C36   H14   S    
C13   F1    S    
C2    C36   A    
C25   C30   S    
C31   O8    A    
C25   N1    A    
O1    Zn1   S    
C4    C5    A    
C6    C7    A    
C35   F5    S    
C1    C17   S    
C29   H10   S    
C32   C33   A    
C19   F2    S    
C9    C15   A    
C1    O2    A    
O3    Zn1   S    
C11   C13   A    
C2    H1    S    
C38   H19   S    
C10   H18   S    
C5    C15   S    
C4    C31   S    
C10   C11   A    
C12   O4    A    
O5    Zn1   S    
C23   O5    A    
C20   C21   A    
C14   C37   S    
C14   C15   A    
C6    H16   S    
C13   C14   A    
C33   H13   S    
