data_mof_unit_53710.cif
_audit_creation_date              2012-12-10T17:32:18-0500
_audit_creation_method            fapswitch 2.2
_symmetry_space_group_name_H-M    P1
_symmetry_Int_Tables_number       1
_space_group_crystal_system       triclinic
_cell_length_a                    12.326759
_cell_length_b                    13.176623
_cell_length_c                    15.043584
_cell_angle_alpha                 77.413367
_cell_angle_beta                  101.230895
_cell_angle_gamma                 116.910603
_cell_volume                      2113.48542598

loop_
_atom_site_label
_atom_site_type_symbol
_atom_type_description
_atom_site_fract_x
_atom_site_fract_y
_atom_site_fract_z
_atom_type_partial_charge
C1    C     C_R   0.854627 0.286428 0.507546 0.793138
C2    C     C_R   0.115149 0.549693 0.104089 0.108376
C3    C     C_R   0.781366 0.420102 0.025393 -0.200021
C4    C     C_R   0.783263 0.422862 0.932593 -0.190209
C5    C     C_R   0.895060 0.467274 0.896128 0.108504
C6    C     C_R   0.006637 0.509513 0.953017 0.037509
C7    C     C_R   0.120154 0.555482 0.916571 0.076903
C8    C     C_R   0.229548 0.601468 0.975143 -0.174067
C9    C     C_R   0.226806 0.597350 0.067825 -0.207341
C10   C     C_R   0.896459 0.469344 0.803660 -0.237775
C11   C     C_R   0.007293 0.511527 0.766924 -0.137466
C12   C     C_R   0.002238 0.503743 0.670644 0.783138
C13   C     C_R   0.120554 0.556340 0.822451 -0.064627
C14   C     C_R   0.275240 0.017615 0.364760 -0.138052
C15   C     C_R   0.228196 0.835246 0.463285 -0.063677
C16   C     C_R   0.814182 0.082913 0.560348 -0.267108
C17   C     C_R   0.738503 0.966147 0.567027 -0.154241
C18   C     C_R   0.616690 0.926873 0.528993 0.372513
C19   C     C_R   0.567595 0.007151 0.485021 -0.002553
C20   C     C_R   0.651002 0.123747 0.463980 0.037220
C21   C     C_R   0.440584 0.976660 0.458792 0.074760
C22   C     C_R   0.401079 0.054748 0.396092 0.127047
C23   C     C_R   0.145383 0.713725 0.486077 0.788634
C24   C     C_R   0.488889 0.165780 0.364763 -0.023057
C25   C     C_R   0.611911 0.197169 0.397259 -0.257493
C26   C     C_R   0.351200 0.872833 0.497629 -0.172704
C27   C     C_R   0.190148 0.908290 0.397058 -0.209454
C28   C     C_R   0.772470 0.163020 0.508659 -0.088677
C29   C     C_R   0.340566 0.320180 0.639509 -0.280459
C30   C     C_R   0.761654 0.645188 0.375353 0.023668
C31   C     C_R   0.660462 0.666580 0.338883 -0.216063
C32   C     C_R   0.549327 0.602566 0.376938 0.081248
C33   C     C_R   0.544516 0.524992 0.460408 -0.056079
C34   C     C_R   0.999935 0.499609 0.329147 0.806707
C35   C     C_R   0.649741 0.501819 0.491583 0.283624
C36   C     C_R   0.441532 0.468141 0.514030 -0.006621
C37   C     C_R   0.440356 0.379860 0.587900 0.188355
C38   C     C_R   0.540282 0.353704 0.612076 -0.271926
C39   C     C_R   0.643785 0.415692 0.566893 -0.163505
C40   C     C_R   0.342241 0.498414 0.501963 0.077753
C41   C     C_R   0.243108 0.349945 0.620081 0.108895
C42   C     C_R   0.112441 0.545808 0.196863 -0.222075
C43   C     C_R   0.000719 0.500722 0.232604 -0.068296
C44   C     C_R   0.890241 0.459681 0.175741 -0.239683
C45   C     C_R   0.891258 0.461782 0.082760 0.110593
C46   C     C_R   0.004366 0.506766 0.046616 0.069423
Cu1   Cu    Cu3+1 0.098270 0.475420 0.521130 0.969971
Cu2   Cu    Cu3+1 0.901730 0.524580 0.478870 0.928030
H1    H     H_    0.196963 0.580645 0.241047 0.173037
H2    H     H_    0.241223 0.069697 0.312374 0.192561
H3    H     H_    0.375326 0.819868 0.555846 0.190662
H4    H     H_    0.906813 0.110369 0.594184 0.171912
H5    H     H_    0.775580 0.905473 0.601337 0.181694
H6    H     H_    0.677219 0.280258 0.368269 0.161192
H7    H     H_    0.164965 0.303301 0.658739 0.125393
H8    H     H_    0.540492 0.287246 0.669104 0.145698
H9    H     H_    0.338415 0.251438 0.694980 0.138075
H10   H     H_    0.803869 0.425185 0.204149 0.138160
H11   H     H_    0.340498 0.571761 0.454751 0.164254
H12   H     H_    0.844825 0.691304 0.342342 0.141282
H13   H     H_    0.666876 0.727649 0.276602 0.179764
H14   H     H_    0.717602 0.392863 0.593548 0.200020
H15   H     H_    0.694065 0.385469 0.052284 0.147410
H16   H     H_    0.697223 0.390192 0.889255 0.150245
H17   H     H_    0.810540 0.435130 0.760310 0.148541
H18   H     H_    0.318477 0.641871 0.950586 0.194915
H19   H     H_    0.312447 0.632257 0.111038 0.194798
H20   H     H_    0.095247 0.879702 0.368158 0.154927
N1    N     N_R   0.246280 0.438190 0.553160 -0.190988
N2    N     N_R   0.754320 0.561190 0.447410 -0.208065
O1    O     O_R   0.972510 0.318130 0.526570 -0.581324
O2    O     O_R   0.806530 0.359650 0.490890 -0.606825
O3    O     O_R   0.082980 0.479210 0.647590 -0.572509
O4    O     O_R   0.917000 0.520730 0.611900 -0.591986
O5    O     O_R   0.193470 0.640350 0.509110 -0.564887
O6    O     O_R   0.027490 0.681870 0.473430 -0.584967
O7    O     O_R   0.083000 0.479270 0.388100 -0.584630
O8    O     O_R   0.917020 0.520790 0.352410 -0.596807
C47   C     C_2   0.458641 0.255715 0.302138 0.330245
H21   H     H_    0.522091 0.316405 0.253936 0.067958
O9    O     O_2   0.368522 0.268789 0.308017 -0.559532
Cl1   Cl    Cl    0.542282 0.778370 0.522122 -0.668301
C48   C     C_2   0.439197 0.606157 0.319248 0.336794
H22   H     H_    0.353622 0.528961 0.319216 0.067101
O10   O     O_2   0.443510 0.694659 0.270177 -0.551251
C49   C     C_2   0.237106 0.607123 0.780239 0.388901
H23   H     H_    0.247533 0.667054 0.716785 0.065681
O11   O     O_2   0.318871 0.577406 0.812809 -0.531924

loop_
_geom_bond_atom_site_label_1
_geom_bond_atom_site_label_2
_ccdc_geom_bond_type
C16   C28   A    
C21   C26   A    
C8    H18   S    
C12   O4    A    
C31   H13   S    
C19   C20   A    
C23   O6    A    
C7    C8    A    
C14   H2    S    
C45   C46   A    
C2    C46   A    
C1    O1    A    
C48   H22   S    
C36   C37   A    
C19   C21   A    
C34   O7    A    
C5    C6    A    
C49   O11   D    
C20   C25   A    
C33   C36   A    
C18   C19   A    
Cu2   O8    S    
C32   C48   S    
Cu2   O6    S    
C41   H7    S    
C27   H20   S    
C33   C35   A    
Cu1   N1    S    
C31   C32   A    
C35   N2    A    
C44   H10   S    
C8    C9    A    
C30   H12   S    
C13   C49   S    
C1    C28   S    
C14   C27   A    
C15   C23   S    
C40   H11   S    
C12   O3    A    
Cu2   O2    S    
C30   N2    A    
C38   C39   A    
C1    O2    A    
C40   N1    A    
Cu2   O4    S    
C36   C40   A    
C25   H6    S    
Cu1   O3    S    
Cu2   N2    S    
C47   O9    D    
C49   H23   S    
C16   C17   A    
C15   C26   A    
C20   C28   A    
C3    C45   A    
C35   C39   A    
C43   C44   A    
C9    H19   S    
C37   C38   A    
C24   C47   S    
C15   C27   A    
Cu1   Cu2   S    
C17   C18   A    
C24   C25   A    
Cu1   O1    S    
C48   O10   D    
C29   H9    S    
C22   C24   A    
C42   C43   A    
Cu1   O7    S    
C3    C4    A    
C17   H5    S    
C44   C45   A    
C41   N1    A    
C10   H17   S    
C39   H14   S    
C6    C46   A    
C29   C41   A    
C34   C43   S    
C16   H4    S    
C23   O5    A    
C4    C5    A    
C11   C12   S    
C6    C7    A    
C3    H15   S    
C4    H16   S    
C32   C33   A    
C14   C22   A    
Cu1   O5    S    
C5    C10   A    
C26   H3    S    
C34   O8    A    
C11   C13   A    
C30   C31   A    
C2    C42   A    
C18   Cl1   S    
C10   C11   A    
C42   H1    S    
C47   H21   S    
C7    C13   A    
C38   H8    S    
C29   C37   A    
C21   C22   A    
C2    C9    A    
