data_mof_unit_31313.cif
_audit_creation_date              2013-03-05T15:44:28-0500
_audit_creation_method            fapswitch 2.2
_symmetry_space_group_name_H-M    P1
_symmetry_Int_Tables_number       1
_space_group_crystal_system       triclinic
_cell_length_a                    19.978681
_cell_length_b                    7.219171
_cell_length_c                    19.731009
_cell_angle_alpha                 89.871369
_cell_angle_beta                  98.273604
_cell_angle_gamma                 90.171203
_cell_volume                      2816.15805371

loop_
_atom_site_label
_atom_site_type_symbol
_atom_site_description
_atom_site_fract_x
_atom_site_fract_y
_atom_site_fract_z
_atom_type_partial_charge
O1    O     O_R   0.673210 0.377390 0.686390 -0.505476
O2    O     O_R   0.326790 0.622610 0.313610 -0.505514
O3    O     O_R   0.826790 0.877390 0.813610 -0.506382
O4    O     O_R   0.173210 0.122610 0.186390 -0.506363
O5    O     O_R   0.810750 0.706450 0.681250 -0.516237
O6    O     O_R   0.189250 0.293550 0.318750 -0.516241
O7    O     O_R   0.689250 0.206450 0.818750 -0.514474
O8    O     O_R   0.310750 0.793550 0.181250 -0.514487
C1    C     C_R   0.832014 0.539181 0.666364 0.865788
C2    C     C_R   0.167986 0.460819 0.333636 0.865771
C3    C     C_R   0.668033 0.038515 0.833594 0.868621
C4    C     C_R   0.331964 0.961485 0.166402 0.868590
O9    O     O_R   0.672750 0.707060 0.678240 -0.559739
O10   O     O_R   0.327250 0.292940 0.321760 -0.559734
O11   O     O_R   0.827250 0.207060 0.821760 -0.560260
O12   O     O_R   0.172750 0.792940 0.178240 -0.560293
O13   O     O_R   0.687800 0.877990 0.810580 -0.553045
O14   O     O_R   0.312200 0.122010 0.189420 -0.552983
O15   O     O_R   0.812200 0.377990 0.689420 -0.555126
O16   O     O_R   0.187800 0.622010 0.310580 -0.555122
C5    C     C_R   0.648881 0.539258 0.660832 0.882521
C6    C     C_R   0.351119 0.460742 0.339168 0.882504
C7    C     C_R   0.851106 0.039384 0.839187 0.881091
C8    C     C_R   0.148898 0.960617 0.160808 0.881166
O17   O     O_3   0.755100 0.544060 0.793420 -0.255277
O18   O     O_3   0.244900 0.455940 0.206580 -0.255258
O19   O     O_3   0.744900 0.044060 0.706580 -0.256195
O20   O     O_3   0.255100 0.955940 0.293420 -0.256202
V1    V     V_3+5 0.749050 0.818670 0.741950 1.323183
V2    V     V_3+5 0.250950 0.181330 0.258050 1.323198
V3    V     V_3+5 0.750950 0.318670 0.758050 1.323977
V4    V     V_3+5 0.249050 0.681330 0.241950 1.323955
C9    C     C_R   0.088521 0.960847 0.106706 -0.142494
C10   C     C_R   0.911497 0.039153 0.893273 -0.142458
C11   C     C_R   0.411524 0.461318 0.393218 -0.141009
C12   C     C_R   0.588476 0.538682 0.606782 -0.140988
C13   C     C_R   0.013677 0.200676 0.944772 -0.001467
C14   C     C_R   0.986355 0.799300 0.055188 -0.001422
C15   C     C_R   0.485909 0.698176 0.555790 0.001974
C16   C     C_R   0.514091 0.301824 0.444210 0.001984
C17   C     C_R   0.958700 0.183623 0.893028 -0.069365
C18   C     C_R   0.041323 0.816358 0.106938 -0.069365
C19   C     C_R   0.540973 0.681414 0.607439 -0.068220
C20   C     C_R   0.459027 0.318586 0.392561 -0.068215
C21   C     C_R   0.921052 0.906855 0.946821 0.322279
C22   C     C_R   0.078974 0.093153 0.053156 0.322251
C23   C     C_R   0.579200 0.407878 0.552886 0.322776
C24   C     C_R   0.420799 0.592122 0.447114 0.322773
C25   C     C_R   0.976783 0.925253 0.000296 -0.036097
C26   C     C_R   0.023246 0.074749 0.999675 -0.036088
C27   C     C_R   0.523402 0.426121 0.499471 -0.035458
C28   C     C_R   0.476598 0.573878 0.500529 -0.035452
H1    H     H_    0.048435 0.314335 0.941301 0.157112
H2    H     H_    0.951606 0.685610 0.058642 0.157057
H3    H     H_    0.450878 0.810328 0.559633 0.159321
H4    H     H_    0.549122 0.189672 0.440367 0.159323
C29   C     C_R   0.563713 0.158112 0.878142 0.375203
C30   C     C_R   0.436265 0.841873 0.121827 0.375186
C31   C     C_R   0.932207 0.670478 0.616430 0.363647
C32   C     C_R   0.067795 0.329520 0.383573 0.363644
C33   C     C_R   0.617129 0.028903 0.881536 -0.170437
C34   C     C_R   0.382856 0.971093 0.118447 -0.170446
C35   C     C_R   0.882377 0.531363 0.617734 -0.178583
C36   C     C_R   0.117625 0.468637 0.382267 -0.178581
C37   C     C_R   0.622554 0.888608 0.931248 -0.052392
C38   C     C_R   0.377425 0.111380 0.068733 -0.052390
C39   C     C_R   0.880066 0.382403 0.571974 -0.038133
C40   C     C_R   0.119936 0.617597 0.428027 -0.038126
C41   C     C_R   0.575884 0.872902 0.978089 -0.008073
C42   C     C_R   0.424084 0.127071 0.021880 -0.008104
C43   C     C_R   0.925216 0.369914 0.523622 -0.006127
C44   C     C_R   0.074787 0.630083 0.476380 -0.006128
C45   C     C_R   0.523320 0.005173 0.976035 -0.011620
C46   C     C_R   0.476650 0.994798 0.023931 -0.011623
C47   C     C_R   0.976015 0.507107 0.523154 0.001492
C48   C     C_R   0.023987 0.492890 0.476849 0.001489
C49   C     C_R   0.517143 0.147451 0.925932 -0.036252
C50   C     C_R   0.482825 0.852517 0.074032 -0.036249
C51   C     C_R   0.979173 0.658099 0.569217 -0.022866
C52   C     C_R   0.020829 0.341898 0.430787 -0.022871
C53   C     C_R   0.581656 0.731305 0.028343 0.331345
C54   C     C_R   0.418303 0.268643 0.971616 0.331322
C55   C     C_R   0.921622 0.221404 0.476513 0.336332
C56   C     C_R   0.078381 0.778590 0.523490 0.336330
C57   C     C_R   0.536084 0.724956 0.075973 -0.071080
C58   C     C_R   0.463871 0.274979 0.923981 -0.071091
C59   C     C_R   0.969533 0.208469 0.431513 -0.067680
C60   C     C_R   0.030471 0.791526 0.568491 -0.067682
H5    H     H_    0.542408 0.616166 0.114106 0.171099
H6    H     H_    0.457534 0.383735 0.885835 0.171138
H7    H     H_    0.964863 0.094591 0.395587 0.168023
H8    H     H_    0.035142 0.905401 0.604419 0.168022
N1    N     N_R   0.126972 0.240706 0.051546 0.085684
O21   O     O_R   0.189470 0.203980 0.045159 -0.348745
O22   O     O_R   0.108920 0.411417 0.059392 -0.352911
N2    N     N_R   0.873054 0.759311 0.948439 0.085625
O23   O     O_R   0.810596 0.796023 0.954997 -0.348664
O24   O     O_R   0.891067 0.588637 0.940442 -0.352847
N3    N     N_R   0.372458 0.737852 0.449120 0.087291
O25   O     O_R   0.390258 0.909598 0.442245 -0.348746
O26   O     O_R   0.309812 0.698490 0.454331 -0.330827
N4    N     N_R   0.627541 0.262147 0.550880 0.087294
O27   O     O_R   0.609742 0.090401 0.557755 -0.348736
O28   O     O_R   0.690187 0.301508 0.545669 -0.330830
H9    H     H_    0.047084 0.714405 0.147747 0.134244
H10   H     H_    0.952937 0.285564 0.852214 0.134266
H11   H     H_    0.453442 0.217857 0.351476 0.137018
H12   H     H_    0.546558 0.782144 0.648524 0.137022
N5    N     N_R   0.555322 0.294722 0.824542 0.078639
O29   O     O_R   0.563967 0.469628 0.839117 -0.342671
O30   O     O_R   0.544546 0.243118 0.760755 -0.367751
N6    N     N_R   0.444662 0.705269 0.175427 0.078607
O31   O     O_R   0.435922 0.530388 0.160867 -0.342616
O32   O     O_R   0.455556 0.756874 0.239213 -0.367700
N7    N     N_R   0.937377 0.818549 0.665354 0.077968
O33   O     O_R   0.952449 0.783062 0.730431 -0.367767
O34   O     O_R   0.923766 0.987680 0.645183 -0.369810
N8    N     N_R   0.062625 0.181446 0.334650 0.077972
O35   O     O_R   0.047550 0.216930 0.269573 -0.367774
O36   O     O_R   0.076240 0.012317 0.354822 -0.369805
H13   H     H_    0.664839 0.794524 0.933875 0.189165
H14   H     H_    0.335142 0.205471 0.066112 0.189225
H15   H     H_    0.842441 0.275783 0.574702 0.192136
H16   H     H_    0.157560 0.724218 0.425298 0.192140
N9    N     N_R   0.633255 0.591791 0.032093 0.091742
O37   O     O_R   0.639561 0.491919 0.978599 -0.332707
O38   O     O_R   0.665032 0.541074 0.091429 -0.296768
N10   N     N_R   0.366700 0.408148 0.967861 0.091745
O39   O     O_R   0.360396 0.508035 0.021353 -0.332685
O40   O     O_R   0.334922 0.458853 0.908526 -0.296791
N11   N     N_R   0.868573 0.085053 0.471864 0.097021
O41   O     O_R   0.805636 0.137274 0.463359 -0.278790
O42   O     O_R   0.882231 0.911895 0.462029 -0.349770
N12   N     N_R   0.131432 0.914936 0.528141 0.097020
O43   O     O_R   0.194369 0.862709 0.536644 -0.278796
O44   O     O_R   0.117776 0.088094 0.537980 -0.349767

loop_
_geom_bond_atom_site_label_1
_geom_bond_atom_site_label_2
_geom_bond_distance
_ccdc_geom_bond_type
O17   V3    1.768928 S    
C55   C59   1.399574 A    
C30   C34   1.413663 A    
N1    O21   1.301014 A    
C59   H7    1.081745 S    
O19   V1    1.766501 S    
O13   V1    1.999285 S    
C45   C46   1.421613 A    
O1    C5    1.336520 A    
O3    C7    1.336798 A    
C44   C48   1.416932 A    
O15   V3    1.996417 S    
N10   O39   1.300780 A    
C40   H16   1.080925 S    
N6    O32   1.301117 A    
C14   C25   1.404770 A    
N11   O42   1.301208 A    
O18   V4    1.768928 S    
C6    C11   1.491088 S    
C56   N12   1.437642 S    
C30   N6    1.436805 S    
C9    C18   1.404475 A    
C36   C40   1.402073 A    
O9    V1    1.999711 S    
C14   C18   1.393140 A    
C52   C59   1.405916 A    
N5    O30   1.301074 A    
O4    C8    1.336798 A    
N7    O33   1.301061 A    
O1    V3    1.990062 S    
C12   C23   1.415499 A    
O2    V4    1.990065 S    
O3    V1    1.989441 S    
C42   C46   1.417736 A    
N6    O31   1.301079 A    
N8    O35   1.301057 A    
C1    O15   1.328336 A    
C15   H3    1.081675 S    
C60   H8    1.081746 S    
C2    O16   1.328337 A    
C16   H4    1.081676 S    
N2    O24   1.300927 A    
O2    C6    1.336519 A    
C38   H14   1.080919 S    
C41   C45   1.417685 A    
O14   V2    1.999285 S    
C37   H13   1.080909 S    
C43   C55   1.415407 A    
C40   C44   1.407313 A    
C13   H1    1.081762 S    
O11   C7    1.328565 A    
C15   C28   1.404875 A    
O12   C8    1.328561 A    
C23   N4    1.434705 S    
C9    C22   1.415493 A    
C10   C17   1.404468 A    
O10   V2    1.999709 S    
C11   C24   1.415499 A    
C51   C60   1.405921 A    
O5    V1    2.011337 S    
C35   C39   1.402076 A    
O7    V3    2.006195 S    
C17   H10   1.083745 S    
C34   C38   1.401853 A    
C27   C28   1.422787 A    
O8    V4    2.006194 S    
C29   C49   1.418611 A    
C58   H6    1.081410 S    
C31   C51   1.417278 A    
C5    C12   1.491086 S    
C57   H5    1.081416 S    
C23   C27   1.425830 A    
N7    O34   1.300697 A    
C54   C58   1.400040 A    
O11   V3    2.001106 S    
O4    V2    1.989441 S    
C29   N5    1.436822 S    
C56   C60   1.399572 A    
O7    C3    1.329028 A    
C47   C48   1.420170 A    
O5    C1    1.328710 A    
C4    C34   1.486630 S    
N3    O25   1.301007 A    
C14   H2    1.081761 S    
C21   C25   1.425580 A    
O8    C4    1.329032 A    
C7    C10   1.491310 S    
N2    O23   1.301027 A    
O9    C5    1.328203 A    
C10   C21   1.415440 A    
C32   N8    1.435428 S    
C11   C20   1.404299 A    
C54   N10   1.437546 S    
C44   C56   1.415407 A    
C50   C57   1.405581 A    
C31   N7    1.435426 S    
O6    V2    2.011336 S    
C49   C58   1.405598 A    
N9    O37   1.300771 A    
N11   O41   1.301220 A    
O16   V4    1.996417 S    
C20   H11   1.083763 S    
C24   N3    1.434706 S    
C32   C52   1.417279 A    
C53   N9    1.437548 S    
C1    C35   1.488186 S    
C39   H15   1.080920 S    
C3    O13   1.327327 A    
C2    C36   1.488188 S    
C48   C52   1.416233 A    
C3    C33   1.486636 S    
N10   O40   1.301247 A    
O6    C2    1.328710 A    
C15   C19   1.393192 A    
C29   C33   1.413702 A    
N12   O43   1.301216 A    
O12   V4    2.001106 S    
C16   C27   1.404874 A    
C22   C26   1.425617 A    
C31   C35   1.414807 A    
C8    C9    1.491309 S    
N4    O28   1.300990 A    
C32   C36   1.414806 A    
O10   C6    1.328203 A    
O20   V2    1.766499 S    
C55   N11   1.437643 S    
N5    O29   1.301123 A    
C43   C47   1.416933 A    
C13   C26   1.404813 A    
C38   C42   1.408295 A    
C22   N1    1.434498 S    
C37   C41   1.408322 A    
N12   O44   1.301207 A    
C39   C43   1.407312 A    
C19   H12   1.083765 S    
C13   C17   1.393176 A    
N4    O27   1.301007 A    
C42   C54   1.415871 A    
C18   H9    1.083743 S    
N8    O36   1.300697 A    
C41   C53   1.415849 A    
C30   C50   1.418543 A    
C33   C37   1.401866 A    
C16   C20   1.393193 A    
N1    O22   1.300934 A    
C25   C26   1.422612 A    
C46   C50   1.417234 A    
C4    O14   1.327342 A    
N9    O38   1.301277 A    
C45   C49   1.417260 A    
C12   C19   1.404299 A    
C24   C28   1.425829 A    
C21   N2    1.434454 S    
C47   C51   1.416236 A    
N3    O26   1.300988 A    
C53   C57   1.400017 A    
