data_mof_unit_26493.cif
_audit_creation_date              2012-12-10T18:06:38-0500
_audit_creation_method            fapswitch 2.2
_symmetry_space_group_name_H-M    P1
_symmetry_Int_Tables_number       1
_space_group_crystal_system       triclinic
_cell_length_a                    12.646941
_cell_length_b                    12.956792
_cell_length_c                    15.408116
_cell_angle_alpha                 84.19839
_cell_angle_beta                  99.021053
_cell_angle_gamma                 95.726488
_cell_volume                      2471.76239105

loop_
_atom_site_label
_atom_site_type_symbol
_atom_type_description
_atom_site_fract_x
_atom_site_fract_y
_atom_site_fract_z
_atom_type_partial_charge
C1    C     C_R   0.441398 0.308597 0.502639 0.865633
C2    C     C_R   0.645354 0.391661 0.938352 0.178223
C3    C     C_R   0.537537 0.407527 0.902050 0.087921
C4    C     C_R   0.434435 0.510327 0.335595 0.867951
C5    C     C_R   0.725522 0.401538 0.883710 -0.202000
C6    C     C_R   0.700666 0.433084 0.794105 -0.194469
C7    C     C_R   0.514172 0.434039 0.811404 -0.253460
C8    C     C_R   0.658313 0.944492 0.370718 -0.202134
C9    C     C_R   0.573488 0.803226 0.458381 -0.074112
C10   C     C_R   0.306210 0.160224 0.524959 -0.290165
C11   C     C_R   0.260164 0.059641 0.510351 0.210550
C12   C     C_R   0.422017 0.437518 0.103938 0.096388
C13   C     C_R   0.314103 0.994020 0.467581 -0.078316
C14   C     C_R   0.415787 0.032244 0.442520 -0.031428
C15   C     C_R   0.444188 0.139725 0.436376 0.077020
C16   C     C_R   0.553907 0.692768 0.486757 0.889785
C17   C     C_R   0.494451 0.968137 0.428864 0.111334
C18   C     C_R   0.579781 0.009038 0.382684 0.185702
C19   C     C_R   0.586439 0.114521 0.352660 -0.247034
C20   C     C_R   0.520004 0.180042 0.380860 -0.175092
C21   C     C_R   0.497522 0.868511 0.470862 -0.188419
C22   C     C_R   0.654387 0.841150 0.407636 -0.196927
C23   C     C_R   0.316118 0.459077 0.066554 0.129484
C24   C     C_R   0.397266 0.201701 0.487302 -0.138934
C25   C     C_R   0.136600 0.628276 0.636367 0.086614
C26   C     C_R   0.758794 0.382472 0.392526 0.025577
C27   C     C_R   0.854031 0.352494 0.372997 -0.253900
C28   C     C_R   0.563380 0.482469 0.664249 0.870941
C29   C     C_R   0.951083 0.393402 0.416971 -0.207215
C30   C     C_R   0.952763 0.467143 0.478880 0.045555
C31   C     C_R   0.853046 0.492085 0.498317 0.236406
C32   C     C_R   0.048648 0.516561 0.522356 -0.047751
C33   C     C_R   0.042528 0.583654 0.588816 0.100944
C34   C     C_R   0.492381 0.405242 0.050395 0.082011
C35   C     C_R   0.942522 0.606080 0.605993 -0.280307
C36   C     C_R   0.849744 0.561897 0.560606 -0.218132
C37   C     C_R   0.150471 0.503099 0.501614 -0.107750
C38   C     C_R   0.235167 0.611165 0.613048 0.069770
C39   C     C_R   0.391318 0.498989 0.242104 -0.105668
C40   C     C_R   0.594767 0.451655 0.758182 -0.060668
C41   C     C_R   0.249662 0.500850 0.116130 -0.252587
C42   C     C_R   0.286361 0.521570 0.203742 0.214712
C43   C     C_R   0.457290 0.457993 0.191566 -0.314950
C44   C     C_2   0.258888 0.892933 0.439223 0.910470
C45   C     C_R   0.458647 0.407303 0.958202 0.057209
C46   C     C_3   0.067506 0.046807 0.473656 -0.736337
C47   C     C_2   0.332767 0.652746 0.668583 0.999190
C48   C     C_3   0.134759 0.797578 0.690528 -0.702984
C49   C     C_3   0.119853 0.511726 0.263958 -0.775997
C50   C     C_R   0.348697 0.416484 0.925271 -0.184902
C51   C     C_R   0.278770 0.442194 0.978899 -0.204054
C52   C     C_R   0.597220 0.376978 0.084613 -0.223353
C53   C     C_R   0.672237 0.369747 0.029027 -0.238192
H1    H     H_    0.196347 0.453727 0.950444 0.145871
H2    H     H_    0.934176 0.659885 0.653266 0.161571
H3    H     H_    0.162158 0.454207 0.452176 0.154494
H4    H     H_    0.683570 0.352686 0.357305 0.114699
H5    H     H_    0.022757 0.365293 0.401798 0.134954
H6    H     H_    0.852598 0.297628 0.324198 0.143245
H7    H     H_    0.776200 0.584187 0.575621 0.215501
H8    H     H_    0.763951 0.443359 0.753299 0.160731
H9    H     H_    0.753213 0.352701 0.057569 0.142966
H10   H     H_    0.170013 0.520176 0.085816 0.142221
H11   H     H_    0.538192 0.445392 0.221184 0.169200
H12   H     H_    0.808003 0.388750 0.910896 0.134199
H13   H     H_    0.314329 0.405578 0.857930 0.159056
H14   H     H_    0.624158 0.361028 0.154184 0.136304
H15   H     H_    0.153876 0.769012 0.461828 0.342939
H16   H     H_    0.152785 0.050155 0.599290 0.219718
H17   H     H_    0.993126 0.012465 0.499077 0.237434
H18   H     H_    0.072212 0.011606 0.411701 0.250530
H19   H     H_    0.062881 0.132223 0.459352 0.220197
H20   H     H_    0.418853 0.653610 0.790397 0.341000
H21   H     H_    0.080691 0.655216 0.752154 0.222769
H22   H     H_    0.208878 0.828933 0.663386 0.286068
H23   H     H_    0.713221 0.791039 0.395683 0.167659
H24   H     H_    0.133520 0.835040 0.752006 0.219949
H25   H     H_    0.063158 0.817550 0.642399 0.250256
H26   H     H_    0.209583 0.646460 0.226037 0.244211
H27   H     H_    0.064583 0.507957 0.200585 0.224389
H28   H     H_    0.080342 0.550550 0.309695 0.247445
H29   H     H_    0.134852 0.431509 0.292834 0.235573
H30   H     H_    0.647360 0.147388 0.313171 0.134688
H31   H     H_    0.722788 0.974071 0.333820 0.139516
H32   H     H_    0.440534 0.841543 0.514924 0.201418
H33   H     H_    0.267194 0.207726 0.562303 0.170049
H34   H     H_    0.526961 0.261595 0.358438 0.154323
H35   H     H_    0.433459 0.445110 0.780910 0.192875
N1    N     N_R   0.239390 0.551900 0.544730 -0.157031
N2    N     N_R   0.759950 0.448600 0.455730 -0.128540
N3    N     N_2   0.159843 0.025540 0.538994 -0.272143
N4    N     N_2   0.134083 0.685986 0.710253 -0.302035
N5    N     N_2   0.220214 0.570655 0.250850 -0.271614
O1    O     O_R   0.374950 0.371210 0.521360 -0.621429
O2    O     O_R   0.186549 0.835168 0.488971 -0.793841
O3    O     O_2   0.390214 0.724948 0.639661 -0.653288
O4    O     O_R   0.351920 0.617044 0.757800 -0.831631
O5    O     O_R   0.542050 0.338030 0.492790 -0.609635
O6    O     O_R   0.368720 0.526070 0.390200 -0.573364
O7    O     O_R   0.535820 0.492890 0.361630 -0.636927
O8    O     O_R   0.457950 0.661970 0.507210 -0.560335
O9    O     O_R   0.625050 0.628790 0.478640 -0.641896
O10   O     O_R   0.464180 0.507110 0.638370 -0.615177
O11   O     O_R   0.631280 0.473930 0.609800 -0.632279
O12   O     O_2   0.276055 0.860786 0.371196 -0.631213
Zn1   Zn    Zn3+2 0.388420 0.522150 0.519080 0.978875
Zn2   Zn    Zn3+2 0.611580 0.477850 0.480920 0.923329

loop_
_geom_bond_atom_site_label_1
_geom_bond_atom_site_label_2
_ccdc_geom_bond_type
C49   H29   S    
C27   C29   A    
C42   N5    S    
C41   C42   A    
C19   C20   A    
C48   H22   S    
C22   H23   S    
C44   O12   D    
H20   O4    S    
C38   N1    A    
C26   C27   A    
C6    H8    S    
C9    C16   S    
N2    Zn2   S    
H26   N5    S    
C12   C43   A    
C3    C7    A    
C31   C36   A    
C30   C31   A    
C9    C22   A    
C28   C40   S    
C48   H25   S    
C20   H34   S    
C18   C19   A    
H21   N4    S    
C37   H3    S    
O1    Zn1   S    
C35   C36   A    
C1    O1    A    
C25   N4    S    
N1    Zn1   S    
C8    C22   A    
C47   O3    D    
C46   H19   S    
C13   C14   A    
C14   C17   A    
C19   H30   S    
C43   H11   S    
C50   C51   A    
C39   C42   A    
C15   C20   A    
C21   H32   S    
H15   O2    S    
C35   H2    S    
C5    H12   S    
C39   C43   A    
C46   N3    S    
C10   C24   A    
C3    C45   A    
C8    C18   A    
O5    Zn2   S    
C48   H24   S    
C29   C30   A    
C25   C38   A    
C53   H9    S    
C28   O11   A    
C23   C51   A    
C7    H35   S    
C12   C23   A    
C4    C39   S    
C7    C40   A    
C31   N2    A    
C17   C18   A    
C46   H18   S    
O9    Zn2   S    
C34   C45   A    
C32   C37   A    
C50   H13   S    
C38   C47   S    
C52   H14   S    
C16   O9    A    
C15   C24   A    
C4    O7    A    
C6    C40   A    
C2    C5    A    
C41   H10   S    
C12   C34   A    
C52   C53   A    
O8    Zn1   S    
O6    Zn1   S    
C10   H33   S    
O7    Zn2   S    
C8    H31   S    
C36   H7    S    
C2    C53   A    
C47   O4    S    
C1    O5    A    
C26   N2    A    
C34   C52   A    
C23   C41   A    
C49   H27   S    
C37   N1    A    
C51   H1    S    
C32   C33   A    
C2    C3    A    
C44   O2    S    
C27   H6    S    
C30   C32   A    
C11   C13   A    
C28   O10   A    
C9    C21   A    
C5    C6    A    
C45   C50   A    
C33   C35   A    
O10   Zn1   S    
C49   H28   S    
C13   C44   S    
C26   H4    S    
C17   C21   A    
C46   H17   S    
C10   C11   A    
C11   N3    S    
C16   O8    A    
C29   H5    S    
C1    C24   S    
C48   N4    S    
C4    O6    A    
C14   C15   A    
C49   N5    S    
H16   N3    S    
O11   Zn2   S    
C25   C33   A    
