data_mof_unit_29664.cif
_audit_creation_date              2012-12-11T15:06:50-0500
_audit_creation_method            fapswitch 2.2
_symmetry_space_group_name_H-M    P1
_symmetry_Int_Tables_number       1
_space_group_crystal_system       triclinic
_cell_length_a                    19.809502
_cell_length_b                    11.422696
_cell_length_c                    18.6948
_cell_angle_alpha                 90.025921
_cell_angle_beta                  90.106068
_cell_angle_gamma                 89.995677
_cell_volume                      4230.21275162

loop_
_atom_site_label
_atom_site_type_symbol
_atom_type_description
_atom_site_fract_x
_atom_site_fract_y
_atom_site_fract_z
_atom_type_partial_charge
C1    C     C_R   0.761481 0.522968 0.639357 0.552335
C2    C     C_R   0.238525 0.523068 0.360634 0.553519
C3    C     C_R   0.261481 0.022968 0.639357 0.552335
C4    C     C_R   0.738525 0.023068 0.360634 0.553519
C5    C     C_3   0.809585 0.134301 0.446443 -0.266973
C6    C     C_3   0.190347 0.134263 0.553711 -0.266919
C7    C     C_3   0.309585 0.634301 0.446443 -0.266973
C8    C     C_3   0.690347 0.634263 0.553711 -0.266918
C9    C     C_3   0.746988 0.058057 0.436137 0.037934
C10   C     C_3   0.252927 0.057951 0.563878 0.038165
C11   C     C_3   0.246988 0.558057 0.436137 0.037934
C12   C     C_3   0.752927 0.557951 0.563878 0.038165
C13   C     C_3   0.761637 0.096269 0.572849 0.082663
C14   C     C_3   0.238210 0.096428 0.427212 0.082226
C15   C     C_3   0.261637 0.596269 0.572849 0.082663
C16   C     C_3   0.738210 0.596428 0.427212 0.082226
C17   C     C_3   0.751896 0.964992 0.562082 0.083545
C18   C     C_3   0.247939 0.965094 0.437853 0.083891
C19   C     C_3   0.251896 0.464992 0.562082 0.083545
C20   C     C_3   0.747939 0.465094 0.437853 0.083891
C21   C     C_3   0.823631 0.137988 0.527154 -0.237101
C22   C     C_3   0.176251 0.138102 0.473001 -0.237194
C23   C     C_3   0.323631 0.637988 0.527154 -0.237101
C24   C     C_3   0.676251 0.638102 0.473001 -0.237194
C25   C     C_3   0.004370 0.209394 0.459088 -0.234840
C26   C     C_3   0.995541 0.209353 0.540751 -0.234928
C27   C     C_3   0.504370 0.709395 0.459088 -0.234840
C28   C     C_3   0.495540 0.709353 0.540751 -0.234928
C29   C     C_3   0.063656 0.409192 0.474078 -0.215947
C30   C     C_3   0.936179 0.409058 0.525894 -0.216020
C31   C     C_3   0.563656 0.909192 0.474078 -0.215947
C32   C     C_3   0.436179 0.909058 0.525894 -0.216020
C33   C     C_3   0.941225 0.392068 0.444773 -0.265608
C34   C     C_3   0.058624 0.392102 0.555175 -0.265679
C35   C     C_3   0.441225 0.892068 0.444773 -0.265608
C36   C     C_3   0.558624 0.892102 0.555175 -0.265679
C37   C     C_3   0.010159 0.336064 0.430945 0.068498
C38   C     C_3   0.989720 0.335998 0.568982 0.068435
C39   C     C_3   0.510159 0.836064 0.430945 0.068498
C40   C     C_3   0.489720 0.835998 0.568982 0.068435
C41   C     C_3   0.817969 0.012274 0.044320 -0.246221
C42   C     C_3   0.181524 0.013259 0.955381 -0.240616
C43   C     C_3   0.317969 0.512274 0.044320 -0.246221
C44   C     C_3   0.681524 0.513259 0.955381 -0.240616
C45   C     C_R   0.775886 0.125715 0.648075 0.588641
C46   C     C_R   0.224029 0.125928 0.352004 0.589157
C47   C     C_R   0.275886 0.625715 0.648075 0.588641
C48   C     C_R   0.724029 0.625928 0.352004 0.589157
C49   C     C_3   0.818823 0.014837 0.963453 -0.277674
C50   C     C_3   0.180455 0.016264 0.036225 -0.277565
C51   C     C_3   0.318823 0.514837 0.963453 -0.277674
C52   C     C_3   0.680455 0.516264 0.036225 -0.277565
C53   C     C_3   0.690680 0.012687 0.028683 -0.191112
C54   C     C_3   0.308646 0.010790 0.971360 -0.193003
C55   C     C_3   0.190680 0.512687 0.028683 -0.191112
C56   C     C_3   0.808646 0.510790 0.971360 -0.193003
C57   C     C_3   0.748693 0.192661 0.061521 0.087356
C58   C     C_3   0.251614 0.192462 0.938894 0.084732
C59   C     C_3   0.248693 0.692661 0.061521 0.087356
C60   C     C_3   0.751614 0.692462 0.938894 0.084732
C61   C     C_3   0.749079 0.061804 0.073224 0.028035
C62   C     C_3   0.250864 0.061748 0.926791 0.034886
C63   C     C_3   0.249079 0.561804 0.073224 0.028035
C64   C     C_3   0.750864 0.561748 0.926791 0.034886
C65   C     C_3   0.762002 0.098228 0.934828 0.058191
C66   C     C_3   0.238066 0.097993 0.065193 0.057547
C67   C     C_3   0.262002 0.598228 0.934828 0.058191
C68   C     C_3   0.738066 0.597993 0.065193 0.057547
C69   C     C_3   0.696007 0.034832 0.947016 0.069298
C70   C     C_3   0.303399 0.032921 0.053202 0.068210
C71   C     C_3   0.196007 0.534832 0.947016 0.069298
C72   C     C_3   0.803399 0.532921 0.053202 0.068210
C73   C     C_3   0.759674 0.211196 0.980499 -0.148418
C74   C     C_3   0.241938 0.211047 0.019901 -0.142818
C75   C     C_3   0.259674 0.711196 0.980499 -0.148418
C76   C     C_3   0.741938 0.711047 0.019901 -0.142818
C77   C     C_3   0.004282 0.478341 0.040117 -0.230474
C78   C     C_3   0.996234 0.478498 0.959728 -0.231517
C79   C     C_3   0.504282 0.978341 0.040117 -0.230474
C80   C     C_3   0.496234 0.978498 0.959728 -0.231517
C81   C     C_3   0.064763 0.284815 0.026270 -0.207691
C82   C     C_3   0.934464 0.286661 0.973689 -0.209846
C83   C     C_3   0.564762 0.784815 0.026270 -0.207691
C84   C     C_3   0.434464 0.786661 0.973689 -0.209846
C85   C     C_3   0.944392 0.291594 0.055550 -0.241982
C86   C     C_3   0.055038 0.290633 0.944445 -0.237905
C87   C     C_3   0.444392 0.791594 0.055550 -0.241982
C88   C     C_3   0.555038 0.790633 0.944445 -0.237905
C89   C     C_R   0.969279 0.342726 0.645222 0.533978
C90   C     C_R   0.030656 0.342761 0.354731 0.533978
C91   C     C_R   0.469279 0.842726 0.645222 0.533978
C92   C     C_R   0.530656 0.842761 0.354731 0.533978
C93   C     C_3   0.011005 0.351696 0.069447 0.024813
C94   C     C_3   0.988818 0.351869 0.930516 0.023518
C95   C     C_3   0.511005 0.851696 0.069447 0.024813
C96   C     C_3   0.488818 0.851869 0.930516 0.023518
C97   C     C_R   0.761476 0.527567 0.850234 0.519703
C98   C     C_R   0.238454 0.527716 0.149820 0.525427
C99   C     C_R   0.261476 0.027567 0.850234 0.519703
C100  C     C_R   0.738454 0.027716 0.149820 0.525427
C101  C     C_R   0.774445 0.131663 0.858229 0.542058
C102  C     C_R   0.225576 0.131441 0.141817 0.543567
C103  C     C_R   0.274445 0.631663 0.858229 0.542058
C104  C     C_R   0.725576 0.631441 0.141817 0.543567
C105  C     C_R   0.968118 0.353381 0.853951 0.527373
C106  C     C_R   0.031822 0.353314 0.146027 0.526792
C107  C     C_R   0.468118 0.853381 0.853951 0.527373
C108  C     C_R   0.531822 0.853314 0.146027 0.526792
C109  C     C_3   0.687258 0.130657 0.465135 -0.260483
C110  C     C_3   0.312650 0.130509 0.534917 -0.260365
C111  C     C_3   0.187258 0.630657 0.465135 -0.260483
C112  C     C_3   0.812650 0.630509 0.534917 -0.260365
C113  C     C_3   0.695227 0.152323 0.545482 -0.276645
C114  C     C_3   0.304646 0.152380 0.454618 -0.276645
C115  C     C_3   0.195227 0.652323 0.545482 -0.276645
C116  C     C_3   0.804646 0.652380 0.454618 -0.276645
C117  C     C_3   0.757146 0.943248 0.480823 -0.206587
C118  C     C_3   0.242723 0.943199 0.519078 -0.206752
C119  C     C_3   0.257146 0.443248 0.480823 -0.206587
C120  C     C_3   0.742723 0.443199 0.519078 -0.206752
Cr1   Cr    Cr6+3 0.885690 0.492860 0.745310 1.010150
Cr2   Cr    Cr6+3 0.114310 0.492860 0.254690 1.012208
Cr3   Cr    Cr6+3 0.385690 0.992860 0.745310 1.010150
Cr4   Cr    Cr6+3 0.614310 0.992860 0.254690 1.012208
Cr5   Cr    Cr6+3 0.729880 0.332270 0.748190 1.006098
Cr6   Cr    Cr6+3 0.270120 0.332270 0.251810 1.006354
Cr7   Cr    Cr6+3 0.229880 0.832270 0.748190 1.006098
Cr8   Cr    Cr6+3 0.770120 0.832270 0.251810 1.006354
Cr9   Cr    Cr6+3 0.888120 0.178590 0.753010 1.009067
Cr10  Cr    Cr6+3 0.111880 0.178590 0.246990 1.009524
Cr11  Cr    Cr6+3 0.388120 0.678590 0.753010 1.009067
Cr12  Cr    Cr6+3 0.611880 0.678590 0.246990 1.009524
H1    H     H_    0.639776 0.088239 0.454466 0.124353
H2    H     H_    0.360085 0.087916 0.545439 0.124213
H3    H     H_    0.139775 0.588239 0.454466 0.124353
H4    H     H_    0.860085 0.587916 0.545439 0.124213
H5    H     H_    0.864425 0.073847 0.535702 0.118939
H6    H     H_    0.135436 0.073994 0.464440 0.118729
H7    H     H_    0.364425 0.573847 0.535702 0.118939
H8    H     H_    0.635436 0.573994 0.464440 0.118729
H9    H     H_    0.809494 0.914887 0.469894 0.126443
H10   H     H_    0.190398 0.914755 0.530011 0.126360
H11   H     H_    0.309494 0.414888 0.469894 0.126443
H12   H     H_    0.690398 0.414755 0.530011 0.126360
H13   H     H_    0.048291 0.159289 0.443514 0.132693
H14   H     H_    0.951633 0.159204 0.556273 0.132551
H15   H     H_    0.548291 0.659289 0.443514 0.132693
H16   H     H_    0.451633 0.659204 0.556273 0.132551
H17   H     H_    0.961477 0.163428 0.433287 0.109061
H18   H     H_    0.038451 0.163401 0.566499 0.109048
H19   H     H_    0.461477 0.663428 0.433287 0.109061
H20   H     H_    0.538451 0.663401 0.566499 0.109048
H21   H     H_    0.615182 0.895158 0.454834 0.106151
H22   H     H_    0.384666 0.894975 0.545135 0.106156
H23   H     H_    0.115182 0.395158 0.454834 0.106151
H24   H     H_    0.884666 0.394975 0.545135 0.106156
H25   H     H_    0.599902 0.835341 0.574888 0.104153
H26   H     H_    0.399964 0.835272 0.424997 0.104425
H27   H     H_    0.099902 0.335341 0.574888 0.104153
H28   H     H_    0.899964 0.335272 0.424997 0.104425
H29   H     H_    0.936553 0.477938 0.417036 0.122102
H30   H     H_    0.063245 0.477973 0.582971 0.122084
H31   H     H_    0.436553 0.977938 0.417036 0.122102
H32   H     H_    0.563245 0.977973 0.582971 0.122084
H33   H     H_    0.949198 0.502472 0.535924 0.133383
H34   H     H_    0.050636 0.502621 0.464114 0.133268
H35   H     H_    0.449198 0.002472 0.535924 0.133383
H36   H     H_    0.550636 0.002621 0.464114 0.133268
H37   H     H_    0.829843 0.922659 0.061853 0.151929
H38   H     H_    0.169565 0.923430 0.938057 0.150423
H39   H     H_    0.329843 0.422659 0.061853 0.151929
H40   H     H_    0.669565 0.423430 0.938057 0.150423
H41   H     H_    0.683330 0.213549 0.436715 0.190372
H42   H     H_    0.316711 0.213253 0.563503 0.190341
H43   H     H_    0.183330 0.713549 0.436715 0.190372
H44   H     H_    0.816711 0.713253 0.563503 0.190341
H45   H     H_    0.860730 0.064643 0.065085 0.149470
H46   H     H_    0.139257 0.066185 0.934112 0.161967
H47   H     H_    0.360730 0.564643 0.065085 0.149470
H48   H     H_    0.639257 0.566185 0.934112 0.161967
H49   H     H_    0.870478 0.038959 0.946969 0.145518
H50   H     H_    0.129095 0.041739 0.052580 0.144839
H51   H     H_    0.370478 0.538959 0.946969 0.145518
H52   H     H_    0.629095 0.541739 0.052580 0.144839
H53   H     H_    0.811254 0.924948 0.942236 0.130508
H54   H     H_    0.187083 0.926149 0.057529 0.131077
H55   H     H_    0.311254 0.424949 0.942236 0.130508
H56   H     H_    0.687083 0.426149 0.057529 0.131077
H57   H     H_    0.693722 0.921312 0.038420 0.074644
H58   H     H_    0.304075 0.919379 0.961732 0.073281
H59   H     H_    0.193722 0.421312 0.038420 0.074644
H60   H     H_    0.804074 0.419379 0.961732 0.073281
H61   H     H_    0.697062 0.950143 0.918209 0.177906
H62   H     H_    0.301234 0.948452 0.081752 0.184366
H63   H     H_    0.197062 0.450143 0.918209 0.177906
H64   H     H_    0.801234 0.448452 0.081752 0.184366
H65   H     H_    0.699126 0.229533 0.077805 0.152840
H66   H     H_    0.300711 0.229557 0.921241 0.144734
H67   H     H_    0.199126 0.729533 0.077805 0.152840
H68   H     H_    0.800711 0.729557 0.921241 0.144734
H69   H     H_    0.809031 0.244672 0.974215 0.127298
H70   H     H_    0.193456 0.247560 0.027465 0.127168
H71   H     H_    0.309031 0.744672 0.974215 0.127298
H72   H     H_    0.693456 0.747560 0.027465 0.127168
H73   H     H_    0.721502 0.270888 0.959547 0.142063
H74   H     H_    0.281480 0.267939 0.040492 0.143077
H75   H     H_    0.221502 0.770888 0.959547 0.142063
H76   H     H_    0.781480 0.767939 0.040492 0.143077
H77   H     H_    0.644503 0.051253 0.049251 0.153273
H78   H     H_    0.355467 0.046997 0.950951 0.153797
H79   H     H_    0.144503 0.551253 0.049251 0.153273
H80   H     H_    0.855467 0.546997 0.950951 0.153797
H81   H     H_    0.693668 0.244877 0.557908 0.146619
H82   H     H_    0.306189 0.244934 0.442324 0.146450
H83   H     H_    0.193668 0.744877 0.557908 0.146619
H84   H     H_    0.806189 0.744934 0.442324 0.146450
H85   H     H_    0.045705 0.535293 0.054620 0.147383
H86   H     H_    0.954981 0.536249 0.945336 0.148267
H87   H     H_    0.545705 0.035293 0.054620 0.147383
H88   H     H_    0.454981 0.036249 0.945336 0.148267
H89   H     H_    0.961654 0.521718 0.065440 0.187885
H90   H     H_    0.039194 0.520948 0.934392 0.186398
H91   H     H_    0.461654 0.021718 0.065440 0.187885
H92   H     H_    0.539194 0.020948 0.934392 0.186398
H93   H     H_    0.608980 0.831187 0.040481 0.115678
H94   H     H_    0.391038 0.835767 0.959891 0.115609
H95   H     H_    0.108980 0.331187 0.040481 0.115678
H96   H     H_    0.891038 0.335767 0.959891 0.115609
H97   H     H_    0.595574 0.843041 0.919107 0.180230
H98   H     H_    0.404102 0.844154 0.081208 0.178165
H99   H     H_    0.095574 0.343041 0.919107 0.180230
H100  H     H_    0.904102 0.344154 0.081208 0.178165
H101  H     H_    0.944399 0.202406 0.079232 0.129104
H102  H     H_    0.054690 0.201689 0.920389 0.133382
H103  H     H_    0.444399 0.702406 0.079232 0.129104
H104  H     H_    0.554690 0.701689 0.920389 0.133382
H105  H     H_    0.930212 0.194674 0.956163 0.132937
H106  H     H_    0.067317 0.192604 0.043446 0.132437
H107  H     H_    0.430212 0.694674 0.956163 0.132937
H108  H     H_    0.567317 0.692604 0.043446 0.132437
H109  H     H_    0.651164 0.115873 0.574439 0.102714
H110  H     H_    0.348674 0.115997 0.425574 0.102964
H111  H     H_    0.151164 0.615873 0.574439 0.102714
H112  H     H_    0.848674 0.615997 0.425574 0.102964
H113  H     H_    0.722111 0.874265 0.464728 0.090416
H114  H     H_    0.277765 0.874151 0.535040 0.090409
H115  H     H_    0.222111 0.374265 0.464728 0.090416
H116  H     H_    0.777765 0.374151 0.535040 0.090409
H117  H     H_    0.700655 0.940030 0.580493 0.143484
H118  H     H_    0.299158 0.940156 0.419364 0.143859
H119  H     H_    0.200655 0.440030 0.580493 0.143484
H120  H     H_    0.799157 0.440156 0.419364 0.143859
H121  H     H_    0.853620 0.096994 0.417194 0.123400
H122  H     H_    0.146322 0.096957 0.582954 0.123354
H123  H     H_    0.353620 0.596994 0.417194 0.123400
H124  H     H_    0.646322 0.596957 0.582954 0.123354
H125  H     H_    0.801053 0.223661 0.424577 0.150088
H126  H     H_    0.198906 0.223581 0.575672 0.149965
H127  H     H_    0.301053 0.723661 0.424577 0.150088
H128  H     H_    0.698906 0.723581 0.575672 0.149965
H129  H     H_    0.842164 0.224159 0.543145 0.105084
H130  H     H_    0.157693 0.224301 0.457160 0.104900
H131  H     H_    0.342164 0.724159 0.543145 0.105084
H132  H     H_    0.657693 0.724301 0.457160 0.104900
O1    O     O_R   0.957210 0.449410 0.665480 -0.530620
O2    O     O_R   0.042790 0.449410 0.334520 -0.530605
O3    O     O_R   0.457210 0.949410 0.665480 -0.530620
O4    O     O_R   0.542790 0.949410 0.334520 -0.530605
O5    O     O_R   0.736260 0.212010 0.826560 -0.487065
O6    O     O_R   0.263740 0.212010 0.173440 -0.486880
O7    O     O_R   0.236260 0.712010 0.826560 -0.487065
O8    O     O_R   0.763740 0.712010 0.173440 -0.486880
O9    O     O_R   0.832520 0.095300 0.836000 -0.534146
O10   O     O_R   0.167480 0.095300 0.164000 -0.532988
O11   O     O_R   0.332520 0.595300 0.836000 -0.534146
O12   O     O_R   0.667480 0.595300 0.164000 -0.532988
O13   O     O_R   0.946380 0.253940 0.826940 -0.512428
O14   O     O_R   0.053620 0.253940 0.173060 -0.512790
O15   O     O_R   0.446380 0.753940 0.826940 -0.512428
O16   O     O_R   0.553620 0.753940 0.173060 -0.512790
O17   O     O_3   0.834560 0.334570 0.748840 -0.294088
O18   O     O_3   0.165440 0.334570 0.251160 -0.294996
O19   O     O_3   0.334560 0.834570 0.748840 -0.294088
O20   O     O_3   0.665440 0.834570 0.251160 -0.294996
O21   O     O_R   0.820730 0.541240 0.668250 -0.502397
O22   O     O_R   0.179270 0.541240 0.331750 -0.501703
O23   O     O_R   0.320730 0.041240 0.668250 -0.502397
O24   O     O_R   0.679270 0.041240 0.331750 -0.501703
O25   O     O_R   0.714240 0.455060 0.663710 -0.534696
O26   O     O_R   0.285760 0.455060 0.336290 -0.534730
O27   O     O_R   0.214240 0.955060 0.663710 -0.534696
O28   O     O_R   0.785760 0.955060 0.336290 -0.534730
O29   O     O_R   0.736780 0.204870 0.675910 -0.531823
O30   O     O_R   0.263220 0.204870 0.324090 -0.531511
O31   O     O_R   0.236780 0.704870 0.675910 -0.531823
O32   O     O_R   0.763220 0.704870 0.324090 -0.531511
O33   O     O_R   0.833070 0.087590 0.673490 -0.481980
O34   O     O_R   0.166930 0.087590 0.326510 -0.481312
O35   O     O_R   0.333070 0.587590 0.673490 -0.481980
O36   O     O_R   0.666930 0.587590 0.326510 -0.481312
O37   O     O_R   0.946890 0.246800 0.676300 -0.517199
O38   O     O_R   0.053110 0.246800 0.323700 -0.517510
O39   O     O_R   0.446890 0.746800 0.676300 -0.517199
O40   O     O_R   0.553110 0.746800 0.323700 -0.517510
O41   O     O_R   0.956650 0.457120 0.827980 -0.530873
O42   O     O_R   0.043350 0.457120 0.172020 -0.530927
O43   O     O_R   0.456650 0.957120 0.827980 -0.530873
O44   O     O_R   0.543350 0.957120 0.172020 -0.530927
O45   O     O_R   0.820220 0.548390 0.818890 -0.510595
O46   O     O_R   0.179780 0.548390 0.181110 -0.507301
O47   O     O_R   0.320220 0.048390 0.818890 -0.510595
O48   O     O_R   0.679780 0.048390 0.181110 -0.507301
O49   O     O_R   0.713680 0.462770 0.826210 -0.529019
O50   O     O_R   0.286320 0.462770 0.173790 -0.531859
O51   O     O_R   0.213680 0.962770 0.826210 -0.529019
O52   O     O_R   0.786320 0.962770 0.173790 -0.531859
O53   O     O_3   0.797369 0.897895 0.602956 -0.722076
H133  H     H_    0.843174 0.904210 0.582294 0.321719
O54   O     O_3   0.202431 0.898082 0.396928 -0.720350
H134  H     H_    0.156609 0.904513 0.417585 0.321589
O55   O     O_3   0.297369 0.397895 0.602956 -0.722076
H135  H     H_    0.343174 0.404210 0.582294 0.321719
O56   O     O_3   0.702431 0.398083 0.396928 -0.720350
H136  H     H_    0.656609 0.404513 0.417585 0.321589
O57   O     O_3   0.799396 0.250530 0.101183 -0.791644
H137  H     H_    0.813645 0.203261 0.143066 0.339106
O58   O     O_3   0.199455 0.248797 0.900464 -0.791843
H138  H     H_    0.194756 0.212314 0.852162 0.337221
O59   O     O_3   0.299396 0.750530 0.101183 -0.791644
H139  H     H_    0.313645 0.703261 0.143066 0.339106
O60   O     O_3   0.699455 0.748797 0.900464 -0.791843
H140  H     H_    0.694756 0.712314 0.852162 0.337221
O61   O     O_3   0.642147 0.103227 0.921652 -0.743540
H141  H     H_    0.632123 0.075284 0.872471 0.326829
O62   O     O_3   0.357771 0.099372 0.078790 -0.743452
H142  H     H_    0.367899 0.069889 0.127844 0.325952
O63   O     O_3   0.142147 0.603227 0.921652 -0.743540
H143  H     H_    0.132123 0.575284 0.872471 0.326829
O64   O     O_3   0.857771 0.599372 0.078790 -0.743452
H144  H     H_    0.867898 0.569889 0.127844 0.325952

loop_
_geom_bond_atom_site_label_1
_geom_bond_atom_site_label_2
_ccdc_geom_bond_type
C82   C94   S    
C119  H11   S    
C7    H127  S    
C120  H12   S    
C41   C61   S    
C116  H84   S    
C53   C69   S    
C56   H60   S    
O63   H143  S    
C43   C63   S    
O61   H141  S    
C44   C64   S    
C46   O30   A    
C85   H101  S    
C86   H99   S    
C16   C20   S    
C63   C98   S    
C51   H51   S    
C109  H41   S    
C28   C40   S    
Cr12  O12   S    
C87   H103  S    
C81   H106  S    
C30   C38   S    
C42   H38   S    
C75   H75   S    
C56   C72   S    
C98   O46   A    
C8    H124  S    
C112  H44   S    
C106  O14   A    
C21   H5    S    
C18   C118  S    
C60   O60   S    
C81   C86   S    
C29   H23   S    
C30   H24   S    
C83   C88   S    
C92   O40   A    
C91   O3    A    
C41   C49   S    
C19   O55   S    
C109  H1    S    
O56   H136  S    
C46   O34   A    
Cr1   O1    S    
C26   C38   S    
C14   C114  S    
C41   H37   S    
Cr4   O4    S    
C35   H31   S    
C71   O63   S    
C55   H59   S    
C29   H34   S    
C33   H29   S    
C44   H40   S    
C79   H87   S    
C54   C70   S    
C23   H131  S    
C68   C72   S    
Cr9   O37   S    
C69   H61   S    
C115  H83   S    
C98   O50   A    
C102  O10   A    
C32   H22   S    
C64   C97   S    
C15   C115  S    
C18   O54   S    
Cr6   O50   S    
Cr7   O31   S    
Cr8   O32   S    
Cr1   O41   S    
C57   H65   S    
Cr6   O6    S    
C52   H52   S    
C72   H64   S    
C118  H114  S    
C57   C61   S    
C78   C94   S    
C82   C85   S    
C59   C63   S    
C60   C64   S    
C13   C45   S    
C77   H85   S    
C66   C70   S    
C22   H130  S    
Cr9   O33   S    
C95   C108  S    
C60   H68   S    
C62   C99   S    
C92   O4    A    
C5    C21   S    
C108  O44   A    
O55   H135  S    
C31   C36   S    
C48   O36   A    
C55   C71   S    
C76   H76   S    
Cr6   O30   S    
Cr7   O51   S    
C116  H112  S    
Cr2   O2    S    
C114  H82   S    
C65   C101  S    
C111  H3    S    
Cr11  O19   S    
C67   C103  S    
C3    O27   A    
C37   C90   S    
Cr10  O34   S    
C41   H45   S    
C42   H46   S    
C100  O48   A    
C20   H120  S    
C66   C74   S    
C25   H17   S    
C57   C73   S    
C26   H14   S    
C119  H115  S    
C85   C93   S    
C106  O42   A    
C87   C95   S    
C56   C64   S    
C10   C110  S    
C2    O26   A    
C47   O31   A    
C42   C62   S    
C48   O32   A    
C33   H28   S    
C89   O37   A    
C34   H27   S    
C44   C52   S    
C91   O39   A    
C73   H69   S    
Cr7   O7    S    
Cr8   O8    S    
C50   H50   S    
C1    C12   S    
Cr1   O17   S    
C112  H4    S    
C2    C11   S    
C110  H42   S    
Cr12  O16   S    
C72   O64   S    
C43   H39   S    
C1    O25   A    
C25   C26   S    
C101  O5    A    
O62   H142  S    
C103  O7    A    
C8    H128  S    
C5    C9    S    
C93   C106  S    
C20   O56   S    
C71   H63   S    
C104  O12   A    
C8    C12   S    
C5    H125  S    
C51   C67   S    
C36   H25   S    
C78   H90   S    
C49   H49   S    
C114  H110  S    
C42   C50   S    
Cr4   O44   S    
C61   C100  S    
C67   C75   S    
Cr8   O20   S    
C50   H54   S    
C112  C116  S    
C58   C74   S    
C21   H129  S    
C73   H73   S    
C83   H108  S    
C54   H58   S    
C17   O53   S    
Cr4   O20   S    
C30   H33   S    
Cr5   O17   S    
C34   H30   S    
C79   H91   S    
C68   C76   S    
C59   O59   S    
C13   C17   S    
C14   C22   S    
C99   O51   A    
C103  O11   A    
C19   H119  S    
C7    C23   S    
C17   H117  S    
C8    C24   S    
C89   O1    A    
C40   C91   S    
Cr5   O25   S    
C110  H2    S    
C84   H107  S    
C54   H78   S    
C49   H53   S    
Cr1   O45   S    
Cr2   O42   S    
Cr3   O47   S    
C52   H56   S    
C4    C9    S    
C53   H57   S    
C58   C62   S    
C88   C96   S    
C94   C105  S    
Cr9   O9    S    
C12   C112  S    
C44   H48   S    
C1    O21   A    
C14   C46   S    
C77   C78   S    
C15   C19   S    
C43   H47   S    
C86   H102  S    
C55   C63   S    
C83   H93   S    
C6    C22   S    
C82   H105  S    
C9    C117  S    
C14   C18   S    
C70   O62   S    
Cr6   O26   S    
C99   O47   A    
C20   C120  S    
C15   C47   S    
Cr10  O10   S    
Cr12  O36   S    
Cr11  O15   S    
C17   C117  S    
C88   H97   S    
C19   C119  S    
Cr10  O38   S    
Cr11  O35   S    
C16   C116  S    
C100  O52   A    
C9    C109  S    
C117  H9    S    
C28   H16   S    
C11   C111  S    
C26   H18   S    
C74   H70   S    
C107  O43   A    
C29   C34   S    
C33   C37   S    
C45   O33   A    
C35   C39   S    
O60   H140  S    
C104  O8    A    
C79   C95   S    
C80   H92   S    
C111  C115  S    
C90   O38   A    
C69   O61   S    
O64   H144  S    
C70   H62   S    
C107  O15   A    
Cr1   O21   S    
Cr2   O18   S    
Cr3   O23   S    
Cr4   O24   S    
Cr12  O20   S    
C96   C107  S    
C39   C92   S    
Cr11  O39   S    
C27   H19   S    
C102  O6    A    
C7    H123  S    
C68   C104  S    
C6    C10   S    
C117  H113  S    
C87   H98   S    
C54   C62   S    
C22   H6    S    
C6    H126  S    
C57   O57   S    
C35   H26   S    
O58   H138  S    
C78   H86   S    
C43   C51   S    
C3    O23   A    
C82   H96   S    
C65   C69   S    
Cr6   O18   S    
C77   C93   S    
C60   C76   S    
Cr4   O48   S    
C67   C71   S    
O57   H137  S    
C51   H55   S    
O54   H134  S    
Cr3   O3    S    
C31   H36   S    
C53   H77   S    
Cr12  O40   S    
C32   H35   S    
C29   C37   S    
C36   H32   S    
C97   O45   A    
C105  O13   A    
O59   H139  S    
C66   C102  S    
C47   O35   A    
C84   C87   S    
C113  H81   S    
C11   C119  S    
C16   C48   S    
C4    O28   A    
C7    C11   S    
C38   C89   S    
C4    O24   A    
C49   C65   S    
C111  H43   S    
C23   H7    S    
C90   O2    A    
C56   H80   S    
C5    H121  S    
Cr2   O46   S    
C65   C73   S    
C6    H122  S    
Cr3   O43   S    
C84   C96   S    
Cr7   O19   S    
C86   C94   S    
C25   C37   S    
C12   C120  S    
C59   H67   S    
Cr9   O13   S    
C80   C96   S    
C52   C68   S    
C109  C113  S    
C2    O22   A    
C15   C23   S    
C16   C24   S    
C97   O49   A    
C101  O9    A    
C85   H100  S    
C53   C61   S    
C31   H21   S    
C88   H104  S    
C13   C21   S    
C32   C35   S    
C36   C40   S    
Cr5   O49   S    
C27   C39   S    
Cr7   O27   S    
C75   H71   S    
Cr8   O52   S    
Cr5   O5    S    
Cr10  O14   S    
Cr11  O11   S    
C10   C118  S    
C81   C93   S    
Cr8   O28   S    
C83   C95   S    
C24   H132  S    
Cr9   O17   S    
C50   C66   S    
C115  H111  S    
C77   H89   S    
C28   H20   S    
C113  H109  S    
C58   O58   S    
C24   H8    S    
C59   C75   S    
C74   H74   S    
C110  C114  S    
C58   H66   S    
C81   H95   S    
C30   C33   S    
C34   C38   S    
C45   O29   A    
C118  H10   S    
C80   H88   S    
Cr5   O29   S    
C76   H72   S    
C120  H116  S    
Cr2   O22   S    
Cr10  O18   S    
C3    C10   S    
Cr3   O19   S    
C18   H118  S    
C31   C39   S    
C32   C40   S    
O53   H133  S    
C55   H79   S    
C79   C80   S    
C27   H15   S    
C27   C28   S    
C25   H13   S    
C108  O16   A    
C84   H94   S    
C13   C113  S    
C105  O41   A    
