data_mof_unit_22588.cif
_audit_creation_date              2012-12-11T15:44:59-0500
_audit_creation_method            fapswitch 2.2
_symmetry_space_group_name_H-M    P1
_symmetry_Int_Tables_number       1
_space_group_crystal_system       triclinic
_cell_length_a                    19.28916
_cell_length_b                    11.076968
_cell_length_c                    18.732414
_cell_angle_alpha                 89.957087
_cell_angle_beta                  90.603906
_cell_angle_gamma                 90.105903
_cell_volume                      4002.23865515

loop_
_atom_site_label
_atom_site_type_symbol
_atom_type_description
_atom_site_fract_x
_atom_site_fract_y
_atom_site_fract_z
_atom_type_partial_charge
Br1   Br    Br    0.611172 0.105684 0.894289 -0.558717
Br2   Br    Br    0.356188 0.286207 0.068917 -0.564372
Br3   Br    Br    0.111155 0.605650 0.894281 -0.560647
Br4   Br    Br    0.856175 0.786225 0.068910 -0.564255
C1    C     C_R   0.773740 0.481673 0.637999 0.566786
C2    C     C_R   0.175918 0.107455 0.556168 0.072888
C3    C     C_R   0.494965 0.947908 0.963876 0.085546
C4    C     C_R   0.031261 0.241200 0.953506 -0.167058
C5    C     C_R   0.038884 0.237574 0.028096 -0.154774
C6    C     C_R   0.531173 0.741152 0.953538 -0.166307
C7    C     C_R   0.538750 0.737523 0.028130 -0.154627
C8    C     C_3   0.946458 0.529692 0.049816 -0.258852
C9    C     C_3   0.935094 0.532263 0.969938 -0.227854
C10   C     C_3   0.446541 0.029819 0.049797 -0.258950
C11   C     C_3   0.435187 0.032382 0.969919 -0.227950
C12   C     C_R   0.760598 0.530830 0.852314 0.547741
C13   C     C_R   0.324166 0.607573 0.443858 0.072841
C14   C     C_R   0.238063 0.530270 0.147187 0.553265
C15   C     C_R   0.260593 0.030846 0.852309 0.536331
C16   C     C_R   0.738064 0.030269 0.147186 0.563760
C17   C     C_R   0.773301 0.126860 0.852960 0.576108
C18   C     C_R   0.227395 0.128280 0.146564 0.569908
C19   C     C_R   0.273296 0.626849 0.852955 0.581929
C20   C     C_R   0.727392 0.628287 0.146560 0.564313
C21   C     C_R   0.971202 0.347297 0.852290 0.549314
C22   C     C_R   0.034283 0.346438 0.144441 0.549364
C23   C     C_R   0.471192 0.847297 0.852299 0.553146
C24   C     C_R   0.707448 0.461784 0.519930 0.072888
C25   C     C_R   0.534253 0.846436 0.144455 0.546213
C26   C     C_R   0.731859 0.994996 0.440426 0.035233
C27   C     C_R   0.243205 0.109171 0.584469 0.010722
C28   C     C_R   0.256902 0.609109 0.415515 0.010138
C29   C     C_R   0.768073 0.495069 0.559590 0.034637
C30   C     C_R   0.675150 0.035768 0.478882 -0.001458
C31   C     C_R   0.294688 0.167616 0.545851 0.017381
C32   C     C_R   0.205497 0.667582 0.454040 0.018768
C33   C     C_R   0.824816 0.535880 0.521045 -0.002119
C34   C     C_R   0.682324 0.063316 0.551851 0.007774
C35   C     C_3   0.638818 0.150799 0.463582 -0.268660
C36   C     C_R   0.282698 0.193364 0.472784 0.018675
C37   C     C_R   0.217480 0.693415 0.527095 0.019731
C38   C     C_R   0.817625 0.563362 0.448055 0.003277
C39   C     C_3   0.313179 0.296358 0.561015 -0.263501
C40   C     C_3   0.187278 0.796329 0.438735 -0.264476
C41   C     C_3   0.861333 0.650982 0.536196 -0.267338
C42   C     C_3   0.650567 0.181232 0.540837 -0.292123
C43   C     C_3   0.300907 0.323050 0.483696 -0.245052
C44   C     C_3   0.199583 0.823115 0.516027 -0.245184
C45   C     C_R   0.239806 0.536223 0.352513 0.526358
C46   C     C_3   0.849580 0.681361 0.458912 -0.292685
C47   C     C_R   0.744448 0.042861 0.588732 -0.000756
C48   C     C_R   0.220777 0.156225 0.439052 -0.030259
C49   C     C_R   0.279282 0.656277 0.560924 -0.031287
C50   C     C_R   0.755415 0.542827 0.411278 -0.004476
C51   C     C_R   0.001945 0.344578 0.427093 -0.032640
C52   C     C_R   0.003892 0.327899 0.577309 -0.021188
C53   C     C_R   0.496162 0.827703 0.422762 -0.020850
C54   C     C_R   0.498132 0.844769 0.572957 -0.031460
C55   C     C_R   0.981565 0.125167 0.419147 -0.052470
C56   C     C_R   0.260232 0.036292 0.647474 0.529963
C57   C     C_R   0.984453 0.105372 0.565589 -0.034790
C58   C     C_R   0.515615 0.605415 0.434799 -0.034710
C59   C     C_R   0.518546 0.625441 0.581212 -0.051608
C60   C     C_R   0.994621 0.013856 0.449892 -0.111789
C61   C     C_R   0.994098 0.003415 0.523635 -0.129904
C62   C     C_R   0.505861 0.503505 0.476879 -0.130399
C63   C     C_R   0.505412 0.514016 0.550612 -0.111623
C64   C     C_R   0.990647 0.222495 0.535358 0.036530
C65   C     C_R   0.989881 0.231688 0.459924 -0.011358
C66   C     C_R   0.510245 0.731876 0.540292 -0.011418
C67   C     C_R   0.726256 0.981735 0.361991 0.566441
C68   C     C_R   0.509470 0.722530 0.464870 0.036917
C69   C     C_R   0.027272 0.432873 0.544004 0.000548
C70   C     C_R   0.013158 0.448836 0.471118 0.022600
C71   C     C_R   0.486866 0.948822 0.528783 0.021180
C72   C     C_R   0.472760 0.932603 0.455920 0.002428
C73   C     C_R   0.770989 0.117598 0.649251 0.544329
C74   C     C_R   0.209325 0.170741 0.361485 0.554369
C75   C     C_R   0.290660 0.670666 0.638523 0.555260
C76   C     C_R   0.728997 0.617500 0.350722 0.536467
C77   C     C_R   0.057347 0.527861 0.584084 -0.073593
C78   C     C_R   0.792609 0.970060 0.554714 -0.120623
C79   C     C_R   0.012265 0.569390 0.445468 -0.069620
C80   C     C_R   0.487684 0.069404 0.554276 -0.070472
C81   C     C_R   0.442643 0.027313 0.415714 -0.074973
C82   C     C_R   0.058668 0.644071 0.556909 -0.116548
C83   C     C_R   0.034158 0.665257 0.488206 -0.149566
C84   C     C_R   0.465840 0.165055 0.511381 -0.149328
C85   C     C_R   0.441321 0.143576 0.442712 -0.117086
C86   C     C_R   0.743934 0.071657 0.074095 -0.015987
C87   C     C_R   0.251877 0.063892 0.926444 -0.014895
C88   C     C_R   0.243920 0.571626 0.074091 -0.014187
C89   C     C_R   0.165489 0.124436 0.482873 -0.117090
C90   C     C_R   0.751883 0.563869 0.926452 -0.016457
C91   C     C_R   0.808089 0.061858 0.042816 0.081102
C92   C     C_R   0.221258 0.978271 0.970987 0.006534
C93   C     C_R   0.308068 0.561801 0.042809 0.082239
C94   C     C_R   0.721258 0.478248 0.970992 0.004564
C95   C     C_R   0.815046 0.069301 0.970479 0.027961
C96   C     C_R   0.220807 0.989731 0.043603 -0.034761
C97   C     C_R   0.315026 0.569231 0.970474 0.027403
C98   C     C_R   0.720796 0.489730 0.043609 -0.033754
C99   C     C_R   0.691617 0.089600 0.954538 0.099471
C100  C     C_R   0.334562 0.624541 0.517163 -0.117599
C101  C     C_R   0.292463 0.167414 0.032820 0.129624
C102  C     C_R   0.191601 0.589563 0.954531 0.098642
C103  C     C_R   0.792461 0.667407 0.032821 0.130020
C104  C     C_R   0.684496 0.080099 0.029100 -0.142259
C105  C     C_R   0.290826 0.155757 0.958276 -0.140085
C106  C     C_R   0.184480 0.580063 0.029096 -0.140969
C107  C     C_R   0.790827 0.655742 0.958281 -0.139986
C108  C     C_3   0.872885 0.130860 0.057702 -0.269474
C109  C     C_3   0.152067 0.918500 0.968814 -0.235618
C110  C     C_3   0.372876 0.630749 0.057707 -0.271177
C111  C     C_R   0.707093 0.470154 0.445434 -0.120616
C112  C     C_3   0.652043 0.418559 0.968812 -0.235719
C113  C     C_3   0.881096 0.138320 0.977561 -0.248777
C114  C     C_3   0.152609 0.926190 0.049717 -0.263939
C115  C     C_3   0.381091 0.638197 0.977564 -0.248508
C116  C     C_3   0.652565 0.426297 0.049710 -0.263813
C117  C     C_R   0.758306 0.089435 0.925273 0.032779
C118  C     C_R   0.250280 0.090617 0.076097 0.021457
C119  C     C_R   0.258293 0.589400 0.925266 0.030498
C120  C     C_R   0.750278 0.590615 0.076098 0.023600
C121  C     C_R   0.971519 0.343958 0.647662 0.527618
C122  C     C_R   0.792351 0.961716 0.480212 0.071500
C123  C     C_R   0.029239 0.347383 0.353395 0.528026
C124  C     C_R   0.470777 0.847512 0.646621 0.531977
C125  C     C_R   0.528491 0.843829 0.352359 0.525342
C126  C     C_R   0.019104 0.338104 0.069603 0.008257
C127  C     C_R   0.003457 0.345258 0.921891 0.043458
C128  C     C_R   0.519051 0.838104 0.069621 0.008592
C129  C     C_R   0.503449 0.845247 0.921902 0.043632
C130  C     C_R   0.003688 0.444595 0.035546 0.012445
C131  C     C_R   0.994921 0.447896 0.963877 0.086193
C132  C     C_R   0.503719 0.944612 0.035549 0.012781
Cr1   Cr    Cr6+3 0.885860 0.491680 0.749630 1.028390
Cr2   Cr    Cr6+3 0.112430 0.179310 0.249850 0.998336
Cr3   Cr    Cr6+3 0.387570 0.679310 0.750150 1.003176
Cr4   Cr    Cr6+3 0.612430 0.679310 0.249850 0.993237
Cr5   Cr    Cr6+3 0.114140 0.491680 0.250370 1.012064
Cr6   Cr    Cr6+3 0.385860 0.991680 0.749630 1.027803
Cr7   Cr    Cr6+3 0.614140 0.991680 0.250370 1.012777
Cr8   Cr    Cr6+3 0.730490 0.332970 0.748720 1.035927
Cr9   Cr    Cr6+3 0.269510 0.332970 0.251280 1.043783
Cr10  Cr    Cr6+3 0.230490 0.832970 0.748720 1.033992
Cr11  Cr    Cr6+3 0.769510 0.832970 0.251280 1.045248
Cr12  Cr    Cr6+3 0.887570 0.179310 0.750150 0.997532
H1    H     H_    0.839456 0.943828 0.583064 0.141750
H2    H     H_    0.321870 0.215349 0.925614 0.157655
H3    H     H_    0.132966 0.577819 0.051402 0.167541
H4    H     H_    0.821868 0.715337 0.925617 0.157973
H5    H     H_    0.913277 0.074609 0.084239 0.175987
H6    H     H_    0.155573 0.825456 0.948579 0.201493
H7    H     H_    0.413248 0.574467 0.084249 0.174986
H8    H     H_    0.655517 0.325494 0.948602 0.201333
H9    H     H_    0.863118 0.219873 0.083127 0.118691
H10   H     H_    0.111564 0.975441 0.943019 0.143028
H11   H     H_    0.363127 0.719766 0.083133 0.116446
H12   H     H_    0.114822 0.113911 0.459981 0.165239
H13   H     H_    0.611567 0.475529 0.942992 0.143895
H14   H     H_    0.876478 0.231896 0.956596 0.132559
H15   H     H_    0.110050 0.982074 0.070718 0.158871
H16   H     H_    0.376497 0.731773 0.956596 0.132061
H17   H     H_    0.610035 0.482274 0.070677 0.158854
H18   H     H_    0.925236 0.084395 0.957461 0.164864
H19   H     H_    0.158149 0.836583 0.075900 0.146075
H20   H     H_    0.425214 0.584230 0.957466 0.164754
H21   H     H_    0.658045 0.336699 0.075915 0.146374
H22   H     H_    0.041019 0.161170 0.922085 0.119224
H23   H     H_    0.385199 0.614004 0.540101 0.164961
H24   H     H_    0.057688 0.156340 0.053147 0.136975
H25   H     H_    0.540878 0.661094 0.922130 0.120550
H26   H     H_    0.557440 0.656244 0.053196 0.137160
H27   H     H_    0.966894 0.615729 0.072049 0.199783
H28   H     H_    0.886251 0.487114 0.953044 0.136968
H29   H     H_    0.467023 0.115829 0.072021 0.199766
H30   H     H_    0.386321 0.987317 0.953025 0.137605
H31   H     H_    0.903083 0.487528 0.079626 0.139795
H32   H     H_    0.945711 0.621827 0.945522 0.194769
H33   H     H_    0.403141 0.987750 0.079608 0.139241
H34   H     H_    0.660151 0.443943 0.417169 0.140968
H35   H     H_    0.445853 0.121919 0.945494 0.194833
H36   H     H_    0.132831 0.808207 0.420905 0.139536
H37   H     H_    0.915799 0.635561 0.552036 0.174072
H38   H     H_    0.584328 0.135298 0.447734 0.174311
H39   H     H_    0.367649 0.308263 0.578829 0.139965
H40   H     H_    0.667695 0.211324 0.426942 0.146343
H41   H     H_    0.275331 0.342282 0.596269 0.152204
H42   H     H_    0.225226 0.842228 0.403433 0.149023
H43   H     H_    0.832572 0.711462 0.572800 0.147569
H44   H     H_    0.693251 0.246117 0.547418 0.161382
H45   H     H_    0.075317 0.717928 0.590636 0.114184
H46   H     H_    0.255676 0.383294 0.474892 0.143397
H47   H     H_    0.244942 0.883371 0.524785 0.142324
H48   H     H_    0.806976 0.746142 0.452305 0.163548
H49   H     H_    0.603605 0.195356 0.572880 0.124210
H50   H     H_    0.348637 0.349908 0.455674 0.143403
H51   H     H_    0.151914 0.850087 0.544002 0.143842
H52   H     H_    0.896540 0.695662 0.426823 0.121328
H53   H     H_    0.997490 0.934423 0.416541 0.099326
H54   H     H_    0.998701 0.915601 0.548574 0.086009
H55   H     H_    0.501156 0.415683 0.452022 0.085000
H56   H     H_    0.030496 0.756139 0.468349 0.088918
H57   H     H_    0.502460 0.434570 0.584043 0.100985
H58   H     H_    0.968802 0.126219 0.362879 0.148516
H59   H     H_    0.986154 0.087601 0.622034 0.157365
H60   H     H_    0.513926 0.587553 0.378382 0.156731
H61   H     H_    0.531289 0.626652 0.637485 0.150314
H62   H     H_    0.990648 0.592992 0.394010 0.141671
H63   H     H_    0.075194 0.513701 0.638492 0.146215
H64   H     H_    0.424779 0.012929 0.361336 0.133668
H65   H     H_    0.509234 0.093238 0.605725 0.146769
H66   H     H_    0.860861 0.890346 0.404491 0.250760
H67   H     H_    0.469525 0.255989 0.531120 0.089352
H68   H     H_    0.888800 0.896571 0.483985 0.205290
H69   H     H_    0.126180 0.143084 0.649014 0.240280
H70   H     H_    0.110071 0.002768 0.614108 0.246472
H71   H     H_    0.373852 0.643199 0.350881 0.236832
H72   H     H_    0.389965 0.503138 0.386087 0.246217
H73   H     H_    0.639145 0.389418 0.595680 0.251255
H74   H     H_    0.610890 0.396298 0.516326 0.204764
H75   H     H_    0.424645 0.217259 0.408881 0.111061
H76   H     H_    0.632981 0.077850 0.051404 0.167257
N1    N     N_3   0.859078 0.947003 0.448258 -0.598599
N2    N     N_3   0.118194 0.093577 0.602109 -0.646798
N3    N     N_3   0.381895 0.593962 0.397936 -0.647199
N4    N     N_3   0.640787 0.446528 0.552051 -0.597296
O1    O     O_R   0.957020 0.451640 0.669920 -0.518775
O2    O     O_R   0.168040 0.093290 0.169870 -0.530794
O3    O     O_R   0.331960 0.593290 0.830130 -0.517868
O4    O     O_R   0.668040 0.593290 0.169870 -0.534415
O5    O     O_R   0.945600 0.250580 0.824860 -0.519645
O6    O     O_R   0.054400 0.250580 0.175140 -0.511891
O7    O     O_R   0.445600 0.750580 0.824860 -0.519371
O8    O     O_R   0.554400 0.750580 0.175140 -0.512448
O9    O     O_3   0.834640 0.334650 0.749500 -0.283840
O10   O     O_3   0.165360 0.334650 0.250500 -0.276787
O11   O     O_3   0.334640 0.834650 0.749500 -0.283877
O12   O     O_R   0.042980 0.451640 0.330080 -0.523926
O13   O     O_3   0.665360 0.834650 0.250500 -0.276559
O14   O     O_R   0.821450 0.543440 0.674610 -0.500887
O15   O     O_R   0.178550 0.543440 0.325390 -0.496230
O16   O     O_R   0.321450 0.043440 0.674610 -0.494766
O17   O     O_R   0.678550 0.043440 0.325390 -0.504008
O18   O     O_R   0.715320 0.458650 0.668100 -0.514007
O19   O     O_R   0.284680 0.458650 0.331900 -0.543122
O20   O     O_R   0.215320 0.958650 0.668100 -0.541429
O21   O     O_R   0.784680 0.958650 0.331900 -0.517691
O22   O     O_R   0.737170 0.209590 0.674530 -0.517317
O23   O     O_R   0.457020 0.951640 0.669920 -0.518078
O24   O     O_R   0.262830 0.209590 0.325470 -0.497563
O25   O     O_R   0.237170 0.709590 0.674530 -0.487550
O26   O     O_R   0.762830 0.709590 0.325470 -0.524559
O27   O     O_R   0.832710 0.092740 0.669580 -0.529079
O28   O     O_R   0.167290 0.092740 0.330420 -0.524433
O29   O     O_R   0.332710 0.592740 0.669580 -0.520897
O30   O     O_R   0.667290 0.592740 0.330420 -0.529762
O31   O     O_R   0.946290 0.250060 0.676040 -0.520115
O32   O     O_R   0.053710 0.250060 0.323960 -0.528238
O33   O     O_R   0.446290 0.750060 0.676040 -0.529624
O34   O     O_R   0.542980 0.951640 0.330080 -0.523486
O35   O     O_R   0.553710 0.750060 0.323960 -0.519198
O36   O     O_R   0.956270 0.452200 0.830470 -0.488936
O37   O     O_R   0.043730 0.452200 0.169530 -0.514705
O38   O     O_R   0.456270 0.952200 0.830470 -0.487391
O39   O     O_R   0.543730 0.952200 0.169530 -0.516272
O40   O     O_R   0.820760 0.543950 0.823440 -0.509146
O41   O     O_R   0.179240 0.543950 0.176560 -0.519570
O42   O     O_R   0.320760 0.043950 0.823440 -0.513328
O43   O     O_R   0.679240 0.043950 0.176560 -0.515191
O44   O     O_R   0.714570 0.459210 0.828640 -0.502710
O45   O     O_R   0.736470 0.210100 0.823360 -0.463125
O46   O     O_R   0.285430 0.459210 0.171360 -0.461143
O47   O     O_R   0.214570 0.959210 0.828640 -0.508197
O48   O     O_R   0.785430 0.959210 0.171360 -0.455929
O49   O     O_R   0.263530 0.210100 0.176640 -0.447483
O50   O     O_R   0.236470 0.710100 0.823360 -0.458950
O51   O     O_R   0.763530 0.710100 0.176640 -0.451730
O52   O     O_R   0.831960 0.093290 0.830130 -0.521391

loop_
_geom_bond_atom_site_label_1
_geom_bond_atom_site_label_2
_ccdc_geom_bond_type
C110  H7    S    
C9    H28   S    
C79   C83   A    
C60   H53   S    
C26   C122  A    
C54   C124  S    
Cr5   O10   S    
C84   H67   S    
Cr8   O18   S    
C12   C90   S    
C36   C43   S    
C74   O24   A    
C69   C70   A    
C114  H19   S    
Cr9   O24   S    
C73   O27   A    
C6    C129  A    
C109  H6    S    
C88   C106  A    
C7    C128  A    
C24   N4    S    
C47   C73   S    
C26   C67   S    
C18   O49   A    
C98   C116  S    
C86   C91   A    
C5    C126  A    
H73   N4    S    
C55   C60   A    
Cr5   O15   S    
C76   O26   A    
Cr7   O43   S    
C28   C32   A    
C53   C72   A    
C53   C125  S    
Cr8   O44   S    
C13   C100  A    
Cr1   O14   S    
C22   C126  S    
C3    C129  A    
C121  O1    A    
C91   C108  S    
C82   H45   S    
C102  C106  A    
C108  C113  S    
C104  H76   S    
Cr1   O40   S    
C91   C95   A    
C116  H21   S    
C115  H20   S    
C25   C128  S    
C90   C94   A    
C49   C100  A    
C10   C132  S    
Cr11  O13   S    
Cr10  O20   S    
C90   C107  A    
C20   C120  S    
Cr7   O39   S    
C49   C75   S    
C56   O20   A    
Cr4   O13   S    
C52   C64   A    
C69   C77   A    
C33   C38   A    
H66   N1    S    
C78   C122  A    
C39   H41   S    
Cr7   O17   S    
C43   H46   S    
C40   H42   S    
C87   C92   A    
C35   H38   S    
C46   H48   S    
Cr8   O9    S    
C41   H43   S    
C15   O47   A    
C61   H54   S    
C4    C5    A    
Cr4   O35   S    
C1    C29   S    
C102  C119  A    
C116  H17   S    
Cr7   O13   S    
C43   H50   S    
C99   C104  A    
Cr6   O23   S    
Cr5   O41   S    
C109  H10   S    
C31   C39   S    
C112  C116  S    
C40   H36   S    
C50   C76   S    
Cr11  O48   S    
C63   H57   S    
C23   O7    A    
H69   N2    S    
C95   C117  A    
C22   O37   A    
C22   O6    A    
C6    H25   S    
C3    C11   S    
C62   C63   A    
Cr3   O29   S    
C21   O5    A    
C123  O12   A    
C105  H2    S    
C8    C130  S    
C107  H4    S    
Cr1   O9    S    
C51   C70   A    
C32   C37   A    
C126  C130  A    
C125  O35   A    
C103  C120  A    
C59   H61   S    
Cr2   O6    S    
C48   C74   S    
C58   H60   S    
C30   C34   A    
C45   O15   A    
C19   O50   A    
C4    H22   S    
C88   C93   A    
C18   C118  S    
C15   O42   A    
C59   C63   A    
Br3   C102  S    
Cr6   O11   S    
C110  H11   S    
Br4   C103  S    
Cr2   O32   S    
C114  H15   S    
C56   O16   A    
C124  O23   A    
C112  H8    S    
C108  H9    S    
C26   C30   A    
C44   H51   S    
Cr3   O11   S    
C30   C35   S    
C97   C115  S    
C70   C79   A    
C80   C84   A    
C112  H13   S    
Cr2   O2    S    
C58   C62   A    
Cr9   O46   S    
Cr1   O1    S    
C106  H3    S    
C9    C131  S    
C17   O52   A    
C42   H44   S    
C21   O36   A    
Cr9   O19   S    
C82   C83   A    
C64   C65   A    
C42   H49   S    
C19   C119  S    
C34   C47   A    
C36   C48   A    
C16   C86   S    
C66   C68   A    
C50   C111  A    
C29   C33   A    
Cr12  O9    S    
H72   N3    S    
C11   H35   S    
Cr8   O45   S    
C12   O40   A    
C75   O29   A    
C27   C56   S    
C115  H16   S    
C89   H12   S    
C71   C72   A    
Cr6   O42   S    
C25   O8    A    
C24   C111  A    
C57   C61   A    
C95   C113  S    
C94   C112  S    
C18   O2    A    
C59   C66   A    
H74   N4    S    
C113  H18   S    
C128  C132  A    
C2    C89   A    
Cr9   O10   S    
Cr2   O28   S    
C4    C127  A    
C75   O25   A    
C77   C82   A    
C58   C68   A    
C16   O48   A    
Cr7   O34   S    
C97   C119  A    
C124  O33   A    
C84   C85   A    
C47   C78   A    
C37   C49   A    
C45   O19   A    
Cr4   O30   S    
C57   H59   S    
C8    H27   S    
C62   H55   S    
C55   H58   S    
Cr10  O11   S    
C77   H63   S    
C38   C46   S    
C24   C29   A    
Cr10  O47   S    
Cr5   O12   S    
C81   C85   A    
C108  H5    S    
C55   C65   A    
C44   H47   S    
Cr3   O7    S    
C1    O14   A    
C27   C31   A    
C92   C109  S    
C32   C40   S    
C122  N1    S    
C96   C114  S    
C35   H40   S    
Cr12  O31   S    
C33   C41   S    
C125  O34   A    
C99   C117  A    
C81   H64   S    
C83   H56   S    
Cr12  O5    S    
C111  H34   S    
C12   O44   A    
C80   H65   S    
C2    N2    S    
Cr9   O49   S    
Br1   C99   S    
C13   C28   A    
Cr8   O22   S    
Cr11  O21   S    
C7    H26   S    
C46   H52   S    
C52   C69   A    
Cr11  O26   S    
Cr5   O37   S    
C98   C120  A    
C10   C11   S    
C103  C107  A    
C54   C66   A    
Cr6   O16   S    
Cr6   O38   S    
C51   C123  S    
C20   O4    A    
C17   O45   A    
C39   H39   S    
C85   H75   S    
Cr11  O51   S    
Cr4   O4    S    
C130  C131  A    
C20   O51   A    
C113  H14   S    
C9    H32   S    
C121  O31   A    
Br2   C101  S    
C127  C131  A    
H68   N1    S    
C1    O18   A    
C48   C89   A    
C10   H29   S    
C14   C88   S    
C60   C61   A    
C51   C65   A    
Cr3   O33   S    
C31   C36   A    
C74   O28   A    
C3    C132  A    
Cr10  O25   S    
C94   C98   A    
C38   C50   A    
C13   N3    S    
C57   C64   A    
C41   H37   S    
C110  C115  S    
C101  C105  A    
C41   C46   S    
C35   C42   S    
C25   O39   A    
C92   C96   A    
C10   H33   S    
C37   C44   S    
H70   N2    S    
C101  C118  A    
Cr2   O10   S    
C96   C118  A    
C16   O43   A    
C53   C68   A    
C17   C117  S    
C71   C80   A    
C19   O3    A    
C28   C45   S    
C34   C42   S    
C78   H1    S    
C15   C87   S    
C6    C7    A    
C86   C104  A    
C109  C114  S    
C23   O38   A    
Cr1   O36   S    
Cr12  O52   S    
C79   H62   S    
C8    H31   S    
C76   O30   A    
C8    C9    S    
C87   C105  A    
Cr12  O27   S    
C52   C121  S    
C23   C129  S    
C100  H23   S    
Cr4   O8    S    
C2    C27   A    
C67   O17   A    
C123  O32   A    
C5    H24   S    
Cr3   O3    S    
C73   O22   A    
H71   N3    S    
C93   C110  S    
Cr10  O50   S    
C39   C43   S    
C72   C81   A    
C67   O21   A    
C14   O41   A    
C93   C97   A    
C40   C44   S    
C11   H30   S    
C54   C71   A    
C14   O46   A    
C21   C127  S    
