data_mof_unit_65983.cif
_audit_creation_date              2013-03-05T16:10:03-0500
_audit_creation_method            fapswitch 2.2
_symmetry_space_group_name_H-M    P1
_symmetry_Int_Tables_number       1
_space_group_crystal_system       triclinic
_cell_length_a                    12.746627
_cell_length_b                    13.936132
_cell_length_c                    19.338165
_cell_angle_alpha                 90.177429
_cell_angle_beta                  92.656492
_cell_angle_gamma                 98.155796
_cell_volume                      3396.64550195

loop_
_atom_site_label
_atom_site_type_symbol
_atom_site_description
_atom_site_fract_x
_atom_site_fract_y
_atom_site_fract_z
_atom_type_partial_charge
O1    O     O_R   0.399110 0.356330 0.495750 -0.563273
O2    O     O_R   0.600890 0.643670 0.504250 -0.563241
O3    O     O_R   0.575900 0.366540 0.503170 -0.550780
O4    O     O_R   0.424100 0.633460 0.496830 -0.550836
C1    C     C_R   0.483402 0.315977 0.499346 0.822225
C2    C     C_R   0.516600 0.684023 0.500653 0.822222
O5    O     O_R   0.411580 0.494880 0.396430 -0.577249
O6    O     O_R   0.588420 0.505120 0.603570 -0.577249
O7    O     O_R   0.588360 0.505090 0.403850 -0.572931
O8    O     O_R   0.411640 0.494910 0.596150 -0.572927
C3    C     C_R   0.500776 0.499376 0.367115 0.813977
C4    C     C_R   0.499224 0.500623 0.632885 0.813991
Cu1   Cu    Cu3+1 0.395330 0.493960 0.495610 1.043565
Cu2   Cu    Cu3+1 0.604670 0.506040 0.504390 1.043604
C5    C     C_R   0.408110 0.490974 0.250505 -0.145591
C6    C     C_R   0.591893 0.509060 0.749496 -0.145592
H1    H     H_    0.332612 0.490163 0.274150 0.183900
H2    H     H_    0.667396 0.509903 0.725850 0.183902
C7    C     C_R   0.409810 0.487346 0.178693 -0.161735
C8    C     C_R   0.590190 0.512684 0.821307 -0.161719
H3    H     H_    0.335714 0.485484 0.148572 0.192047
H4    H     H_    0.664292 0.514576 0.851427 0.192051
C9    C     C_R   0.505968 0.489027 0.145894 -0.063910
C10   C     C_R   0.494026 0.510962 0.854107 -0.063912
C11   C     C_R   0.601791 0.491761 0.186442 0.348004
C12   C     C_R   0.398198 0.508187 0.813558 0.348009
C13   C     C_R   0.599072 0.496899 0.258727 -0.203329
C14   C     C_R   0.400921 0.503057 0.741274 -0.203315
H5    H     H_    0.672326 0.498649 0.289733 0.203246
H6    H     H_    0.327663 0.501276 0.710268 0.203239
C15   C     C_R   0.502716 0.496497 0.291118 -0.105158
C16   C     C_R   0.497284 0.503500 0.708882 -0.105153
N1    N     N_R   0.581832 0.549740 0.037195 -0.151214
N2    N     N_R   0.418166 0.450247 0.962807 -0.151194
N3    N     N_R   0.578232 0.555760 0.968521 -0.194303
N4    N     N_R   0.421765 0.444228 0.031481 -0.194284
C17   C     C_R   0.495965 0.506631 0.930111 0.456486
C18   C     C_R   0.504031 0.493356 0.069890 0.456501
C19   C     C_1   0.526376 0.787014 0.500626 -0.080640
C20   C     C_1   0.473641 0.212989 0.499378 -0.080616
C21   C     C_2   0.544347 0.977911 0.500157 0.195086
C22   C     C_2   0.455804 0.022105 0.499851 0.195168
C23   C     C_1   0.465188 0.126170 0.499489 0.075279
C24   C     C_1   0.534878 0.873837 0.500517 0.075147
N5    N     N_1   0.238030 0.484880 0.489000 -0.145193
N6    N     N_1   0.761970 0.515120 0.511000 -0.145185
C25   C     C_2   0.028887 0.476565 0.478321 0.021177
C26   C     C_2   0.971112 0.523434 0.521679 0.021165
C27   C     C_1   0.854389 0.518195 0.514877 0.268489
C28   C     C_1   0.145611 0.481805 0.485123 0.268455
N7    N     N_R   0.701096 0.485045 0.155677 0.139606
O9    O     O_R   0.789266 0.529035 0.184494 -0.298508
O10   O     O_R   0.705620 0.423326 0.105637 -0.297804
N8    N     N_R   0.298882 0.514855 0.844323 0.139609
O11   O     O_R   0.210735 0.470807 0.815517 -0.298505
O12   O     O_R   0.294318 0.576589 0.894347 -0.297790
N9    N     N_R   0.350256 0.968418 0.501146 0.132245
O13   O     O_R   0.269817 0.007053 0.475748 -0.283971
O14   O     O_R   0.331772 0.888926 0.536440 -0.320243
N10   N     N_R   0.649931 0.031544 0.498879 0.132382
O15   O     O_R   0.730404 0.992609 0.523912 -0.283918
O16   O     O_R   0.668391 0.111393 0.463975 -0.320395
I1    I     I_    0.047114 0.609439 0.605230 -0.179564
I2    I     I_    0.952885 0.390560 0.394770 -0.179552

loop_
_geom_bond_atom_site_label_1
_geom_bond_atom_site_label_2
_geom_bond_distance
_ccdc_geom_bond_type
C7    H3    1.083492 S    
O5    Cu1   1.938518 S    
C7    C9    1.403278 A    
O7    Cu2   1.945543 S    
C11   N7    1.438071 S    
C5    C15   1.400876 A    
C19   C24   1.199419 T    
C6    C16   1.400880 A    
C9    C18   1.470406 S    
C21   C22   1.360069 D    
C12   C14   1.401730 A    
N1    C18   1.356752 A    
C6    C8    1.390755 A    
O6    C4    1.287517 A    
C2    C19   1.422974 S    
C14   H6    1.083294 S    
C10   C17   1.470414 S    
C3    C15   1.471513 S    
Cu2   N6    1.989147 S    
C6    H2    1.083083 S    
Cu1   Cu2   2.647223 S    
C4    C16   1.471522 S    
O5    C3    1.287519 A    
O7    C3    1.287734 A    
N6    C27   1.171617 T    
N9    O13   1.301537 A    
O2    C2    1.280711 A    
O3    Cu2   1.926437 S    
O8    C4    1.287734 A    
N5    C28   1.171615 T    
O1    C1    1.280723 A    
C12   N8    1.438072 S    
C22   N9    1.445036 S    
N4    C18   1.356843 A    
C26   C27   1.478933 S    
N1    N3    1.330016 A    
C10   C12   1.416339 A    
C25   C28   1.478934 S    
N2    N4    1.330014 A    
C9    C11   1.416331 A    
O2    Cu2   1.925463 S    
C21   C24   1.438303 S    
N8    O12   1.301404 A    
N9    O14   1.301589 A    
O4    C2    1.283769 A    
C11   C13   1.401740 A    
C22   C23   1.438240 S    
N7    O10   1.301400 A    
C13   C15   1.403675 A    
N7    O9    1.301461 A    
N2    C17   1.356748 A    
C8    C10   1.403290 A    
C14   C16   1.403682 A    
O1    Cu1   1.925463 S    
C13   H5    1.083295 S    
Cu1   N5    1.989148 S    
N10   O16   1.301662 A    
C1    C20   1.422947 S    
C25   I2    2.121119 S    
C5    H1    1.083077 S    
N8    O11   1.301437 A    
C26   I1    2.121118 S    
O6    Cu2   1.938520 S    
C21   N10   1.445111 S    
N3    C17   1.356846 A    
C5    C7    1.390744 A    
C20   C23   1.199408 T    
C25   C26   1.364670 D    
O4    Cu1   1.926437 S    
C8    H4    1.083503 S    
N10   O15   1.301708 A    
O3    C1    1.283743 A    
O8    Cu1   1.945541 S    
