data_mof_unit_30440.cif
_audit_creation_date              2012-10-26T18:27:09-0400
_audit_creation_method            fapswitch 2.2
_symmetry_space_group_name_H-M    P1
_symmetry_Int_Tables_number       1
_space_group_crystal_system       triclinic
_cell_length_a                    15.064084
_cell_length_b                    10.948343
_cell_length_c                    9.751481
_cell_angle_alpha                 90.766766
_cell_angle_beta                  90.173728
_cell_angle_gamma                 90.92111
_cell_volume                      1607.91984997

loop_
_atom_site_label
_atom_site_type_symbol
_atom_type_description
_atom_site_fract_x
_atom_site_fract_y
_atom_site_fract_z
_atom_type_partial_charge
C1    C     C_R   0.500744 0.265295 0.498828 0.498198
C2    C     C_R   0.185758 0.385611 0.525421 -0.001507
C3    C     C_R   0.232959 0.494737 0.499442 0.015579
C4    C     C_R   0.329305 0.499560 0.499775 0.550591
C5    C     C_R   0.189067 0.602356 0.471531 -0.139064
C6    C     C_2   0.510718 0.930487 0.391847 -0.087255
C7    C     C_2   0.518996 0.864068 0.504568 -0.062993
C8    C     C_2   0.528909 0.062059 0.398290 -0.001432
C9    C     C_2   0.488240 0.133305 0.495145 0.018238
C10   C     C_2   0.498234 0.402128 0.920894 -0.003664
C11   C     C_2   0.476574 0.406907 0.071288 0.127893
C12   C     C_R   0.908248 0.607413 0.463114 -0.018238
C13   C     C_R   0.504230 0.733876 0.500971 0.548904
C14   C     C_R   0.670601 0.500937 0.500303 0.516596
C15   C     C_R   0.814380 0.609320 0.475781 -0.021108
C16   C     C_R   0.767170 0.499942 0.501101 0.000378
C17   C     C_R   0.811134 0.391495 0.533915 -0.000039
C18   C     C_R   0.904818 0.393520 0.539598 0.035598
C19   C     C_R   0.953317 0.500680 0.502508 0.010450
C20   C     C_2   0.764641 0.726139 0.480285 0.218867
C21   C     C_3   0.597422 0.108610 0.295381 -0.290524
C22   C     C_3   0.682332 0.033581 0.298019 -0.428768
C23   C     C_R   0.951434 0.289880 0.580014 -0.120701
C24   C     C_2   0.420216 0.086769 0.593901 0.169618
C25   C     C_2   0.421910 0.303047 0.119333 0.251048
C26   C     C_2   0.566511 0.582768 0.109774 0.371871
C27   C     C_3   0.757563 0.274660 0.562326 -0.272333
C28   C     C_3   0.743679 0.255818 0.715893 -0.405915
C29   C     C_3   0.234322 0.264250 0.531142 -0.253595
C30   C     C_3   0.211817 0.183439 0.405849 -0.398118
C31   C     C_3   0.102489 0.833754 0.407036 -0.248304
C32   C     C_3   0.136982 0.843080 0.260264 -0.412305
C33   C     C_2   0.913295 0.792937 0.314242 0.259416
C34   C     C_R   0.042844 0.288587 0.578357 -0.126376
C35   C     C_R   0.092301 0.390489 0.535517 0.039225
C36   C     C_R   0.047198 0.499568 0.502223 0.028309
C37   C     C_R   0.096002 0.606838 0.469160 -0.001107
C38   C     C_R   0.051206 0.714302 0.429843 0.017202
C39   C     C_R   0.957763 0.708587 0.411237 0.058406
Cu1   Cu    Cu3+1 0.500020 0.500020 0.638630 0.956857
Cu2   Cu    Cu3+1 0.499980 0.499980 0.361370 0.999750
H1    H     H_    0.537738 0.906716 0.601991 0.118469
H2    H     H_    0.669591 0.939968 0.256435 0.154623
H3    H     H_    0.733945 0.077980 0.233676 0.166652
H4    H     H_    0.568160 0.102797 0.190745 0.141313
H5    H     H_    0.618552 0.204412 0.314066 0.172195
H6    H     H_    0.412477 0.132219 0.692651 0.110634
H7    H     H_    0.428773 0.213742 0.071208 0.050075
H8    H     H_    0.559749 0.679365 0.132442 0.084628
H9    H     H_    0.706012 0.169172 0.731833 0.139565
H10   H     H_    0.807960 0.250885 0.771105 0.156118
H11   H     H_    0.705102 0.331899 0.760825 0.201091
H12   H     H_    0.506069 0.313610 0.871735 0.110059
H13   H     H_    0.691527 0.275611 0.512589 0.143790
H14   H     H_    0.789610 0.194016 0.515102 0.149646
H15   H     H_    0.143462 0.144994 0.411678 0.138997
H16   H     H_    0.217691 0.236810 0.310310 0.204128
H17   H     H_    0.258233 0.106061 0.399292 0.194044
H18   H     H_    0.307200 0.277621 0.532238 0.171172
H19   H     H_    0.219164 0.215618 0.627590 0.140765
H20   H     H_    0.181801 0.766435 0.235629 0.152281
H21   H     H_    0.081060 0.841135 0.185912 0.186773
H22   H     H_    0.174589 0.930328 0.248558 0.143911
H23   H     H_    0.477728 0.578230 0.892581 0.212633
H24   H     H_    0.061740 0.914020 0.432715 0.203691
H25   H     H_    0.158206 0.844791 0.480964 0.143297
H26   H     H_    0.863684 0.755853 0.243512 0.104900
H27   H     H_    0.918701 0.207257 0.613697 0.134036
H28   H     H_    0.073684 0.205874 0.612228 0.119900
H29   H     H_    0.230007 0.680897 0.447049 0.122196
H30   H     H_    0.497351 0.887972 0.292408 0.129335
H31   H     H_    0.699895 0.732198 0.432123 0.099929
H32   H     H_    0.707972 0.027126 0.404492 0.188341
N1    N     N_2   0.499020 0.498660 0.846910 -0.323557
N2    N     N_2   0.499000 0.498630 0.153040 -0.243711
O1    O     O_R   0.500020 0.321960 0.617040 -0.539056
O2    O     O_2   0.368860 0.003197 0.563729 -0.539163
O3    O     O_2   0.364671 0.317048 0.205716 -0.487194
O4    O     O_2   0.634715 0.547057 0.055900 -0.515228
O5    O     O_2   0.927526 0.902928 0.315312 -0.517655
O6    O     O_R   0.499980 0.321920 0.382900 -0.471487
O7    O     O_R   0.370270 0.499990 0.617090 -0.503192
O8    O     O_R   0.370240 0.499950 0.382940 -0.440677
O9    O     O_R   0.500020 0.678080 0.617100 -0.489411
O10   O     O_R   0.499980 0.678040 0.382960 -0.542463
O11   O     O_R   0.629760 0.500050 0.617060 -0.476008
O12   O     O_R   0.629730 0.500010 0.382910 -0.508555
O13   O     O_2   0.794285 0.815044 0.543201 -0.491478

loop_
_geom_bond_atom_site_label_1
_geom_bond_atom_site_label_2
_ccdc_geom_bond_type
C2    C35   A    
C31   H25   S    
C5    C37   A    
C10   N1    D    
Cu1   O9    S    
C35   C36   A    
C27   H13   S    
C13   O9    A    
C29   C30   S    
C2    C29   S    
C36   C37   A    
C32   H20   S    
C18   C19   A    
C19   C36   A    
C38   C39   A    
C28   H10   S    
C27   H14   S    
C11   C25   S    
C1    O6    A    
C15   C16   A    
Cu2   O8    S    
C30   H16   S    
C30   H17   S    
C34   C35   A    
C7    H1    S    
Cu1   O11   S    
C10   H12   S    
C28   H9    S    
C22   H3    S    
C22   H2    S    
C8    C9    D    
C29   H19   S    
C21   C22   S    
C24   H6    S    
C6    H30   S    
C17   C18   A    
C21   H4    S    
C15   C20   S    
Cu2   O12   S    
C18   C23   A    
C17   C27   S    
Cu1   O7    S    
C1    C9    S    
C14   O11   A    
C26   H8    S    
C16   C17   A    
C6    C8    S    
C30   H15   S    
C25   O3    D    
C23   H27   S    
C37   C38   A    
Cu2   N2    S    
C31   C32   S    
C25   H7    S    
C12   C15   A    
C23   C34   A    
Cu2   O6    S    
C8    C21   S    
C9    C24   S    
C33   C39   S    
C34   H28   S    
Cu1   Cu2   S    
C14   C16   S    
C3    C4    S    
C33   H26   S    
C21   H5    S    
C31   H24   S    
H23   N1    S    
C1    O1    A    
C32   H22   S    
C3    C5    A    
C5    H29   S    
C14   O12   A    
C33   O5    D    
C6    C7    D    
Cu2   O10   S    
C26   O4    D    
C31   C38   S    
C12   C39   A    
C2    C3    A    
C32   H21   S    
C11   N2    D    
C28   H11   S    
C4    O8    A    
C20   O13   D    
C12   C19   A    
Cu1   N1    S    
C10   C11   S    
Cu1   O1    S    
C24   O2    D    
C7    C13   S    
C4    O7    A    
C26   N2    S    
C13   O10   A    
C27   C28   S    
C29   H18   S    
C20   H31   S    
C22   H32   S    
