data_mof_unit_31854.cif
_audit_creation_date              2012-12-10T16:54:55-0500
_audit_creation_method            fapswitch 2.2
_symmetry_space_group_name_H-M    P1
_symmetry_Int_Tables_number       1
_space_group_crystal_system       triclinic
_cell_length_a                    7.831347
_cell_length_b                    8.560766
_cell_length_c                    15.719466
_cell_angle_alpha                 91.630707
_cell_angle_beta                  85.257635
_cell_angle_gamma                 93.407673
_cell_volume                      1048.11109587

loop_
_atom_site_label
_atom_site_type_symbol
_atom_type_description
_atom_site_fract_x
_atom_site_fract_y
_atom_site_fract_z
_atom_type_partial_charge
C1    C     C_R   0.545365 0.794423 0.497792 0.961027
C2    C     C_3   0.325635 0.559207 0.057522 0.049192
C3    C     C_3   0.489255 0.481919 0.083284 0.124954
C4    C     C_3   0.502899 0.308938 0.045581 0.326758
C5    C     C_3   0.519367 0.316400 0.945228 0.032393
C6    C     C_1   0.492851 0.487905 0.174776 0.054722
C7    C     C_1   0.496512 0.490930 0.825519 0.028817
C8    C     C_1   0.501022 0.495615 0.750152 -0.132863
C9    C     C_2   0.569267 0.957887 0.496354 -0.358437
C10   C     C_2   0.430718 0.042116 0.503092 -0.358279
C11   C     C_R   0.500919 0.500059 0.661431 0.906390
C12   C     C_R   0.454632 0.205579 0.502003 0.961450
C13   C     C_R   0.498859 0.499232 0.338607 0.889829
C14   C     C_3   0.311895 0.535943 0.960049 -0.046985
C15   C     C_3   0.637838 0.596143 0.947825 -0.479637
C16   C     C_3   0.644871 0.585703 0.044996 -0.459740
C17   C     C_1   0.495598 0.493743 0.249959 -0.110759
C18   C     C_3   0.489384 0.485623 0.917332 0.148497
H1    H     H_    0.341513 0.686889 0.073027 0.177315
H2    H     H_    0.214002 0.439321 0.949501 0.231592
H3    H     H_    0.700356 0.008384 0.489837 0.184012
H4    H     H_    0.299626 0.991637 0.509548 0.183885
H5    H     H_    0.986505 0.600647 0.572740 0.182976
H6    H     H_    0.763162 0.563675 0.915448 0.205266
H7    H     H_    0.620572 0.719151 0.930963 0.226357
H8    H     H_    0.644459 0.705947 0.074051 0.211131
H9    H     H_    0.768059 0.538252 0.058934 0.274744
H10   H     H_    0.652894 0.291067 0.921389 0.187411
N1    N     N_2   0.950340 0.457950 0.477370 -0.057972
N2    N     N_2   0.049660 0.542050 0.522630 -0.131393
O1    O     O_R   0.389240 0.738570 0.505550 -0.611431
O2    O     O_R   0.678400 0.711630 0.491050 -0.626437
O3    O     O_R   0.355360 0.513470 0.630110 -0.607594
O4    O     O_R   0.644510 0.486530 0.615610 -0.623864
O5    O     O_R   0.321600 0.288370 0.508950 -0.633500
O6    O     O_R   0.610760 0.261430 0.494450 -0.610319
O7    O     O_R   0.355490 0.513470 0.384390 -0.635487
O8    O     O_R   0.644640 0.486530 0.369890 -0.601874
Zn1   Zn    Zn3+2 0.306930 0.517990 0.509680 0.959958
Zn2   Zn    Zn3+2 0.693070 0.482010 0.490320 0.968811
Br1   Br    Br    0.110470 0.497350 0.123562 -0.570151
Br2   Br    Br    0.708939 0.216436 0.081556 -0.511173
C19   C     C_3   0.019093 0.390229 0.397859 -0.417839
H11   H     H_    0.916103 0.315430 0.370269 0.191999
H12   H     H_    0.058452 0.483639 0.351548 0.221265
H13   H     H_    0.122552 0.312309 0.407100 0.203102
C20   C     C_3   0.245766 0.683152 0.922205 -0.834918
H14   H     H_    0.122311 0.712759 0.957182 0.271701
H15   H     H_    0.338844 0.785187 0.927133 0.274824
H16   H     H_    0.221169 0.661997 0.854186 0.253027
Br3   Br    Br    0.380575 0.154526 0.885724 -0.565761
C21   C     C_3   0.351412 0.197937 0.080153 -0.687025
H17   H     H_    0.230206 0.222888 0.052972 0.280646
H18   H     H_    0.377420 0.074236 0.063152 0.258791
H19   H     H_    0.332287 0.206674 0.150846 0.240596

loop_
_geom_bond_atom_site_label_1
_geom_bond_atom_site_label_2
_ccdc_geom_bond_type
C15   C18   S    
O5    Zn1   S    
C19   H11   S    
N1    N2    D    
C11   O3    A    
C12   O6    A    
C5    H10   S    
C9    C10   D    
C14   C18   S    
C13   O7    A    
C20   H14   S    
C21   H19   S    
C13   C17   S    
C3    C6    S    
C7    C18   S    
C16   H9    S    
C2    C3    S    
C7    C8    T    
O7    Zn1   S    
N1    C19   S    
C12   O5    A    
O8    Zn2   S    
C19   H12   S    
C9    H3    S    
C13   O8    A    
O3    Zn1   S    
C10   C12   S    
C4    C21   S    
C8    C11   S    
O4    Zn2   S    
N1    Zn2   S    
C15   H6    S    
C19   H13   S    
O1    Zn1   S    
N2    Zn1   S    
C20   H16   S    
O2    Zn2   S    
C16   H8    S    
C2    C14   S    
C4    Br2   S    
C15   H7    S    
C1    O2    A    
C2    Br1   S    
C3    C4    S    
H5    N2    S    
C14   H2    S    
C1    O1    A    
C1    C9    S    
C21   H17   S    
C20   H15   S    
C6    C17   T    
C5    Br3   S    
O6    Zn2   S    
C5    C18   S    
C2    H1    S    
C14   C20   S    
C11   O4    A    
C10   H4    S    
C3    C16   S    
C15   C16   S    
C21   H18   S    
C4    C5    S    
