data_mof_unit_47332.cif
_audit_creation_date              2013-03-05T15:49:31-0500
_audit_creation_method            fapswitch 2.2
_symmetry_space_group_name_H-M    P1
_symmetry_Int_Tables_number       1
_space_group_crystal_system       triclinic
_cell_length_a                    10.626807
_cell_length_b                    11.936072
_cell_length_c                    12.846006
_cell_angle_alpha                 93.637807
_cell_angle_beta                  89.820265
_cell_angle_gamma                 87.379125
_cell_volume                      1624.40345687

loop_
_atom_site_label
_atom_site_type_symbol
_atom_site_description
_atom_site_fract_x
_atom_site_fract_y
_atom_site_fract_z
_atom_type_partial_charge
O1    O     O_R   0.506170 0.421700 0.658830 -0.577654
O2    O     O_R   0.493830 0.578300 0.341170 -0.577673
O3    O     O_R   0.491330 0.609310 0.646410 -0.637000
O4    O     O_R   0.508670 0.390690 0.353590 -0.636998
C1    C     C_R   0.495942 0.522416 0.700251 0.937459
C2    C     C_R   0.504056 0.477584 0.299749 0.937477
O5    O     O_R   0.690650 0.406190 0.506220 -0.640036
O6    O     O_R   0.309350 0.593810 0.493780 -0.640033
O7    O     O_R   0.675800 0.593810 0.493800 -0.626636
O8    O     O_R   0.324200 0.406190 0.506200 -0.626634
C3    C     C_R   0.739853 0.499595 0.485185 0.913830
C4    C     C_R   0.260146 0.500405 0.514814 0.913816
Zn1   Zn    Zn3+2 0.509910 0.374730 0.508290 0.974155
Zn2   Zn    Zn3+2 0.490090 0.625270 0.491710 0.974146
H1    H     H_    0.888428 0.889618 0.477934 0.142452
H2    H     H_    0.111571 0.110381 0.522059 0.142452
C5    C     C_R   0.897940 0.295700 0.425732 -0.104756
C6    C     C_R   0.102059 0.704300 0.574264 -0.104764
C7    C     C_R   0.958735 0.192833 0.443667 -0.158389
C8    C     C_R   0.041264 0.807166 0.556327 -0.158386
C9    C     C_R   0.067135 0.190161 0.503831 -0.187411
C10   C     C_R   0.932864 0.809838 0.496163 -0.187412
C11   C     C_R   0.119667 0.290486 0.539127 -0.082001
C12   C     C_R   0.880332 0.709512 0.460868 -0.081996
C13   C     C_R   0.064624 0.395740 0.513646 0.073267
C14   C     C_R   0.935375 0.604259 0.486350 0.073267
C15   C     C_R   0.945444 0.397789 0.468043 0.063327
C16   C     C_R   0.054555 0.602210 0.531953 0.063325
C17   C     C_R   0.124518 0.498771 0.531668 -0.190486
C18   C     C_R   0.875482 0.501228 0.468329 -0.190468
H3    H     H_    0.813496 0.295031 0.378781 0.159843
H4    H     H_    0.186502 0.704970 0.621216 0.159838
H5    H     H_    0.919809 0.115209 0.413287 0.143821
H6    H     H_    0.080189 0.884790 0.586708 0.143821
H7    H     H_    0.201470 0.284438 0.588604 0.207906
H8    H     H_    0.798530 0.715560 0.411391 0.207903
C19   C     C_R   0.503014 0.462824 0.188655 -0.152887
C20   C     C_R   0.496982 0.537176 0.811346 -0.152894
C21   C     C_R   0.599141 0.616338 0.962993 -0.128104
C22   C     C_R   0.400853 0.383666 0.037008 -0.128095
C23   C     C_R   0.576001 0.615748 0.857513 -0.261990
C24   C     C_R   0.423990 0.384258 0.142488 -0.261995
C25   C     C_R   0.434221 0.461769 0.870016 0.274243
C26   C     C_R   0.565781 0.538227 0.129985 0.274251
C27   C     C_R   0.458238 0.460940 0.976543 0.013713
C28   C     C_R   0.541759 0.539062 0.023458 0.013709
H9    H     H_    0.374697 0.327425 0.189130 0.174839
H10   H     H_    0.625289 0.672584 0.810872 0.174840
H11   H     H_    0.664431 0.675744 0.995705 0.202239
H12   H     H_    0.335563 0.324261 0.004294 0.202228
N1    N     N_R   0.523130 0.207800 0.519340 -0.104415
N2    N     N_R   0.476870 0.792200 0.480660 -0.104416
C29   C     C_R   0.366342 0.954093 0.418292 -0.326912
C30   C     C_R   0.633658 0.045907 0.581708 -0.326908
C31   C     C_R   0.381332 0.837578 0.424169 0.072088
C32   C     C_R   0.618668 0.162422 0.575831 0.072110
C33   C     C_R   0.560328 0.858347 0.532682 -0.050184
C34   C     C_R   0.439672 0.141653 0.467318 -0.050185
C35   C     C_R   0.549283 0.975856 0.528970 0.094883
C36   C     C_R   0.450717 0.024144 0.471030 0.094885
H13   H     H_    0.365508 0.180627 0.422492 0.129099
H14   H     H_    0.634492 0.819373 0.577508 0.129099
H15   H     H_    0.684041 0.216842 0.615852 0.146962
H16   H     H_    0.315958 0.783158 0.384148 0.146962
H17   H     H_    0.289552 0.988948 0.373401 0.151652
H18   H     H_    0.710448 0.011052 0.626599 0.151652
N3    N     N_R   0.652592 0.613595 0.179320 0.191896
O9    O     O_R   0.749614 0.573491 0.228739 -0.437559
O10   O     O_R   0.625510 0.721253 0.187043 -0.401269
N4    N     N_R   0.347437 0.386377 0.820678 0.191893
O11   O     O_R   0.250395 0.426455 0.771265 -0.437555
O12   O     O_R   0.374562 0.278724 0.812949 -0.401248

loop_
_geom_bond_atom_site_label_1
_geom_bond_atom_site_label_2
_geom_bond_distance
_ccdc_geom_bond_type
O1    Zn1   1.978768 S    
N4    O12   1.301466 A    
O7    Zn2   1.992557 S    
H2    C9    1.082812 S    
C30   H18   1.083459 S    
C4    C17   1.457994 S    
C13   C15   1.396944 A    
O7    C3    1.286059 A    
C14   C16   1.396943 A    
N2    C31   1.361966 A    
O5    Zn1   1.974252 S    
O6    C4    1.296162 A    
C8    H6    1.082614 S    
C31   H16   1.081664 S    
C19   C26   1.400283 A    
C29   C31   1.399413 A    
C2    C19   1.426949 S    
C6    C16   1.417406 A    
C35   C36   1.409771 A    
C21   C23   1.377524 A    
N1    C34   1.362846 A    
Zn1   N1    2.005071 S    
C1    C20   1.426954 S    
C15   C18   1.411596 A    
O5    C3    1.296163 A    
C25   C27   1.393405 A    
C12   C14   1.419077 A    
C12   H8    1.080930 S    
O3    Zn2   2.008411 S    
O8    C4    1.286060 A    
C24   H9    1.084284 S    
C34   H13   1.082795 S    
C21   C28   1.401890 A    
O1    C1    1.283206 A    
C10   C12   1.394646 A    
C22   C24   1.377521 A    
C16   C17   1.411597 A    
C21   H11   1.081562 S    
C23   H10   1.084287 S    
C8    C10   1.389487 A    
C14   C18   1.416846 A    
C25   N4    1.438471 S    
C6    C8    1.393669 A    
C30   C35   1.400905 A    
C11   C13   1.419078 A    
C9    C11   1.394648 A    
C13   C17   1.416851 A    
C22   C27   1.401888 A    
C5    H3    1.082844 S    
C11   H7    1.080930 S    
C30   C32   1.399411 A    
C32   H15   1.081663 S    
C33   C35   1.405983 A    
C6    H4    1.082844 S    
N2    C33   1.362845 A    
N3    O10   1.301446 A    
C34   C36   1.405982 A    
N3    O9    1.301049 A    
C5    C15   1.417405 A    
C22   H12   1.081564 S    
C33   H14   1.082795 S    
N4    O11   1.301058 A    
C29   H17   1.083458 S    
C20   C23   1.393183 A    
O4    C2    1.281837 A    
N1    C32   1.361967 A    
C7    H5    1.082614 S    
O2    Zn2   1.978768 S    
C19   C24   1.393175 A    
C5    C7    1.393670 A    
C26   N3    1.438461 S    
O6    Zn2   1.974251 S    
O4    Zn1   2.008410 S    
C7    C9    1.389486 A    
C27   C28   1.424155 A    
C29   C36   1.400905 A    
H1    C10   1.082811 S    
Zn2   N2    2.005072 S    
C20   C25   1.400285 A    
O2    C2    1.283204 A    
C3    C18   1.457993 S    
C26   C28   1.393409 A    
O3    C1    1.281840 A    
O8    Zn1   1.992556 S    
