data_mof_unit_36723.cif
_audit_creation_date              2012-12-10T16:58:23-0500
_audit_creation_method            fapswitch 2.2
_symmetry_space_group_name_H-M    P1
_symmetry_Int_Tables_number       1
_space_group_crystal_system       triclinic
_cell_length_a                    7.739642
_cell_length_b                    8.572151
_cell_length_c                    23.398494
_cell_angle_alpha                 91.100066
_cell_angle_beta                  86.17039
_cell_angle_gamma                 92.907442
_cell_volume                      1546.72710617

loop_
_atom_site_label
_atom_site_type_symbol
_atom_type_description
_atom_site_fract_x
_atom_site_fract_y
_atom_site_fract_z
_atom_type_partial_charge
C1    C     C_R   0.544053 0.794356 0.497818 0.950338
C2    C     C_R   0.332093 0.506757 0.302250 -0.187270
C3    C     C_R   0.672476 0.492423 0.756958 -0.076422
C4    C     C_R   0.327739 0.508665 0.243043 -0.078123
C5    C     C_R   0.517671 0.494624 0.791171 0.295458
C6    C     C_R   0.482607 0.506927 0.208847 0.297256
C7    C     C_2   0.557799 0.953674 0.485725 0.077525
C8    C     C_2   0.442617 0.046348 0.514205 0.018552
C9    C     C_R   0.502637 0.499688 0.610653 0.938754
C10   C     C_R   0.497364 0.500328 0.389349 0.940018
C11   C     C_R   0.436179 0.369876 0.120468 0.534078
C12   C     C_R   0.455999 0.205625 0.501999 0.952493
C13   C     C_R   0.564172 0.631728 0.879543 0.534597
C14   C     C_R   0.526669 0.640756 0.119778 0.540181
C15   C     C_R   0.473693 0.360847 0.880241 0.540797
C16   C     C_R   0.536319 0.640937 0.060081 -0.072681
C17   C     C_R   0.464059 0.360671 0.939936 -0.072858
C18   C     C_R   0.494853 0.501417 0.030120 -0.092059
C19   C     C_R   0.505522 0.500195 0.969895 -0.092124
C20   C     C_R   0.442563 0.363475 0.060339 -0.123561
C21   C     C_R   0.557805 0.638136 0.939674 -0.123729
C22   C     C_R   0.587467 0.777230 0.030141 -0.233556
C23   C     C_R   0.358459 0.498260 0.766596 -0.097348
C24   C     C_R   0.412914 0.224378 0.969875 -0.233418
C25   C     C_R   0.601861 0.776979 0.970222 0.525698
C26   C     C_R   0.398514 0.224632 0.029791 0.525655
C27   C     C_3   0.816187 0.966325 0.951273 -0.237505
C28   C     C_3   0.184084 0.035444 0.048795 -0.238034
C29   C     C_R   0.641797 0.503330 0.233438 -0.095438
C30   C     C_R   0.353516 0.500030 0.707524 -0.117369
C31   C     C_R   0.646645 0.501030 0.292505 -0.121260
C32   C     C_R   0.508336 0.497893 0.672730 -0.024904
C33   C     C_R   0.491752 0.502590 0.327278 -0.010483
C34   C     C_R   0.668028 0.493811 0.697746 -0.179296
H1    H     H_    0.615630 0.885192 0.053211 0.229714
H2    H     H_    0.204697 0.511245 0.223669 0.136473
H3    H     H_    0.014705 0.384204 0.456226 0.223352
H4    H     H_    0.985120 0.615360 0.543879 0.232183
H5    H     H_    0.908019 0.870693 0.944320 0.146382
H6    H     H_    0.824343 0.018524 0.994877 0.129456
H7    H     H_    0.857733 0.059304 0.920253 0.212981
H8    H     H_    0.175676 0.983469 0.005165 0.129568
H9    H     H_    0.092356 0.131118 0.055863 0.146475
H10   H     H_    0.142614 0.942336 0.079771 0.212644
H11   H     H_    0.839971 0.809943 0.392340 0.371441
H12   H     H_    0.384743 0.116412 0.946808 0.229798
H13   H     H_    0.072194 0.986420 0.535964 0.368511
H14   H     H_    0.238962 0.500366 0.793417 0.134941
H15   H     H_    0.761342 0.501573 0.206632 0.133623
H16   H     H_    0.228820 0.502883 0.689225 0.172725
H17   H     H_    0.771322 0.498241 0.310821 0.164106
H18   H     H_    0.789055 0.492295 0.671714 0.170138
H19   H     H_    0.211019 0.507909 0.328268 0.162198
H20   H     H_    0.795535 0.489801 0.776319 0.137704
N1    N     N_R   0.479078 0.506465 0.148237 -0.371477
N2    N     N_R   0.521254 0.495137 0.851779 -0.371322
N3    N     N_2   0.950330 0.457950 0.484560 -0.168190
N4    N     N_2   0.049670 0.542050 0.515440 -0.159824
O1    O     O_R   0.389250 0.738570 0.503790 -0.571412
O2    O     O_2   0.610982 0.760241 0.848688 -0.460075
O3    O     O_2   0.565436 0.773220 0.149429 -0.506945
O4    O     O_2   0.434929 0.228374 0.850595 -0.506745
O5    O     O_3   0.644336 0.915097 0.941549 -0.552592
O6    O     O_3   0.356026 0.086510 0.058458 -0.552628
O7    O     O_2   0.595712 0.116159 0.386800 -0.276194
O8    O     O_2   0.857064 0.081431 0.437681 -0.320210
O9    O     O_3   0.726672 0.844401 0.381370 -0.538518
O10   O     O_2   0.404561 0.883929 0.613058 -0.276018
O11   O     O_2   0.276359 0.138372 0.614051 -0.285239
O12   O     O_R   0.610750 0.261430 0.496210 -0.570633
O13   O     O_3   0.122991 0.909627 0.560250 -0.520889
O14   O     O_R   0.678390 0.711620 0.493890 -0.626598
O15   O     O_R   0.321610 0.288380 0.506110 -0.611514
O16   O     O_R   0.355400 0.513520 0.588790 -0.583517
O17   O     O_R   0.644600 0.486480 0.411210 -0.600594
O18   O     O_R   0.644550 0.486570 0.578900 -0.645726
O19   O     O_R   0.355450 0.513430 0.421100 -0.650436
O20   O     O_2   0.389378 0.241350 0.151316 -0.461068
S1    S     S_3+6 0.687358 0.004920 0.421821 0.041353
S2    S     S_3+6 0.312685 0.995045 0.578056 0.055651
Zn1   Zn    Zn3+2 0.306930 0.518000 0.506610 1.048710
Zn2   Zn    Zn3+2 0.693070 0.482000 0.493390 1.034275

loop_
_geom_bond_atom_site_label_1
_geom_bond_atom_site_label_2
_ccdc_geom_bond_type
O10   S2    D    
C4    H2    S    
O7    S1    D    
C5    N2    S    
C6    N1    S    
C7    C8    D    
C13   O2    S    
C29   H15   S    
C22   H1    S    
C19   C21   A    
C24   C26   A    
C1    O1    A    
C3    H20   S    
C18   C19   A    
C25   O5    S    
C26   O6    S    
C21   C25   A    
C9    C32   S    
H4    N4    S    
C27   H5    S    
C22   C25   A    
H11   O9    S    
C31   C33   A    
C9    O18   A    
C13   N2    A    
C14   N1    A    
C30   H16   S    
C12   O15   A    
O15   Zn1   S    
O13   S2    S    
C10   O19   A    
C11   C20   A    
C1    O14   A    
C17   C24   A    
C23   C30   A    
O9    S1    S    
C4    C6    A    
N4    Zn1   S    
O18   Zn2   S    
C3    C34   A    
C14   O3    S    
C28   H10   S    
C32   C34   A    
C2    C4    A    
O8    S1    D    
C11   O20   S    
C10   O17   A    
C27   H7    S    
C5    C23   A    
O19   Zn1   S    
C27   H6    S    
C8    C12   S    
C13   C21   A    
H13   O13   S    
C27   O5    S    
C28   O6    S    
C2    C33   A    
C14   C16   A    
C9    O16   A    
O16   Zn1   S    
C11   N1    A    
C7    S1    S    
C15   C17   A    
C12   O12   A    
C16   C22   A    
C23   H14   S    
C1    C7    S    
O1    Zn1   S    
C31   H17   S    
C3    C5    A    
C2    H19   S    
O17   Zn2   S    
C28   H9    S    
C34   H18   S    
C24   H12   S    
C15   N2    A    
C29   C31   A    
C30   C32   A    
N3    N4    D    
C20   C26   A    
C28   H8    S    
C17   C19   A    
C15   O4    S    
C10   C33   S    
C18   C20   A    
O12   Zn2   S    
O14   Zn2   S    
C6    C29   A    
C16   C18   A    
C8    S2    S    
N3    Zn2   S    
O11   S2    D    
H3    N3    S    
