data_mof_unit_50077.cif
_audit_creation_date              2012-12-10T17:18:13-0500
_audit_creation_method            fapswitch 2.2
_symmetry_space_group_name_H-M    P1
_symmetry_Int_Tables_number       1
_space_group_crystal_system       triclinic
_cell_length_a                    10.291974
_cell_length_b                    10.756674
_cell_length_c                    14.987168
_cell_angle_alpha                 92.471848
_cell_angle_beta                  81.039628
_cell_angle_gamma                 95.837022
_cell_volume                      1629.81590195

loop_
_atom_site_label
_atom_site_type_symbol
_atom_type_description
_atom_site_fract_x
_atom_site_fract_y
_atom_site_fract_z
_atom_type_partial_charge
C1    C     C_R   0.555741 0.732571 0.497247 0.945438
C2    C     C_2   0.070396 0.484198 0.495436 0.174034
C3    C     C_R   0.499908 0.500594 0.673035 0.880186
C4    C     C_R   0.500094 0.499412 0.326967 0.888435
C5    C     C_R   0.379902 0.493780 0.197778 -0.261742
C6    C     C_R   0.620084 0.506099 0.802212 -0.262308
C7    C     C_R   0.500183 0.498764 0.230898 -0.070159
C8    C     C_R   0.499807 0.501163 0.769094 -0.066595
C9    C     C_R   0.620356 0.503602 0.172320 -0.256147
C10   C     C_R   0.379631 0.496275 0.827667 -0.256360
C11   C     C_R   0.621197 0.504108 0.079941 0.117666
C12   C     C_R   0.444295 0.267749 0.508817 0.945315
C13   C     C_R   0.378786 0.495713 0.920044 0.117309
C14   C     C_R   0.500025 0.499514 0.046391 0.060691
C15   C     C_R   0.499957 0.500293 0.953595 0.060653
C16   C     C_R   0.378923 0.494205 0.105625 0.121645
C17   C     C_R   0.621060 0.505618 0.894361 0.121405
C18   C     C_R   0.741013 0.509458 0.020760 -0.217734
C19   C     C_R   0.258968 0.490346 0.979224 -0.217827
C20   C     C_3   0.108888 0.370235 0.437596 -0.349515
C21   C     C_3   0.062708 0.248978 0.487958 -0.889787
C22   C     C_3   0.891082 0.629643 0.562558 -0.349679
C23   C     C_R   0.740942 0.510236 0.928090 -0.218822
C24   C     C_3   0.937422 0.751065 0.512440 -0.888824
C25   C     C_R   0.259040 0.489569 0.071894 -0.218576
C26   C     C_2   0.587010 0.865847 0.505434 -0.377312
C27   C     C_2   0.413207 0.135868 0.523646 -0.374056
C28   C     C_2   0.488711 0.935587 0.536051 -0.148852
C29   C     C_2   0.511707 0.068655 0.533489 -0.145250
C30   C     C_2   0.929596 0.515789 0.504583 0.172577
H1    H     H_    0.286939 0.489189 0.243517 0.154697
H2    H     H_    0.687743 0.907037 0.485342 0.151575
H3    H     H_    0.132098 0.627472 0.576764 0.160568
H4    H     H_    0.867893 0.372491 0.423282 0.162461
H5    H     H_    0.713300 0.507960 0.198444 0.162297
H6    H     H_    0.286690 0.491939 0.801541 0.162204
H7    H     H_    0.103323 0.250768 0.552466 0.277710
H8    H     H_    0.953431 0.234817 0.503685 0.242867
H9    H     H_    0.097828 0.168251 0.445559 0.244637
H10   H     H_    0.070448 0.368367 0.372370 0.146433
H11   H     H_    0.214612 0.372694 0.415093 0.267979
H12   H     H_    0.713049 0.510712 0.756474 0.154616
H13   H     H_    0.046677 0.764932 0.496411 0.244523
H14   H     H_    0.896412 0.749806 0.448111 0.277811
H15   H     H_    0.902826 0.831715 0.555157 0.244496
H16   H     H_    0.785351 0.627265 0.584982 0.267886
H17   H     H_    0.929428 0.631236 0.627808 0.146038
H18   H     H_    0.834410 0.513046 0.046124 0.142469
H19   H     H_    0.165572 0.486764 0.953860 0.142399
H20   H     H_    0.834277 0.514360 0.882888 0.141458
H21   H     H_    0.165705 0.485450 0.117096 0.141669
H22   H     H_    0.612886 0.110343 0.531987 0.188085
H23   H     H_    0.387599 0.895062 0.556021 0.187477
H24   H     H_    0.312388 0.093515 0.524996 0.150311
N1    N     N_2   0.842700 0.448880 0.462930 -0.225907
N2    N     N_2   0.157300 0.551120 0.537070 -0.225358
O1    O     O_R   0.431060 0.692470 0.507460 -0.610002
O2    O     O_R   0.568940 0.307530 0.492540 -0.610946
O3    O     O_R   0.651120 0.659650 0.483670 -0.621182
O4    O     O_R   0.348880 0.340350 0.516330 -0.621596
O5    O     O_R   0.389960 0.516440 0.644050 -0.617625
O6    O     O_R   0.610040 0.483560 0.355950 -0.613877
O7    O     O_R   0.610030 0.483620 0.620260 -0.647710
O8    O     O_R   0.389970 0.516380 0.379740 -0.643765
Zn1   Zn    Zn3+2 0.353060 0.521920 0.515880 0.919725
Zn2   Zn    Zn3+2 0.646940 0.478080 0.484120 0.919770

loop_
_geom_bond_atom_site_label_1
_geom_bond_atom_site_label_2
_ccdc_geom_bond_type
O5    Zn1   S    
C10   H6    S    
C28   H23   S    
C25   H21   S    
C11   C18   A    
C26   H2    S    
C1    O1    A    
C6    C17   A    
C27   C29   D    
C5    C7    A    
C30   N1    D    
C4    O8    A    
C26   C28   D    
C18   C23   A    
C21   H9    S    
C2    C30   S    
C12   O2    A    
O8    Zn1   S    
H3    N2    S    
C1    O3    A    
C22   H17   S    
O7    Zn2   S    
H4    N1    S    
C2    N2    D    
C9    C11   A    
C17   C23   A    
C4    C7    S    
C19   C25   A    
C24   H15   S    
C10   C13   A    
C22   C24   S    
C28   C29   S    
C22   H16   S    
C24   H14   S    
O4    Zn1   S    
C20   H11   S    
C3    O7    A    
C13   C15   A    
O3    Zn2   S    
C1    C26   S    
C20   H10   S    
C11   C14   A    
C14   C16   A    
C19   H19   S    
C27   H24   S    
C13   C19   A    
C12   C27   S    
C2    C20   S    
N2    Zn1   S    
C12   O4    A    
C4    O6    A    
N1    Zn2   S    
C21   H7    S    
C20   C21   S    
C8    C10   A    
C3    C8    S    
C6    H12   S    
O1    Zn1   S    
C16   C25   A    
C7    C9    A    
C24   H13   S    
O6    Zn2   S    
C14   C15   A    
C5    C16   A    
C6    C8    A    
C22   C30   S    
C5    H1    S    
C15   C17   A    
O2    Zn2   S    
C21   H8    S    
C9    H5    S    
C3    O5    A    
C23   H20   S    
C29   H22   S    
C18   H18   S    
