data_mof_unit_6490.cif
_audit_creation_date              2012-12-10T20:27:17-0500
_audit_creation_method            fapswitch 2.2
_symmetry_space_group_name_H-M    P1
_symmetry_Int_Tables_number       1
_space_group_crystal_system       triclinic
_cell_length_a                    10.598275
_cell_length_b                    10.672776
_cell_length_c                    9.930869
_cell_angle_alpha                 90.720798
_cell_angle_beta                  101.416933
_cell_angle_gamma                 89.906588
_cell_volume                      1100.99571777

loop_
_atom_site_label
_atom_site_type_symbol
_atom_type_description
_atom_site_fract_x
_atom_site_fract_y
_atom_site_fract_z
_atom_type_partial_charge
C1    C     C_R   0.496705 0.260228 0.499121 0.913827
C2    C     C_R   0.479543 0.128605 0.498124 -0.094280
C3    C     C_R   0.433407 0.063116 0.375385 -0.260742
C4    C     C_R   0.433991 0.933371 0.375511 -0.236476
C5    C     C_R   0.478701 0.871095 0.499360 -0.061373
C6    C     C_R   0.499612 0.937500 0.623049 0.021250
C7    C     C_3   0.604766 0.928679 0.747993 -0.582723
C8    C     C_3   0.605686 0.072410 0.748129 0.417692
C9    C     C_R   0.388800 0.490591 0.047059 -0.009293
C10   C     C_R   0.610425 0.519436 0.095334 -0.128483
C11   C     C_R   0.610771 0.517758 0.951857 -0.120287
C12   C     C_R   0.258606 0.497577 0.443990 0.920084
C13   C     C_R   0.387441 0.497511 0.905926 -0.081743
C14   C     C_3   0.274646 0.407971 0.871024 0.806047
C15   C     C_3   0.288517 0.389622 0.028658 0.811690
C16   C     C_R   0.496789 0.739695 0.500124 0.856543
C17   C     C_R   0.740408 0.488388 0.554167 0.950205
C18   C     C_2   0.120910 0.481343 0.412617 -0.314368
C19   C     C_2   0.066361 0.409623 0.493210 -0.267695
C20   C     C_2   0.874811 0.452366 0.577000 -0.470568
C21   C     C_2   0.927602 0.406401 0.473911 0.546939
C22   C     C_R   0.500708 0.065118 0.622187 0.050401
H1    H     H_    0.931056 0.462549 0.679716 0.181654
H2    H     H_    0.690946 0.879199 0.726868 0.199748
N1    N     N_R   0.499160 0.499140 0.142600 -0.098408
N2    N     N_R   0.499160 0.499180 0.856960 -0.085066
O1    O     O_R   0.500020 0.316790 0.614700 -0.564570
O2    O     O_R   0.500000 0.316760 0.385350 -0.615524
O3    O     O_R   0.317820 0.500020 0.571850 -0.583965
O4    O     O_R   0.317800 0.499980 0.342510 -0.564921
O5    O     O_R   0.500000 0.683240 0.614650 -0.616500
O6    O     O_R   0.499980 0.683210 0.385300 -0.628944
O7    O     O_R   0.682200 0.500020 0.657490 -0.625138
O8    O     O_R   0.682180 0.499980 0.428150 -0.561116
Zn1   Zn    Zn3+2 0.500010 0.500020 0.653140 0.988309
Zn2   Zn    Zn3+2 0.499990 0.499980 0.346860 0.992076
O9    O     O_3   0.856340 0.389668 0.341818 -0.588375
C23   C     C_3   0.857652 0.261660 0.305958 -0.359428
H3    H     H_    0.957290 0.225895 0.311860 0.158304
H4    H     H_    0.805572 0.249708 0.198096 0.184299
H5    H     H_    0.806106 0.205186 0.371402 0.161980
O10   O     O_3   0.718978 0.137490 0.730890 -0.586568
C24   C     C_3   0.791647 0.076661 0.644522 -0.334039
H6    H     H_    0.731234 0.036278 0.549768 0.166780
H7    H     H_    0.854593 0.004138 0.702359 0.164103
H8    H     H_    0.856291 0.146899 0.612193 0.172021
H9    H     H_    0.699819 0.534068 0.167659 0.194952
H10   H     H_    0.700778 0.529849 0.918036 0.157639
O11   O     O_3   0.154438 0.463680 0.808098 -0.648768
C25   C     C_3   0.150419 0.596445 0.816416 -0.360547
H11   H     H_    0.214202 0.639212 0.753291 0.190963
H12   H     H_    0.175132 0.631008 0.924385 0.181904
H13   H     H_    0.051323 0.628970 0.774452 0.179365
O12   O     O_3   0.305552 0.302901 0.794481 -0.611977
C26   C     C_3   0.212768 0.206252 0.784702 -0.371551
H14   H     H_    0.111981 0.240513 0.759782 0.174744
H15   H     H_    0.227119 0.150562 0.879836 0.199085
H16   H     H_    0.225689 0.141388 0.700332 0.180166
O13   O     O_3   0.180950 0.433672 0.080694 -0.627060
C27   C     C_3   0.085292 0.340459 0.071508 -0.218290
H17   H     H_    0.116995 0.264823 0.146540 0.185594
H18   H     H_    0.056904 0.301170 0.966031 0.159376
H19   H     H_    0.998100 0.383836 0.098058 0.187792
O14   O     O_3   0.333227 0.270038 0.083671 -0.645940
C28   C     C_3   0.455863 0.230487 0.061682 -0.381436
H20   H     H_    0.530726 0.250492 0.154035 0.216566
H21   H     H_    0.487252 0.272088 0.972615 0.190557
H22   H     H_    0.453268 0.127486 0.045088 0.170443
H23   H     H_    0.123652 0.363235 0.579745 0.222644
H24   H     H_    0.064379 0.525950 0.322625 0.188306
H25   H     H_    0.402914 0.111027 0.279765 0.219816
H26   H     H_    0.406161 0.882778 0.278937 0.171672
H27   H     H_    0.568179 0.890045 0.836416 0.179583
H28   H     H_    0.568460 0.112319 0.836328 0.091041

loop_
_geom_bond_atom_site_label_1
_geom_bond_atom_site_label_2
_ccdc_geom_bond_type
C2    C22   A    
C1    O2    A    
C3    H25   S    
C15   O14   S    
O13   C27   S    
C18   H24   S    
C6    C7    S    
C12   O3    A    
C16   O6    A    
O1    Zn1   S    
O3    Zn1   S    
C8    C22   S    
C20   H1    S    
O4    Zn2   S    
C26   H14   S    
C28   H22   S    
C1    O1    A    
O14   C28   S    
C8    H28   S    
C25   H11   S    
C9    C15   S    
C9    N1    A    
C7    C8    S    
C7    H27   S    
C13   C14   S    
C16   O5    A    
C23   H4    S    
C24   H7    S    
C11   H10   S    
O9    C23   S    
C17   O7    A    
C27   H17   S    
C27   H19   S    
C5    C6    A    
O6    Zn2   S    
C10   N1    A    
C14   O12   S    
C8    O10   S    
C28   H20   S    
O8    Zn2   S    
C10   C11   A    
C26   H15   S    
C24   H6    S    
C23   H3    S    
O7    Zn1   S    
C24   H8    S    
O5    Zn1   S    
C13   N2    A    
C19   H23   S    
C25   H13   S    
C28   H21   S    
C17   O8    A    
N1    Zn2   S    
C7    H2    S    
C14   O11   S    
N2    Zn1   S    
C4    H26   S    
C17   C20   S    
C21   O9    S    
C20   C21   D    
O2    Zn2   S    
C23   H5    S    
C27   H18   S    
C1    C2    S    
O10   C24   S    
C26   H16   S    
C12   C18   S    
C25   H12   S    
O11   C25   S    
C9    C13   A    
O12   C26   S    
C18   C19   D    
C5    C16   S    
C2    C3    A    
C11   N2    A    
C12   O4    A    
C14   C15   S    
C10   H9    S    
C15   O13   S    
C3    C4    A    
C4    C5    A    
C19   C21   S    
C6    C22   A    
