data_mof_unit_24534.cif
_audit_creation_date              2012-12-10T17:56:18-0500
_audit_creation_method            fapswitch 2.2
_symmetry_space_group_name_H-M    P1
_symmetry_Int_Tables_number       1
_space_group_crystal_system       triclinic
_cell_length_a                    12.995317
_cell_length_b                    10.950546
_cell_length_c                    9.611188
_cell_angle_alpha                 90.480189
_cell_angle_beta                  96.022413
_cell_angle_gamma                 90.064339
_cell_volume                      1360.12884464

loop_
_atom_site_label
_atom_site_type_symbol
_atom_type_description
_atom_site_fract_x
_atom_site_fract_y
_atom_site_fract_z
_atom_type_partial_charge
C1    C     C_R   0.500313 0.262335 0.498992 0.863928
C2    C     C_R   0.496008 0.737593 0.500290 0.866426
C3    C     C_R   0.491318 0.871871 0.501256 -0.268909
C4    C     C_R   0.499338 0.128232 0.496427 -0.271539
C5    C     C_R   0.410958 0.480331 0.061142 -0.044500
C6    C     C_R   0.589178 0.518780 0.938894 -0.022031
C7    C     C_R   0.410824 0.481435 0.913353 -0.024036
C8    C     C_R   0.589141 0.518913 0.086636 -0.020454
C9    C     C_R   0.300906 0.498959 0.473932 0.916329
C10   C     C_R   0.699118 0.500900 0.526061 0.934813
C11   C     C_R   0.811715 0.506635 0.540583 -0.403394
C12   C     C_R   0.188366 0.492957 0.459395 -0.395692
C13   C     C_R   0.028433 0.416626 0.338195 0.686228
C14   C     C_R   0.971731 0.582698 0.661885 0.682151
C15   C     C_R   0.135229 0.429364 0.346622 0.424339
C16   C     C_R   0.864943 0.569978 0.653491 0.442243
C17   C     C_R   0.134163 0.545632 0.563227 0.596483
C18   C     C_R   0.865899 0.453932 0.436693 0.608784
C19   C     C_R   0.026789 0.532392 0.556824 -0.345228
C20   C     C_R   0.973315 0.467048 0.443160 -0.348175
C21   C     C_R   0.478891 0.060651 0.370473 -0.182052
C22   C     C_R   0.497649 0.939814 0.626734 -0.168425
C23   C     C_R   0.480051 0.934068 0.374486 0.556223
C24   C     C_R   0.512454 0.065207 0.623552 0.564226
Cu1   Cu    Cu3+1 0.500000 0.500020 0.640660 1.013401
Cu2   Cu    Cu3+1 0.500000 0.499980 0.359340 1.008624
H1    H     H_    0.339048 0.463805 0.104708 0.206828
H2    H     H_    0.661146 0.534918 0.895331 0.207529
H3    H     H_    0.338656 0.465602 0.849330 0.180279
H4    H     H_    0.661170 0.535585 0.150668 0.188036
N1    N     N_R   0.500030 0.500030 0.852080 -0.177303
N2    N     N_R   0.499970 0.499970 0.147920 -0.182270
O1    O     O_R   0.499990 0.319660 0.618740 -0.539215
O2    O     O_R   0.500010 0.680340 0.381260 -0.538360
O3    O     O_R   0.499990 0.319630 0.381170 -0.585551
O4    O     O_R   0.500010 0.680370 0.618830 -0.580616
O5    O     O_R   0.349000 0.499990 0.599490 -0.568324
O6    O     O_R   0.651000 0.500010 0.400510 -0.564140
O7    O     O_R   0.348990 0.499960 0.361920 -0.561031
O8    O     O_R   0.651010 0.500040 0.638080 -0.553714
F1    F     F_    0.813632 0.388992 0.330422 -0.595639
F2    F     F_    0.186379 0.610651 0.669408 -0.622521
F3    F     F_    0.813293 0.623870 0.753242 -0.623605
F4    F     F_    0.186965 0.375279 0.247066 -0.635822
F5    F     F_    0.979845 0.353635 0.227873 -0.547823
F6    F     F_    0.020380 0.645545 0.772297 -0.562384
C25   C     C_R   0.451098 0.115663 0.232183 0.196443
C26   C     C_R   0.347998 0.111097 0.171624 -0.035511
C27   C     C_R   0.322619 0.150592 0.034633 -0.132722
C28   C     C_R   0.399804 0.195591 0.958285 -0.099036
C29   C     C_R   0.502300 0.202693 0.019522 -0.037351
C30   C     C_R   0.528426 0.160199 0.154836 -0.092058
H5    H     H_    0.287948 0.074624 0.229604 0.147549
H6    H     H_    0.243317 0.145929 0.987535 0.172268
H7    H     H_    0.379815 0.226560 0.852296 0.175191
H8    H     H_    0.561842 0.241263 0.962559 0.207415
H9    H     H_    0.608414 0.162678 0.199781 0.165997
C31   C     C_R   0.467022 0.887208 0.756270 0.189974
C32   C     C_R   0.362142 0.859911 0.764004 -0.117747
C33   C     C_R   0.331381 0.803154 0.882018 -0.102443
C34   C     C_R   0.405155 0.773076 0.992031 -0.034490
C35   C     C_R   0.509702 0.801638 0.985526 -0.066837
C36   C     C_R   0.540744 0.859534 0.868169 -0.070721
H10   H     H_    0.304666 0.881115 0.677669 0.149325
H11   H     H_    0.250684 0.781295 0.887622 0.213353
H12   H     H_    0.380850 0.727449 0.082399 0.194285
H13   H     H_    0.566935 0.778166 0.071019 0.179487
H14   H     H_    0.621806 0.879895 0.862886 0.167408
F7    F     F_    0.463082 0.872062 0.252823 -0.697259
F8    F     F_    0.536306 0.125133 0.746050 -0.686641

loop_
_geom_bond_atom_site_label_1
_geom_bond_atom_site_label_2
_ccdc_geom_bond_type
C12   C17   A    
Cu1   N1    S    
C11   C18   A    
Cu2   N2    S    
C35   C36   A    
C7    H3    S    
C14   C16   A    
C26   H5    S    
C11   C16   A    
C23   F7    S    
C3    C23   A    
C19   C20   A    
C12   C15   A    
C10   O6    A    
C1    C4    S    
C8    H4    S    
C2    O2    A    
C9    O5    A    
C2    C3    S    
C32   H10   S    
C24   F8    S    
C32   C33   A    
C14   F6    S    
C27   H6    S    
C13   F5    S    
C4    C21   A    
C16   F3    S    
C22   C31   S    
C25   C30   A    
C35   H13   S    
C4    C24   A    
C34   H12   S    
C26   C27   A    
C17   C19   A    
C33   H11   S    
C28   C29   A    
C18   C20   A    
C13   C15   A    
Cu1   O8    S    
C17   F2    S    
C34   C35   A    
C21   C23   A    
C9    C12   S    
C22   C24   A    
Cu2   O7    S    
C31   C32   A    
C7    N1    A    
C10   C11   S    
Cu1   O4    S    
C1    O1    A    
C29   C30   A    
C8    N2    A    
C25   C26   A    
Cu2   O3    S    
C9    O7    A    
C1    O3    A    
C10   O8    A    
C27   C28   A    
C30   H9    S    
C18   F1    S    
C2    O4    A    
C31   C36   A    
C5    C7    A    
C6    N1    A    
C15   F4    S    
C36   H14   S    
Cu2   O6    S    
C3    C22   A    
C6    C8    A    
C13   C20   A    
Cu1   O5    S    
Cu1   Cu2   S    
C5    H1    S    
C14   C19   A    
Cu2   O2    S    
C5    N2    A    
C6    H2    S    
C28   H7    S    
Cu1   O1    S    
C33   C34   A    
C21   C25   S    
C29   H8    S    
