data_mof_unit_26127.cif
_audit_creation_date              2012-12-11T15:53:46-0500
_audit_creation_method            fapswitch 2.2
_symmetry_space_group_name_H-M    P1
_symmetry_Int_Tables_number       1
_space_group_crystal_system       triclinic
_cell_length_a                    10.680558
_cell_length_b                    10.647985
_cell_length_c                    16.900438
_cell_angle_alpha                 80.917474
_cell_angle_beta                  99.243798
_cell_angle_gamma                 118.604481
_cell_volume                      1658.23764141

loop_
_atom_site_label
_atom_site_type_symbol
_atom_type_description
_atom_site_fract_x
_atom_site_fract_y
_atom_site_fract_z
_atom_type_partial_charge
C1    C     C_R   0.360905 0.228458 0.627213 0.547415
C2    C     C_R   0.517527 0.707623 0.735329 -0.134127
C3    C     C_R   0.498040 0.726799 0.811566 0.073364
C4    C     C_3   0.099134 0.489565 0.774468 -0.139492
C5    C     C_3   0.121297 0.466222 0.691718 -0.128936
C6    C     C_R   0.401364 0.614342 0.686534 -0.031384
C7    C     C_1   0.851715 0.670586 0.702255 -0.047548
C8    C     C_1   0.899080 0.704762 0.769169 -0.043772
C9    C     C_1   0.345374 0.187690 0.709753 -0.019925
C10   C     C_1   0.321168 0.160715 0.778443 -0.020810
C11   C     C_1   0.318748 0.682841 0.280446 -0.032096
C12   C     C_R   0.414526 0.619016 0.601581 0.567014
C13   C     C_1   0.297417 0.706830 0.209745 -0.051414
C14   C     C_R   0.790156 0.643724 0.146905 0.014943
C15   C     C_R   0.763127 0.513658 0.193890 0.025443
C16   C     C_R   0.730388 0.493168 0.271598 -0.003911
C17   C     C_R   0.706588 0.710240 0.250842 -0.152015
C18   C     C_R   0.744846 0.733715 0.171936 -0.144163
C19   C     C_3   0.850107 0.433708 0.214770 -0.126248
C20   C     C_3   0.815660 0.413082 0.301017 -0.141278
C21   C     C_R   0.714333 0.596884 0.303911 0.005638
C22   C     C_R   0.263148 0.053895 0.180582 0.007902
C23   C     C_R   0.782005 0.621757 0.625892 0.552026
C24   C     C_R   0.152781 0.049970 0.216937 0.009334
C25   C     C_R   0.171403 0.077943 0.295572 0.010239
C26   C     C_R   0.409798 0.102643 0.309175 -0.144160
C27   C     C_R   0.386606 0.064407 0.230448 -0.157326
C28   C     C_3   0.048651 0.109197 0.192599 -0.021959
C29   C     C_3   0.063857 0.133969 0.280295 -0.234830
C30   C     C_R   0.307632 0.126321 0.338445 0.030642
C31   C     C_R   0.948868 0.725366 0.851659 0.548732
C32   C     C_R   0.317507 0.705149 0.899291 0.557875
C33   C     C_R   0.284953 0.115526 0.858134 0.555840
C34   C     C_R   0.348468 0.220310 0.401934 0.545068
C35   C     C_R   0.880829 0.687769 0.081618 0.537046
C36   C     C_R   0.285002 0.738938 0.125596 0.531736
C37   C     C_R   0.246445 0.038653 0.095026 0.544630
C38   C     C_R   0.362706 0.657083 0.361799 0.575082
C39   C     C_R   0.700665 0.582475 0.389512 0.573744
C40   C     C_R   0.358759 0.650634 0.839075 0.010496
C41   C     C_R   0.254956 0.535603 0.797210 -0.022159
C42   C     C_R   0.276042 0.516281 0.722248 -0.011285
Cr1   Cr    Cr6+3 0.608440 0.389080 0.519680 1.034141
Cr2   Cr    Cr6+3 0.288640 0.400090 0.490760 1.046306
Cr3   Cr    Cr6+3 0.602940 0.710800 0.489510 1.026265
Cr4   Cr    Cr6+3 0.052530 0.947560 0.964210 1.084404
Cr5   Cr    Cr6+3 0.059970 0.626800 0.992920 1.067054
Cr6   Cr    Cr6+3 0.373320 0.938440 0.995370 1.072813
H1    H     H_    0.620197 0.774812 0.711638 0.161264
H2    H     H_    0.749254 0.300147 0.324803 0.110791
H3    H     H_    0.512110 0.127109 0.343438 0.131290
H4    H     H_    0.470152 0.055463 0.206998 0.164507
H5    H     H_    0.940237 0.027540 0.172124 0.134795
H6    H     H_    0.108561 0.248999 0.289929 0.184155
H7    H     H_    0.965325 0.061242 0.310577 0.126114
H8    H     H_    0.072038 0.578442 0.772221 0.105604
H9    H     H_    0.104625 0.540472 0.642115 0.135915
H10   H     H_    0.682484 0.786542 0.271814 0.148842
H11   H     H_    0.749709 0.826885 0.133405 0.150095
H12   H     H_    0.965879 0.500328 0.206050 0.141955
O1    O     O_R   0.754020 0.497590 0.609930 -0.497043
O2    O     O_R   0.295080 0.533620 0.397890 -0.475157
O3    O     O_R   0.485280 0.746620 0.388440 -0.526770
O4    O     O_R   0.720550 0.696220 0.420010 -0.502034
O5    O     O_3   0.500010 0.499990 0.499980 -0.308694
O6    O     O_R   0.163320 0.092900 0.874450 -0.483267
O7    O     O_R   0.934650 0.822080 0.882840 -0.454408
O8    O     O_R   0.915520 0.604140 0.893670 -0.490550
O9    O     O_R   0.191760 0.638110 0.923230 -0.504342
O10   O     O_R   0.406180 0.826930 0.920660 -0.476034
O11   O     O_R   0.358620 0.062870 0.901950 -0.483663
O12   O     O_R   0.481420 0.271390 0.600630 -0.490109
O13   O     O_R   0.163910 0.085460 0.050210 -0.459042
O14   O     O_R   0.935200 0.815170 0.045770 -0.508424
O15   O     O_R   0.916120 0.596690 0.069430 -0.512857
O16   O     O_R   0.192310 0.631200 0.086170 -0.461935
O17   O     O_R   0.406770 0.819480 0.096420 -0.493673
O18   O     O_R   0.359170 0.055960 0.064880 -0.496559
O19   O     O_3   0.161940 0.837600 0.984160 -0.339490
O20   O     O_R   0.263810 0.254550 0.589590 -0.500564
O21   O     O_R   0.300820 0.531200 0.560890 -0.486334
O22   O     O_R   0.491480 0.744020 0.564270 -0.500592
O23   O     O_R   0.726290 0.693800 0.583010 -0.507513
O24   O     O_R   0.747830 0.500190 0.434090 -0.497663
O25   O     O_R   0.475680 0.273800 0.437630 -0.520751
O26   O     O_R   0.257620 0.257160 0.413750 -0.519978
C43   C     C_1   0.783281 0.298709 0.176179 0.223862
N1    N     N_1   0.731377 0.192748 0.145666 -0.284005
C44   C     C_1   0.944595 0.492525 0.355068 0.213803
N2    N     N_1   0.044026 0.555728 0.398321 -0.259084
I1    I     I_    0.127025 0.310351 0.119286 -0.267132
I2    I     I_    0.681034 0.891093 0.871047 -0.223098
C45   C     C_1   0.010139 0.360770 0.825645 0.271628
N3    N     N_1   0.940625 0.260153 0.866185 -0.218788
C46   C     C_1   0.049838 0.315708 0.672090 0.259231
N4    N     N_1   0.993100 0.197505 0.656848 -0.260655

loop_
_geom_bond_atom_site_label_1
_geom_bond_atom_site_label_2
_ccdc_geom_bond_type
C43   N1    T    
C35   O14   A    
Cr1   O12   S    
C41   C42   A    
C14   C18   A    
C46   N4    T    
Cr5   O19   S    
C5    C42   S    
C7    C8    T    
Cr3   O23   S    
C31   O7    A    
C39   O4    A    
C35   O15   A    
C26   C27   A    
C45   N3    T    
C23   O23   A    
Cr6   O19   S    
C28   C29   S    
Cr5   O16   S    
Cr4   O6    S    
C19   C43   S    
C36   O17   A    
C6    C12   S    
Cr4   O19   S    
Cr3   O22   S    
C4    C41   S    
C15   C16   A    
C34   O26   A    
Cr6   O18   S    
Cr5   O9    S    
C20   H2    S    
C36   O16   A    
C19   C20   S    
C28   I1    S    
C9    C10   T    
Cr1   O5    S    
C17   H10   S    
C4    H8    S    
Cr1   O24   S    
Cr2   O5    S    
C2    C6    A    
Cr2   O26   S    
C5    C46   S    
C33   O6    A    
C25   C29   S    
C31   O8    A    
C1    O12   A    
C30   C34   S    
Cr1   O25   S    
Cr2   O20   S    
C1    C9    S    
C24   C25   A    
C13   C36   S    
Cr2   O21   S    
C14   C35   S    
C32   O10   A    
C29   H7    S    
Cr2   O2    S    
C22   C37   S    
Cr3   O3    S    
C17   C21   A    
C3    I2    S    
C34   O25   A    
Cr6   O17   S    
C11   C38   S    
C15   C19   S    
C2    H1    S    
C21   C39   S    
C16   C20   S    
C17   C18   A    
C12   O22   A    
C40   C41   A    
C3    C40   A    
C26   C30   A    
C22   C27   A    
Cr3   O5    S    
C22   C24   A    
Cr6   O11   S    
Cr5   O8    S    
Cr4   O14   S    
C27   H4    S    
Cr1   O1    S    
C38   O3    A    
C37   O18   A    
C25   C30   A    
C37   O13   A    
C8    C31   S    
C24   C28   S    
Cr6   O10   S    
C4    C5    S    
C39   O24   A    
C28   H5    S    
C16   C21   A    
C32   O9    A    
C19   H12   S    
C20   C44   S    
Cr3   O4    S    
C5    H9    S    
C29   H6    S    
C2    C3    A    
Cr5   O15   S    
Cr4   O7    S    
C26   H3    S    
C11   C13   T    
C7    C23   S    
C12   O21   A    
C10   C33   S    
C32   C40   S    
C33   O11   A    
C4    C45   S    
C18   H11   S    
C23   O1    A    
C6    C42   A    
C1    O20   A    
C14   C15   A    
C44   N2    T    
Cr4   O13   S    
C38   O2    A    
