data_mof_unit_37714.cif
_audit_creation_date              2012-12-10T17:22:39-0500
_audit_creation_method            fapswitch 2.2
_symmetry_space_group_name_H-M    P1
_symmetry_Int_Tables_number       1
_space_group_crystal_system       triclinic
_cell_length_a                    10.642259
_cell_length_b                    10.801826
_cell_length_c                    9.677232
_cell_angle_alpha                 89.666042
_cell_angle_beta                  89.704931
_cell_angle_gamma                 94.146721
_cell_volume                      1109.50583922

loop_
_atom_site_label
_atom_site_type_symbol
_atom_type_description
_atom_site_fract_x
_atom_site_fract_y
_atom_site_fract_z
_atom_type_partial_charge
C1    C     C_R   0.492888 0.262676 0.500681 0.771220
C2    C     C_3   0.966037 0.609390 0.452146 -0.196685
C3    C     C_3   0.042882 0.517604 0.369494 -0.151727
C4    C     C_3   0.123236 0.499743 0.499482 -0.005934
C5    C     C_R   0.312416 0.114907 0.678659 -0.251888
C6    C     C_R   0.232013 0.044619 0.767433 -0.134161
C7    C     C_R   0.232345 0.915769 0.769928 0.215704
C8    C     C_R   0.313238 0.857051 0.680652 -0.225114
C9    C     C_R   0.398510 0.926889 0.592440 0.069373
C10   C     C_R   0.398487 0.058066 0.592165 0.095570
C11   C     C_R   0.482380 0.128121 0.502236 -0.079945
C12   C     C_R   0.259858 0.499292 0.500038 0.778123
C13   C     C_R   0.560753 0.069184 0.412179 -0.216216
C14   C     C_R   0.560949 0.941911 0.413016 -0.210719
C15   C     C_R   0.482228 0.869966 0.501945 -0.094421
C16   C     C_R   0.625838 0.703823 0.137105 0.238211
C17   C     C_R   0.633851 0.818086 0.067763 -0.264843
C18   C     C_R   0.630494 0.819102 0.925964 -0.281347
C19   C     C_R   0.621536 0.706053 0.857030 0.238500
C20   C     C_R   0.561095 0.599243 0.924209 0.148710
C21   C     C_R   0.561609 0.598862 0.073010 0.084403
C22   C     C_R   0.436933 0.408631 0.074376 0.248549
C23   C     C_R   0.493295 0.736606 0.500231 0.781792
C24   C     C_R   0.438686 0.408392 0.926869 -0.124519
C25   C     C_R   0.740024 0.499433 0.499972 0.819609
C26   C     C_3   0.032914 0.391585 0.546043 0.143513
C27   C     C_3   0.951162 0.406843 0.417370 -0.255020
C28   C     C_3   0.876567 0.498897 0.500230 -0.023767
C29   C     C_3   0.958227 0.481406 0.627178 0.214910
C30   C     C_3   0.048463 0.591727 0.581942 -0.211787
Cu1   Cu    Cu3+1 0.499990 0.499990 0.640660 0.954990
Cu2   Cu    Cu3+1 0.500010 0.500010 0.359340 0.979646
H1    H     H_    0.909842 0.330726 0.351494 0.138497
H2    H     H_    0.306492 0.756991 0.680062 0.152285
H3    H     H_    0.626705 0.899735 0.347215 0.147085
H4    H     H_    0.672129 0.901726 0.117794 0.148367
H5    H     H_    0.387601 0.333587 0.872698 0.139913
H6    H     H_    0.080094 0.533368 0.262964 0.151713
H7    H     H_    0.625415 0.122260 0.343639 0.147718
H8    H     H_    0.168160 0.090820 0.833941 0.147870
N1    N     N_R   0.501210 0.501210 0.147910 -0.177354
N2    N     N_R   0.501250 0.501290 0.852040 -0.191182
O1    O     O_R   0.499990 0.319640 0.618810 -0.594557
O2    O     O_R   0.500000 0.319660 0.381240 -0.549790
O3    O     O_R   0.316850 0.499960 0.618770 -0.592376
O4    O     O_R   0.316860 0.499980 0.381190 -0.567678
O5    O     O_R   0.500000 0.680340 0.618760 -0.577292
O6    O     O_R   0.500010 0.680360 0.381190 -0.550024
O7    O     O_R   0.683140 0.500020 0.618810 -0.535221
O8    O     O_R   0.683150 0.500040 0.381230 -0.562566
N3    N     N_3   0.149475 0.845840 0.863681 -0.601089
H9    H     H_    0.057716 0.849766 0.826643 0.201514
H10   H     H_    0.169362 0.752454 0.864570 0.212637
N4    N     N_3   0.364228 0.312161 0.146494 -0.525902
H11   H     H_    0.396822 0.227166 0.116879 0.203395
H12   H     H_    0.270659 0.313593 0.114471 0.185527
N5    N     N_3   0.717508 0.687879 0.241692 -0.523087
H13   H     H_    0.787990 0.638445 0.196607 0.207967
H14   H     H_    0.763149 0.772390 0.271207 0.164547
H15   H     H_    0.665092 0.903215 0.872338 0.159252
N6    N     N_3   0.710747 0.694685 0.747979 -0.502917
H16   H     H_    0.714132 0.773803 0.684708 0.190754
H17   H     H_    0.799834 0.691860 0.792559 0.209759
N7    N     N_3   0.070784 0.273624 0.598785 -0.626786
H18   H     H_    0.988639 0.218747 0.622980 0.209260
H19   H     H_    0.114159 0.229826 0.517220 0.215991
N8    N     N_3   0.911992 0.460370 0.767938 -0.586905
H20   H     H_    0.990320 0.450572 0.830685 0.214091
H21   H     H_    0.858893 0.375122 0.769851 0.220466
H22   H     H_    0.088423 0.666706 0.649550 0.127839
H23   H     H_    0.937009 0.699913 0.413821 0.135346
H24   H     H_    0.304232 0.213801 0.677546 0.178203

loop_
_geom_bond_atom_site_label_1
_geom_bond_atom_site_label_2
_ccdc_geom_bond_type
C16   C21   A    
Cu1   N2    S    
C24   N2    A    
C19   C20   A    
C1    C11   S    
C7    C8    A    
C22   N4    S    
C27   H1    S    
C25   C28   S    
C26   C27   S    
Cu1   O1    S    
C28   C29   S    
C5    H24   S    
C5    C6    A    
N5    H14   S    
C22   N1    A    
C18   C19   A    
N6    H17   S    
C26   N7    S    
C25   O8    A    
C29   N8    S    
C1    O1    A    
C3    H6    S    
C8    C9    A    
Cu2   N1    S    
C17   H4    S    
C4    C12   S    
C9    C10   A    
C15   C23   S    
Cu1   O5    S    
C13   C14   A    
Cu2   O6    S    
Cu1   O7    S    
C30   H22   S    
C17   C18   A    
N4    H12   S    
C23   O5    A    
N3    H9    S    
C12   O4    A    
C14   H3    S    
C16   C17   A    
N8    H20   S    
N8    H21   S    
N7    H19   S    
C29   C30   S    
C1    O2    A    
C20   N2    A    
Cu1   Cu2   S    
C24   H5    S    
Cu2   O2    S    
C8    H2    S    
Cu2   O8    S    
C21   N1    A    
C18   H15   S    
C22   C24   A    
C2    H23   S    
N4    H11   S    
C23   O6    A    
Cu2   O4    S    
C12   O3    A    
C4    C26   S    
C6    C7    A    
C2    C30   S    
N7    H18   S    
C3    C27   S    
C2    C3    S    
C9    C15   A    
C7    N3    S    
C5    C10   A    
C11   C13   A    
N5    H13   S    
C19   N6    S    
C6    H8    S    
C16   N5    S    
N6    H16   S    
C25   O7    A    
C13   H7    S    
C10   C11   A    
C20   C21   A    
C26   C29   S    
Cu1   O3    S    
C27   C28   S    
C14   C15   A    
C2    C28   S    
N3    H10   S    
C4    C30   S    
C3    C4    S    
