data_mof_unit_27707.cif
_audit_creation_date              2012-12-10T17:35:02-0500
_audit_creation_method            fapswitch 2.2
_symmetry_space_group_name_H-M    P1
_symmetry_Int_Tables_number       1
_space_group_crystal_system       triclinic
_cell_length_a                    12.194589
_cell_length_b                    12.865365
_cell_length_c                    15.723416
_cell_angle_alpha                 93.878244
_cell_angle_beta                  87.531957
_cell_angle_gamma                 94.274023
_cell_volume                      2452.52661612

loop_
_atom_site_label
_atom_site_type_symbol
_atom_type_description
_atom_site_fract_x
_atom_site_fract_y
_atom_site_fract_z
_atom_type_partial_charge
C1    C     C_R   0.522281 0.700049 0.498100 0.889489
C2    C     C_R   0.536390 0.812044 0.497818 -0.097738
C3    C     C_R   0.651820 0.973537 0.514197 0.090853
C4    C     C_R   0.501042 0.501289 0.661104 0.906761
C5    C     C_R   0.640160 0.864417 0.507177 -0.187800
C6    C     C_R   0.443127 0.866479 0.491329 -0.268511
C7    C     C_R   0.451258 0.973470 0.497410 0.161829
C8    C     C_R   0.555183 0.028022 0.509838 0.129710
C9    C     C_R   0.559433 0.135979 0.516103 -0.294259
C10   C     C_R   0.362834 0.134098 0.495008 -0.141182
C11   C     C_R   0.355832 0.026286 0.491335 -0.192866
C12   C     C_3   0.427768 0.382006 0.039548 0.141116
C13   C     C_R   0.952230 0.457796 0.394404 -0.183646
C14   C     C_R   0.839510 0.438615 0.410829 0.107494
C15   C     C_R   0.860648 0.519278 0.550936 0.487397
C16   C     C_R   0.477875 0.300095 0.502517 0.896739
C17   C     C_R   0.977093 0.506409 0.543303 -0.123256
C18   C     C_R   0.023522 0.483220 0.461714 -0.123468
C19   C     C_R   0.139478 0.477176 0.451173 0.488423
C20   C     C_R   0.163198 0.541450 0.594563 -0.101562
C21   C     C_R   0.050479 0.517357 0.612460 0.097690
C22   C     C_R   0.498691 0.498059 0.338530 0.888574
C23   C     C_3   0.494457 0.479744 0.081278 -0.025126
C24   C     C_3   0.417415 0.397343 0.943069 0.232623
C25   C     C_3   0.462389 0.597190 0.961184 -0.139894
C26   C     C_3   0.445918 0.582734 0.057640 -0.484136
C27   C     C_1   0.494854 0.489712 0.249215 -0.036941
C28   C     C_3   0.497543 0.492252 0.915625 0.047934
C29   C     C_3   0.764373 0.032379 0.526135 -0.455561
C30   C     C_3   0.863647 0.965440 0.527002 -0.333291
C31   C     C_3   0.970692 0.034030 0.536807 -0.826115
C32   C     C_3   0.017475 0.481803 0.700887 -0.343332
C33   C     C_3   0.089227 0.397061 0.728110 -0.453946
C34   C     C_3   0.615962 0.478847 0.043959 0.187158
C35   C     C_3   0.048700 0.357057 0.813992 -0.707830
C36   C     C_3   0.776225 0.364292 0.348968 -0.326139
C37   C     C_3   0.826423 0.257469 0.338463 -0.351270
C38   C     C_3   0.744829 0.169657 0.305395 -0.816310
C39   C     C_3   0.370031 0.655248 0.923089 -0.395445
C40   C     C_3   0.257825 0.594374 0.912368 -0.353749
C41   C     C_3   0.170921 0.666153 0.889413 -0.810080
C42   C     C_3   0.615819 0.479497 0.945106 -0.438434
C43   C     C_1   0.493095 0.482534 0.173498 0.114458
C44   C     C_1   0.501235 0.498587 0.824657 0.061074
C45   C     C_1   0.502491 0.500950 0.749607 -0.088070
C46   C     C_R   0.465110 0.188511 0.505764 -0.042716
H1    H     H_    0.475289 0.313015 0.045514 0.165249
H2    H     H_    0.982646 0.445490 0.329340 0.231774
H3    H     H_    0.534946 0.654844 0.955153 0.173223
H4    H     H_    0.358020 0.583646 0.077740 0.258064
H5    H     H_    0.487866 0.651337 0.093145 0.171093
H6    H     H_    0.649486 0.409194 0.913119 0.293938
H7    H     H_    0.673252 0.545162 0.924255 0.174739
H8    H     H_    0.357888 0.234412 0.169224 0.346508
H9    H     H_    0.553097 0.203756 0.795346 0.386539
H10   H     H_    0.984353 0.085395 0.482730 0.266552
H11   H     H_    0.967899 0.083127 0.597660 0.265841
H12   H     H_    0.661526 0.552220 0.068599 0.126287
H13   H     H_    0.040932 0.983901 0.537321 0.253683
H14   H     H_    0.853615 0.913930 0.581228 0.256838
H15   H     H_    0.870082 0.916610 0.466139 0.228643
H16   H     H_    0.779788 0.085229 0.473322 0.211169
H17   H     H_    0.760961 0.080735 0.587423 0.217096
H18   H     H_    0.112909 0.288320 0.266763 0.424544
H19   H     H_    0.051065 0.422056 0.864238 0.264843
H20   H     H_    0.963215 0.321159 0.809979 0.268973
H21   H     H_    0.102735 0.297084 0.832198 0.288694
H22   H     H_    0.087041 0.330408 0.679182 0.245478
H23   H     H_    0.636849 0.180288 0.527138 0.172132
H24   H     H_    0.176028 0.428427 0.734225 0.244124
H25   H     H_    0.023121 0.549702 0.748281 0.243975
H26   H     H_    0.932549 0.445513 0.701113 0.254580
H27   H     H_    0.668851 0.165339 0.346914 0.252214
H28   H     H_    0.723426 0.181638 0.239207 0.312966
H29   H     H_    0.782944 0.093885 0.305134 0.249938
H30   H     H_    0.897807 0.262088 0.292477 0.279173
H31   H     H_    0.855352 0.236537 0.400786 0.227453
H32   H     H_    0.691049 0.349386 0.372231 0.264683
H33   H     H_    0.776642 0.399354 0.286414 0.259364
H34   H     H_    0.289255 0.174429 0.487781 0.192105
H35   H     H_    0.695786 0.713471 0.676902 0.365282
H36   H     H_    0.163043 0.730712 0.939397 0.275761
H37   H     H_    0.193166 0.699363 0.827039 0.261099
H38   H     H_    0.089994 0.621055 0.884824 0.255693
H39   H     H_    0.264171 0.532967 0.859656 0.221836
H40   H     H_    0.229659 0.558174 0.972245 0.266275
H41   H     H_    0.358435 0.727189 0.964926 0.228491
H42   H     H_    0.399639 0.682098 0.859780 0.201792
H43   H     H_    0.589391 0.277416 0.160279 0.354301
H44   H     H_    0.276374 0.984188 0.482262 0.145079
H45   H     H_    0.710747 0.819214 0.510150 0.200363
H46   H     H_    0.362964 0.825644 0.482178 0.175996
H47   H     H_    0.332361 0.416460 0.934354 0.129446
H48   H     H_    0.217448 0.561986 0.646494 0.163994
N1    N     N_R   0.207800 0.519340 0.515510 -0.173267
N2    N     N_R   0.792190 0.480660 0.484490 -0.163515
O1    O     O_R   0.421690 0.658830 0.504140 -0.635048
O2    O     O_2   0.231276 0.266648 0.036870 -0.235724
O3    O     O_3   0.317423 0.297336 0.184746 -0.486384
O4    O     O_2   0.394441 0.183862 0.927305 -0.235845
O5    O     O_2   0.355511 0.277819 0.803392 -0.329080
O6    O     O_3   0.559061 0.263661 0.838314 -0.545696
O7    O     O_2   0.215891 0.471461 0.289025 -0.248882
O8    O     O_2   0.286414 0.341695 0.375505 -0.257245
O9    O     O_3   0.093122 0.306254 0.327460 -0.613508
O10   O     O_2   0.768750 0.532628 0.711270 -0.343617
O11   O     O_2   0.908217 0.670342 0.675019 -0.339281
O12   O     O_R   0.609320 0.646410 0.494190 -0.562024
O13   O     O_3   0.717595 0.679700 0.620846 -0.550239
O14   O     O_2   0.681981 0.279778 0.011760 -0.259616
O15   O     O_2   0.811773 0.409716 0.079670 -0.237892
O16   O     O_3   0.648463 0.333122 0.171551 -0.599736
O17   O     O_R   0.406150 0.506210 0.627840 -0.655808
O18   O     O_R   0.593770 0.493790 0.617880 -0.522171
O19   O     O_R   0.390680 0.353590 0.505810 -0.572895
O20   O     O_R   0.578310 0.341170 0.495860 -0.662030
O21   O     O_R   0.406230 0.506210 0.382120 -0.529092
O22   O     O_R   0.593850 0.493790 0.372160 -0.655746
O23   O     O_2   0.228971 0.440668 0.107874 -0.265124
S1    S     S_3+6 0.295896 0.347596 0.091490 0.047442
S2    S     S_3+6 0.429888 0.276743 0.877112 0.031590
S3    S     S_3+6 0.188650 0.399912 0.359795 0.058326
S4    S     S_3+6 0.813561 0.600053 0.641523 0.003531
S5    S     S_3+6 0.692305 0.372380 0.075398 0.009064
Zn1   Zn    Zn3+2 0.374720 0.508290 0.506640 1.016575
Zn2   Zn    Zn3+2 0.625280 0.491710 0.493360 1.008403

loop_
_geom_bond_atom_site_label_1
_geom_bond_atom_site_label_2
_ccdc_geom_bond_type
C22   O21   A    
C29   H17   S    
C19   S3    S    
C34   C42   S    
O11   S4    D    
C7    C8    A    
C32   H26   S    
C25   C28   S    
C7    C11   A    
H43   O16   S    
C29   C30   S    
C15   S4    S    
C13   C18   A    
C4    O18   A    
C36   C37   S    
C9    H23   S    
O16   S5    S    
C26   H4    S    
C42   H7    S    
C14   C36   S    
C30   C31   S    
O18   Zn2   S    
O8    S3    D    
C35   H19   S    
C40   H40   S    
C41   H37   S    
C23   C43   S    
C15   C17   A    
O4    S2    D    
C23   C26   S    
C31   H13   S    
C3    C29   S    
O14   S5    D    
O3    S1    S    
C12   S1    S    
C8    C9    A    
C30   H14   S    
O10   S4    D    
C10   C46   A    
C39   H41   S    
C31   H10   S    
O6    S2    S    
C38   H29   S    
C9    C46   A    
O20   Zn2   S    
C13   C14   A    
C2    C6    A    
C39   H42   S    
C12   H1    S    
C16   O20   A    
C14   N2    A    
C32   H25   S    
C4    C45   S    
C21   C32   S    
H9    O6    S    
C4    O17   A    
H18   O9    S    
O1    Zn1   S    
C3    C8    A    
C1    O1    A    
C15   N2    A    
C10   H34   S    
O13   S4    S    
C35   H20   S    
C25   C26   S    
C41   H38   S    
C37   H31   S    
C28   C44   S    
O5    S2    D    
C40   H39   S    
C37   C38   S    
N1    Zn1   S    
C12   C23   S    
C35   H21   S    
C23   C34   S    
C17   C18   A    
N2    Zn2   S    
C5    H45   S    
C33   H24   S    
C40   C41   S    
C37   H30   S    
H35   O13   S    
C22   C27   S    
H8    O3    S    
C2    C5    A    
C16   C46   S    
C16   O19   A    
C39   C40   S    
C19   N1    A    
C44   C45   T    
C38   H28   S    
C22   O22   A    
C20   H48   S    
C29   H16   S    
C34   S5    S    
O15   S5    D    
C20   N1    A    
C24   C28   S    
C3    C5    A    
C36   H33   S    
C13   H2    S    
O23   S1    D    
O2    S1    D    
C6    C7    A    
C12   C24   S    
O19   Zn1   S    
C32   C33   S    
C31   H11   S    
C36   H32   S    
C26   H5    S    
C25   C39   S    
C11   H44   S    
C6    H46   S    
C41   H36   S    
C1    C2    S    
C28   C42   S    
C24   S2    S    
C33   C35   S    
O9    S3    S    
C25   H3    S    
C10   C11   A    
C1    O12   A    
C27   C43   T    
O17   Zn1   S    
C20   C21   A    
C30   H15   S    
C34   H12   S    
C18   C19   A    
O22   Zn2   S    
O12   Zn2   S    
C24   H47   S    
O7    S3    D    
O21   Zn1   S    
C33   H22   S    
C42   H6    S    
C38   H27   S    
C17   C21   A    
