data_mof_unit_60312.cif
_audit_creation_date              2012-10-26T20:08:30-0400
_audit_creation_method            fapswitch 2.2
_symmetry_space_group_name_H-M    P1
_symmetry_Int_Tables_number       1
_space_group_crystal_system       triclinic
_cell_length_a                    16.00784
_cell_length_b                    14.43247
_cell_length_c                    13.145632
_cell_angle_alpha                 90.0
_cell_angle_beta                  90.008155
_cell_angle_gamma                 90.00009
_cell_volume                      3037.07043646

loop_
_atom_site_label
_atom_site_type_symbol
_atom_type_description
_atom_site_fract_x
_atom_site_fract_y
_atom_site_fract_z
_atom_type_partial_charge
C1    C     C_R   0.500000 0.328703 0.500000 0.553306
C2    C     C_1   0.500000 0.500026 0.949319 -0.003606
C3    C     C_R   0.338222 0.499958 0.499991 0.568870
C4    C     C_R   0.661778 0.499958 0.500009 0.568826
C5    C     C_R   0.500000 0.671299 0.500000 0.569164
C6    C     C_3   0.049440 0.447368 0.598102 0.438761
C7    C     C_3   0.049991 0.449678 0.400205 0.414453
C8    C     C_3   0.950008 0.448219 0.598889 0.414473
C9    C     C_3   0.950560 0.448815 0.400976 0.438749
C10   C     C_1   0.750554 0.500104 0.500040 0.040190
C11   C     C_1   0.249446 0.500105 0.499960 0.040191
C12   C     C_1   0.500000 0.142310 0.500000 -0.003765
C13   C     C_3   0.082681 0.500617 0.499844 -0.021022
C14   C     C_3   0.917319 0.500614 0.500164 -0.021032
C15   C     C_3   0.950177 0.604966 0.500740 0.412837
C16   C     C_3   0.049824 0.604963 0.501115 0.412841
C17   C     C_1   0.825414 0.500296 0.500093 0.078058
C18   C     C_1   0.174586 0.500297 0.499910 0.078063
C19   C     C_1   0.500000 0.227123 0.500000 -0.014204
C20   C     C_1   0.500000 0.042405 0.500000 0.042654
C21   C     C_1   0.500000 0.957595 0.500000 0.046702
C22   C     C_1   0.500000 0.857690 0.500000 0.008888
C23   C     C_1   0.500000 0.772878 0.500000 0.003286
C24   C     C_1   0.500000 0.500024 0.173628 0.163891
C25   C     C_1   0.500000 0.500024 0.826372 0.164023
C26   C     C_1   0.500000 0.500026 0.050681 -0.003653
Cl1   Cl    Cl    0.093019 0.668684 0.607357 -0.364734
Cl2   Cl    Cl    0.093601 0.671074 0.397004 -0.330278
Cl3   Cl    Cl    0.906400 0.669540 0.606008 -0.330210
Cl4   Cl    Cl    0.906981 0.670239 0.395639 -0.364813
Cu1   Cu    Cu3+1 0.500000 0.499990 0.592680 1.047280
Cu2   Cu    Cu3+1 0.500000 0.499990 0.407320 1.047033
H1    H     H_    0.857970 0.359744 0.619808 0.355328
H2    H     H_    0.949395 0.314057 0.436968 0.391162
H3    H     H_    0.050605 0.313156 0.559731 0.391181
H4    H     H_    0.142029 0.361522 0.377717 0.355364
H5    H     H_    0.067462 0.457531 0.252838 0.392188
H6    H     H_    0.138089 0.479643 0.695441 0.366942
H7    H     H_    0.861910 0.482516 0.304222 0.366994
H8    H     H_    0.932533 0.453905 0.746375 0.392118
N1    N     N_1   0.500000 0.500020 0.268070 -0.156477
N2    N     N_1   0.500000 0.500020 0.731930 -0.156429
O1    O     O_R   0.500000 0.376050 0.578280 -0.476313
O2    O     O_3   0.917280 0.357828 0.394713 -0.634957
O3    O     O_3   0.082719 0.356301 0.602754 -0.634939
O4    O     O_3   0.081777 0.358373 0.395274 -0.707071
O5    O     O_3   0.078971 0.497136 0.313068 -0.580289
O6    O     O_3   0.077589 0.492720 0.686785 -0.568530
O7    O     O_3   0.922411 0.495462 0.313107 -0.568407
O8    O     O_3   0.921029 0.494391 0.686854 -0.580375
O9    O     O_R   0.500000 0.376050 0.421720 -0.476274
O10   O     O_R   0.379430 0.500000 0.578300 -0.482214
O11   O     O_R   0.379430 0.500000 0.421700 -0.478556
O12   O     O_R   0.620570 0.500000 0.578300 -0.478352
O13   O     O_R   0.620570 0.500000 0.421700 -0.482341
O14   O     O_R   0.500000 0.623940 0.578240 -0.468948
O15   O     O_R   0.500000 0.623940 0.421760 -0.469010
O16   O     O_3   0.918223 0.356853 0.602204 -0.707020

loop_
_geom_bond_atom_site_label_1
_geom_bond_atom_site_label_2
_ccdc_geom_bond_type
C25   N2    T    
C16   Cl2   S    
C6    C8    S    
C9    C14   S    
C10   C17   T    
C11   C18   T    
H4    O4    S    
H1    O16   S    
C6    O3    S    
Cu1   O14   S    
H5    O5    S    
C1    O9    A    
Cu1   O1    S    
C5    O14   A    
H6    O6    S    
Cu1   Cu2   S    
C5    C23   S    
C5    O15   A    
Cu1   O10   S    
C3    O10   A    
C4    O12   A    
C12   C20   S    
C16   Cl1   S    
C13   C16   S    
H2    O2    S    
C2    C26   T    
C21   C22   S    
C6    C13   S    
C24   N1    T    
C3    O11   A    
C14   C17   S    
Cu1   N2    S    
C6    O6    S    
Cu2   O15   S    
H8    O8    S    
C13   C18   S    
C12   C19   T    
H7    O7    S    
C24   C26   S    
C15   Cl3   S    
C2    C25   S    
Cu1   O12   S    
C1    C19   S    
C3    C11   S    
Cu2   N1    S    
C4    C10   S    
C15   C16   S    
H3    O3    S    
C7    O4    S    
C8    O8    S    
Cu2   O11   S    
C7    C13   S    
C9    O7    S    
C20   C21   T    
C15   Cl4   S    
Cu2   O9    S    
C4    O13   A    
C7    C9    S    
C14   C15   S    
C9    O2    S    
C8    C14   S    
Cu2   O13   S    
C8    O16   S    
C22   C23   T    
C1    O1    A    
C7    O5    S    
