data_mof_unit_48644.cif
_audit_creation_date              2013-03-05T16:03:12-0500
_audit_creation_method            fapswitch 2.2
_symmetry_space_group_name_H-M    P1
_symmetry_Int_Tables_number       1
_space_group_crystal_system       triclinic
_cell_length_a                    8.507509
_cell_length_b                    14.729611
_cell_length_c                    18.823122
_cell_angle_alpha                 95.402828
_cell_angle_beta                  93.515695
_cell_angle_gamma                 90.976332
_cell_volume                      2343.25223667

loop_
_atom_site_label
_atom_site_type_symbol
_atom_site_description
_atom_site_fract_x
_atom_site_fract_y
_atom_site_fract_z
_atom_type_partial_charge
P1    P     P_3+3 0.053470 0.419720 0.342720 0.484614
O1    O     O_2   0.878750 0.447310 0.330740 -0.370685
O2    O     O_3   0.131030 0.448880 0.418060 -0.395004
O3    O     O_3   0.627390 0.618170 0.367170 -0.303206
O4    O     O_2   0.744240 0.542095 0.249229 -0.389865
O5    O     O_3   0.062492 0.299690 0.330256 -0.560551
O6    O     O_3   0.619342 0.691323 0.224098 -0.596086
C1    C     C_3   0.492210 0.809464 0.163569 0.039830
H1    H     H_    0.608622 0.841924 0.155892 0.105121
P2    P     P_3+3 0.625250 0.715650 0.546950 0.518299
P3    P     P_3+3 0.062181 0.784547 0.402150 0.469697
O7    O     O_2   0.796630 0.729270 0.525320 -0.346299
O8    O     O_3   0.039210 0.666640 0.400620 -0.409190
O9    O     O_2   0.921548 0.829614 0.438453 -0.385411
O10   O     O_3   0.654123 0.745284 0.640917 -0.553335
O11   O     O_3   0.041079 0.814854 0.314376 -0.554782
C2    C     C_3   0.966077 0.742969 0.270486 0.558401
H2    H     H_    0.854213 0.725342 0.292542 0.185399
H3    H     H_    0.038470 0.680951 0.267329 0.084239
C3    C     C_3   0.936312 0.772600 0.195590 -1.031501
H4    H     H_    0.877498 0.716342 0.159637 0.279626
H5    H     H_    0.861184 0.833352 0.197875 0.241942
C4    C     C_3   0.171502 0.766334 0.648075 0.974855
H6    H     H_    0.126191 0.749777 0.591606 -0.036504
C5    C     C_3   0.087600 0.852129 0.682952 -0.097004
H7    H     H_    0.112443 0.854497 0.741981 0.150588
H8    H     H_    0.133947 0.916027 0.667625 0.125284
Ba1   Ba    Ba6+2 0.841340 0.543980 0.464170 1.617336
C6    C     C_3   0.916752 0.254199 0.333968 0.333901
H9    H     H_    0.816219 0.299572 0.340166 0.067352
H10   H     H_    0.924783 0.214759 0.381290 -0.076204
C7    C     C_3   0.882966 0.186486 0.267461 0.946918
H11   H     H_    0.762288 0.157858 0.272402 -0.125424
C8    C     C_3   0.726545 0.680543 0.682044 0.245511
H12   H     H_    0.824114 0.647849 0.653998 -0.011082
C9    C     C_3   0.789879 0.728322 0.756238 0.146329
H13   H     H_    0.908843 0.755470 0.752764 0.151464
H14   H     H_    0.709838 0.785308 0.771052 0.127277
P4    P     P_3+3 0.136230 0.580350 0.657290 0.493053
O12   O     O_2   0.310950 0.552720 0.669300 -0.337962
O13   O     O_3   0.058670 0.551200 0.581940 -0.441630
O14   O     O_3   0.562310 0.381900 0.632830 -0.420076
O15   O     O_3   0.133031 0.696668 0.690427 -0.622018
P5    P     P_3+3 0.125332 0.213153 0.594410 0.531716
O16   O     O_3   0.636050 0.386930 0.468580 -0.332183
O17   O     O_3   0.150490 0.333430 0.599380 -0.317913
O18   O     O_2   0.271266 0.177865 0.557161 -0.368829
O19   O     O_3   0.172715 0.176825 0.679538 -0.596838
Ba2   Ba    Ba6+2 0.348470 0.456100 0.535830 1.624444
P6    P     P_3+3 0.598241 0.594707 0.272534 0.502378
C10   C     C_3   0.509916 0.762557 0.234502 0.180647
O20   O     O_3   0.553640 0.613150 0.531430 -0.410940
C11   C     C_3   0.436955 0.270966 0.312650 0.992697
H15   H     H_    0.379251 0.329053 0.341519 0.043668
C12   C     C_3   0.507533 0.305327 0.246128 -0.846604
H16   H     H_    0.591044 0.255038 0.224280 0.239622
H17   H     H_    0.576298 0.369375 0.261798 0.204624
P7    P     P_3+3 0.565778 0.271122 0.447493 0.503664
O21   O     O_2   0.393070 0.270760 0.474720 -0.340188
O22   O     O_3   0.561570 0.238379 0.354914 -0.654929
H18   H     H_    0.048595 0.791430 0.173089 0.269470
C13   C     C_3   0.047785 0.192282 0.725115 0.767361
H19   H     H_    0.936531 0.164198 0.696854 -0.001070
C14   C     C_3   0.071634 0.143093 0.795255 0.133072
H20   H     H_    0.146550 0.186012 0.836516 0.062590
P8    P     P_3+3 0.598806 0.387727 0.726407 0.426877
C15   C     C_3   0.577609 0.214897 0.692543 0.489436
H21   H     H_    0.686945 0.221508 0.663752 0.076073
O23   O     O_2   0.464440 0.442609 0.760254 -0.400744
O24   O     O_3   0.579144 0.277771 0.753665 -0.554914
H22   H     H_    0.473788 0.225814 0.656181 0.174434
H23   H     H_    0.674875 0.099954 0.742583 0.285658
C16   C     C_3   0.564517 0.118263 0.713820 -1.041707
H24   H     H_    0.542656 0.069621 0.665270 0.234030
H25   H     H_    0.466366 0.112733 0.749293 0.273242
N1    N     N_R   0.184952 0.540525 0.954136 -0.056349
N2    N     N_R   0.234458 0.541985 0.023022 -0.061567
C17   C     C_2   0.300297 0.516850 0.295524 -0.431503
C18   C     C_3   0.424488 0.517500 0.241679 0.190282
C19   C     C_2   0.355310 0.530680 0.167728 -0.248559
C20   C     C_2   0.200792 0.511181 0.149634 0.012114
C21   C     C_2   0.098860 0.483531 0.208005 -0.254588
C22   C     C_1   0.158876 0.479745 0.275470 0.200093
N3    N     N_R   0.991437 0.482917 0.049757 -0.063577
N4    N     N_R   0.941991 0.481169 0.980718 -0.070102
C23   C     C_R   0.037472 0.509686 0.931067 0.097511
C24   C     C_R   0.139544 0.513057 0.072659 0.162520
C25   C     C_R   0.076003 0.537912 0.800323 -0.182968
C26   C     C_R   0.030028 0.522478 0.726186 0.228677
C27   C     C_R   0.792305 0.443105 0.756728 0.291547
C28   C     C_R   0.839483 0.457520 0.829570 -0.136569
C29   C     C_R   0.983828 0.502650 0.852804 0.028945
C30   C     C_R   0.890555 0.472445 0.705837 -0.453634
H26   H     H_    0.435482 0.547156 0.127895 0.173967
H27   H     H_    0.978422 0.460605 0.193546 0.195875
H28   H     H_    0.183607 0.576500 0.816771 0.178263
H29   H     H_    0.763847 0.432204 0.867857 0.133068
C31   C     C_R   0.697192 0.935157 0.526452 -0.184415
C32   C     C_R   0.507622 0.801913 0.501251 0.332301
C33   C     C_R   0.353787 0.773047 0.478756 -0.395993
C34   C     C_R   0.255500 0.827974 0.441117 0.313847
C35   C     C_R   0.314640 0.909902 0.422086 -0.273446
C36   C     C_R   0.452579 0.951934 0.456906 -0.065282
C37   C     C_R   0.554087 0.896123 0.495754 -0.027655
H30   H     H_    0.310522 0.706919 0.490147 0.135448
C38   C     C_R   0.636288 0.086021 0.487243 -0.135677
C39   C     C_R   0.745268 0.026991 0.519791 -0.051446
C40   C     C_R   0.682748 0.181030 0.487981 0.230964
C41   C     C_R   0.834036 0.210541 0.513981 -0.427207
C42   C     C_R   0.940447 0.155315 0.547007 0.207805
C43   C     C_R   0.901429 0.060531 0.544903 -0.165405
C44   C     C_R   0.490385 0.047049 0.453188 0.575439
H31   H     H_    0.250014 0.938353 0.379319 0.155868
H32   H     H_    0.874118 0.277732 0.504005 0.195179
H33   H     H_    0.769767 0.893300 0.557524 0.204018
C45   C     C_2   0.576184 0.833028 0.293000 0.567795
H34   H     H_    0.570951 0.905461 0.286339 -0.027469
O25   O     O_2   0.631827 0.809726 0.349503 -0.540244
O26   O     O_3   0.924892 0.852086 0.664413 -0.617427
C46   C     C_3   0.858701 0.927414 0.703776 -0.223827
H35   H     H_    0.730190 0.925377 0.693395 0.162874
H36   H     H_    0.901964 0.993181 0.687260 0.137594
H37   H     H_    0.881402 0.925732 0.762476 0.174962
O27   O     O_3   0.876089 0.236049 0.205546 -0.668446
C47   C     C_3   0.977133 0.200582 0.152119 -0.075911
H38   H     H_    0.103311 0.203232 0.173219 0.165704
H39   H     H_    0.968012 0.243977 0.106902 0.135212
H40   H     H_    0.940340 0.128970 0.130494 0.128765
O28   O     O_3   0.999157 0.117901 0.266645 -0.642373
C48   C     C_3   0.928163 0.029508 0.260279 -0.392499
H41   H     H_    0.844743 0.018488 0.211994 0.147135
H42   H     H_    0.866851 0.017781 0.309491 0.168060
H43   H     H_    0.021921 0.978403 0.254284 0.234474
C49   C     C_2   0.605768 0.612051 0.694953 0.662770
H44   H     H_    0.583797 0.554277 0.655907 0.007497
O29   O     O_2   0.529654 0.621845 0.748175 -0.495855
O30   O     O_3   0.372339 0.875385 0.168163 -0.653818
C50   C     C_3   0.397024 0.943006 0.121330 -0.235817
H45   H     H_    0.504327 0.985117 0.139489 0.127132
H46   H     H_    0.294560 0.988600 0.121764 0.169425
H47   H     H_    0.405678 0.912869 0.065289 0.169881
O31   O     O_3   0.799950 0.667656 0.810277 -0.619803
C51   C     C_3   0.836812 0.717255 0.877281 -0.093173
H48   H     H_    0.744557 0.767486 0.890916 0.149416
H49   H     H_    0.954368 0.751892 0.878693 0.118855
H50   H     H_    0.841190 0.669074 0.919151 0.178066
C52   C     C_2   0.350482 0.729458 0.252482 0.522525
H51   H     H_    0.260640 0.709860 0.210429 -0.024796
O32   O     O_2   0.325456 0.717936 0.313922 -0.643807
C53   C     C_2   0.452818 0.740321 0.100144 0.602875
H52   H     H_    0.336966 0.707799 0.092711 -0.009472
O33   O     O_2   0.549900 0.721688 0.056189 -0.595097
O34   O     O_3   0.321215 0.200621 0.293314 -0.603312
C54   C     C_3   0.381632 0.123601 0.253643 -0.076080
H53   H     H_    0.496488 0.101590 0.276639 0.152732
H54   H     H_    0.391229 0.136366 0.196947 0.084224
H55   H     H_    0.297795 0.065275 0.253802 0.189134
C55   C     C_2   0.386074 0.318002 0.187085 0.594565
H56   H     H_    0.264170 0.327507 0.198638 0.027685
O35   O     O_2   0.424895 0.320228 0.125793 -0.561176
O36   O     O_3   0.030552 0.286711 0.743000 -0.669799
C56   C     C_3   0.175281 0.329148 0.770318 -0.077030
H57   H     H_    0.278270 0.283865 0.773279 0.149883
H58   H     H_    0.162465 0.360317 0.825370 0.111883
H59   H     H_    0.204616 0.381720 0.735194 0.216571
O37   O     O_3   0.923248 0.121588 0.820613 -0.625327
C57   C     C_3   0.876316 0.191289 0.871087 -0.098347
H60   H     H_    0.868798 0.257927 0.848127 0.160585
H61   H     H_    0.957131 0.196910 0.920126 0.125356
H62   H     H_    0.757001 0.173549 0.886940 0.169938
C58   C     C_2   0.161030 0.056432 0.784869 0.445264
H63   H     H_    0.218941 0.038651 0.736212 0.036899
O38   O     O_2   0.176005 0.006980 0.833270 -0.568068
C59   C     C_2   0.351613 0.537108 0.371050 0.756007
H64   H     H_    0.297347 0.590067 0.403875 0.032794
O39   O     O_2   0.450924 0.490138 0.397791 -0.548092
C60   C     C_2   0.847186 0.447713 0.630715 0.710255
H65   H     H_    0.798114 0.496877 0.597006 0.003936
O40   O     O_2   0.855931 0.368878 0.607213 -0.600319
C61   C     C_2   0.028259 0.994860 0.558456 0.409612
H66   H     H_    0.009950 0.922566 0.546196 0.093916
O41   O     O_2   0.159805 0.019983 0.581634 -0.612259
O42   O     O_3   0.403349 0.098660 0.406960 -0.621374
C62   C     C_3   0.238578 0.100311 0.415600 0.025422
H67   H     H_    0.199760 0.064570 0.460461 0.112717
H68   H     H_    0.174532 0.071030 0.365865 0.143171
H69   H     H_    0.197066 0.170976 0.421899 0.192293
O43   O     O_3   0.339427 0.776817 0.652439 -0.613990
C63   C     C_3   0.392778 0.868054 0.648594 -0.362482
H70   H     H_    0.384775 0.909305 0.700707 0.171356
H71   H     H_    0.333162 0.898199 0.602912 0.156327
H72   H     H_    0.516462 0.872427 0.638042 0.204100

loop_
_geom_bond_atom_site_label_1
_geom_bond_atom_site_label_2
_geom_bond_distance
_ccdc_geom_bond_type
C51   H50   1.108521 S    
C12   H16   1.104075 S    
C25   H28   1.082281 S    
C11   O34   1.423342 S    
C34   C35   1.385849 A    
P3    O8    1.741706 S    
C16   H24   1.111018 S    
C7    O27   1.431062 S    
C48   H42   1.116403 S    
C52   H51   1.081383 S    
C36   C44   1.441200 A    
N3    C24   1.359736 A    
C58   H63   1.079232 S    
P2    O20   1.612362 S    
P6    C18   1.878493 S    
C20   C21   1.521232 S    
O2    Ba2   2.791684 S    
P4    O13   1.546696 S    
C38   C44   1.445683 A    
N4    C23   1.365695 A    
C40   C41   1.395947 A    
C58   O38   1.220942 D    
O17   Ba2   2.843073 S    
C33   H30   1.080275 S    
C6    H9    1.099462 S    
O7    Ba1   2.901008 S    
C9    H13   1.089838 S    
C52   O32   1.215529 D    
C8    H12   1.104124 S    
C6    C7    1.534786 S    
P2    O10   1.782416 S    
C4    O43   1.430826 S    
C19   C20   1.356602 D    
P3    O9    1.543045 D    
P8    O23   1.545946 D    
C38   C39   1.431455 A    
C8    C49   1.474476 S    
P7    O22   1.761838 S    
C51   H48   1.112668 S    
Ba1   O13   2.791111 S    
C2    C3    1.522477 S    
C4    O15   1.403646 S    
C62   H67   1.100576 S    
P1    O1    1.556348 D    
Ba1   Ba2   4.681299 S    
C3    H18   1.109742 S    
C63   H71   1.104488 S    
C9    O31   1.415484 S    
C42   C43   1.425889 A    
C13   C14   1.568921 S    
C2    H3    1.109396 S    
C59   H64   1.076974 S    
C17   C22   1.331087 D    
C12   C55   1.497512 S    
C25   C29   1.427699 A    
P5    O17   1.773886 S    
C1    H1    1.115688 S    
C60   O40   1.208261 D    
P1    Ba1   3.415210 S    
C14   O37   1.417943 S    
C4    H6    1.111582 S    
O8    Ba1   2.842410 S    
C15   C16   1.518631 S    
O16   Ba2   2.974584 S    
C44   O42   1.395745 S    
O10   C8    1.410256 S    
P7    C40   1.863998 S    
C28   C29   1.411638 A    
C46   H37   1.112618 S    
C32   C37   1.451194 A    
C54   H54   1.108535 S    
C55   O35   1.222571 D    
C16   H25   1.107274 S    
P2    C32   1.870683 S    
C5    O26   1.406615 S    
O13   Ba2   2.990864 S    
C7    O28   1.425091 S    
O3    Ba1   2.806579 S    
C11   O22   1.404648 S    
C61   O41   1.214629 D    
O36   C56   1.416613 S    
C57   H62   1.109271 S    
C56   H58   1.105652 S    
C11   C12   1.544609 S    
Ba1   O16   2.885259 S    
O16   P7    1.798167 S    
C15   H21   1.112245 S    
O14   P8    1.763482 S    
N3    N4    1.338907 A    
C54   H55   1.107549 S    
C57   H61   1.112397 S    
C43   C61   1.487714 S    
C57   H60   1.110385 S    
C30   C60   1.450082 S    
C17   C18   1.508799 S    
O11   C2    1.399433 S    
P4    O15   1.768531 S    
C5    H7    1.115400 S    
C11   H15   1.108063 S    
C56   H57   1.112030 S    
C28   H29   1.082493 S    
C31   C39   1.425535 A    
P1    O5    1.765064 S    
O3    P6    1.783562 S    
O43   C63   1.420849 S    
P1    O2    1.546563 S    
C55   H56   1.081372 S    
C63   H72   1.084691 S    
C1    C53   1.511672 S    
O42   C62   1.421421 S    
C13   H19   1.110597 S    
C47   H40   1.126313 S    
C56   H59   1.099597 S    
P3    O11   1.751141 S    
O19   C13   1.414481 S    
C32   C33   1.397169 A    
C10   C52   1.502284 S    
Ba2   O20   2.884628 S    
C3    H4    1.110739 S    
C2    H2    1.098098 S    
P3    C34   1.838454 S    
N1    N2    1.336631 A    
C1    C10   1.560573 S    
C54   H53   1.110244 S    
C20   C24   1.512302 S    
P2    O7    1.552433 D    
C41   H32   1.078147 S    
C45   O25   1.218848 D    
P4    Ba2   3.415801 S    
C3    H5    1.107588 S    
C21   C22   1.345829 D    
C12   H17   1.107648 S    
O37   C57   1.411712 S    
C53   O33   1.220973 D    
O4    P6    1.539935 D    
C48   H43   1.109559 S    
P1    C22   1.873823 S    
C19   H26   1.085177 S    
N1    C23   1.358593 A    
P4    O12   1.556581 D    
C46   H35   1.098179 S    
C46   H36   1.108662 S    
C27   C30   1.402477 A    
C47   H39   1.111311 S    
O28   C48   1.417501 S    
P2    Ba1   3.459671 S    
C63   H70   1.110596 S    
C51   H49   1.112663 S    
O2    Ba1   2.990069 S    
C21   H27   1.083816 S    
O31   C51   1.411716 S    
C39   C43   1.445394 A    
O6    P6    1.773238 S    
H23   C16   1.105042 S    
C50   H47   1.112516 S    
C49   O29   1.224443 D    
O26   C46   1.419443 S    
P5    O18   1.537295 D    
C49   H44   1.076680 S    
C50   H46   1.109394 S    
C5    H8    1.084896 S    
O30   C50   1.412174 S    
P8    O24   1.752758 S    
C15   H22   1.107207 S    
C10   C45   1.515402 S    
Ba2   O21   2.901278 S    
C62   H69   1.103006 S    
C15   O24   1.406628 S    
C7    H11   1.115730 S    
C14   C58   1.500126 S    
C9    H14   1.115662 S    
C48   H41   1.115910 S    
P7    O21   1.585617 D    
O6    C10   1.422283 S    
C6    H10   1.107655 S    
C35   H31   1.069135 S    
C23   C29   1.508773 S    
C41   C42   1.385282 A    
C14   H20   1.114515 S    
Ba1   O20   2.975539 S    
C27   C28   1.400325 A    
C47   H38   1.120250 S    
C38   C40   1.446268 A    
C31   C37   1.404983 A    
C33   C34   1.383486 A    
P8    C27   1.858062 S    
C62   H68   1.101220 S    
C45   H34   1.087261 S    
C31   H33   1.067707 S    
C8    C9    1.563880 S    
C4    C5    1.571456 S    
C26   C30   1.399671 A    
C35   C36   1.412271 A    
C59   O39   1.216222 D    
C50   H45   1.112395 S    
O14   Ba2   2.806070 S    
C18   C19   1.508642 S    
C13   O36   1.412183 S    
P5    O19   1.762392 S    
O5    C6    1.407943 S    
C25   C26   1.422083 A    
N2    C24   1.364667 A    
C60   H65   1.079648 S    
C36   C37   1.419940 A    
C17   C59   1.462960 S    
C53   H52   1.083912 S    
C1    O30   1.420928 S    
O1    Ba1   2.806568 S    
O34   C54   1.419957 S    
P4    C26   1.884247 S    
C61   H66   1.074770 S    
O12   Ba2   2.807061 S    
O27   C47   1.430267 S    
P5    C42   1.906575 S    
