data_mof_unit_42536.cif
_audit_creation_date              2012-10-26T21:05:36-0400
_audit_creation_method            fapswitch 2.2
_symmetry_space_group_name_H-M    P1
_symmetry_Int_Tables_number       1
_space_group_crystal_system       triclinic
_cell_length_a                    13.110301
_cell_length_b                    9.091306
_cell_length_c                    7.828715
_cell_angle_alpha                 90.000452
_cell_angle_beta                  94.58422
_cell_angle_gamma                 90.000104
_cell_volume                      930.11758528

loop_
_atom_site_label
_atom_site_type_symbol
_atom_type_description
_atom_site_fract_x
_atom_site_fract_y
_atom_site_fract_z
_atom_type_partial_charge
C1    C     C_R   0.500000 0.220216 0.500000 0.554201
C2    C     C_R   0.867186 0.520317 0.716832 0.009136
C3    C     C_R   0.133571 0.509330 0.594290 -0.150697
C4    C     C_R   0.866430 0.509326 0.405715 -0.150695
C5    C     C_R   0.026983 0.509920 0.580967 0.027630
C6    C     C_R   0.973018 0.509914 0.419038 0.027630
C7    C     C_1   0.500000 0.065425 0.499999 -0.055431
C8    C     C_1   0.500000 0.934587 0.500000 -0.054257
C9    C     C_3   0.817350 0.539381 0.883613 -0.250778
C10   C     C_3   0.787437 0.390231 0.955755 -0.398708
C11   C     C_3   0.182650 0.539420 0.116399 -0.250780
C12   C     C_R   0.500000 0.779793 0.500000 0.551233
C13   C     C_3   0.212580 0.390291 0.044216 -0.398696
C14   C     C_R   0.300272 0.504730 0.468758 0.537962
C15   C     C_R   0.699728 0.504728 0.531243 0.537958
C16   C     C_R   0.812192 0.511878 0.552615 0.007376
C17   C     C_R   0.187808 0.511880 0.447389 0.007374
C18   C     C_R   0.026333 0.512167 0.272400 -0.120192
C19   C     C_R   0.973668 0.512181 0.727606 -0.120192
C20   C     C_R   0.132814 0.520317 0.283174 0.009133
Cu1   Cu    Cu3+1 0.500010 0.500000 0.669080 0.985849
Cu2   Cu    Cu3+1 0.499990 0.500000 0.330920 0.985854
H1    H     H_    0.825708 0.509664 0.280485 0.122592
H2    H     H_    0.248239 0.317586 0.146117 0.179605
H3    H     H_    0.143723 0.333772 0.984069 0.127739
H4    H     H_    0.268687 0.406120 0.947045 0.159410
H5    H     H_    0.130580 0.598138 0.021862 0.106171
H6    H     H_    0.247976 0.616911 0.129354 0.178848
H7    H     H_    0.174294 0.509670 0.719519 0.122595
H8    H     H_    0.985473 0.507772 0.148469 0.098254
H9    H     H_    0.014530 0.507796 0.851538 0.098248
H10   H     H_    0.751741 0.317567 0.853839 0.179618
H11   H     H_    0.856313 0.333688 0.015814 0.127765
H12   H     H_    0.731360 0.406027 0.052989 0.159381
H13   H     H_    0.869417 0.598092 0.978160 0.106165
H14   H     H_    0.752018 0.616861 0.870689 0.178860
N1    N     N_1   0.499980 0.500000 0.076820 -0.098769
N2    N     N_1   0.500020 0.500000 0.923180 -0.098773
O1    O     O_R   0.500000 0.288400 0.642760 -0.495341
O2    O     O_R   0.500000 0.711600 0.357240 -0.496373
O3    O     O_R   0.500000 0.288400 0.357240 -0.495339
O4    O     O_R   0.500000 0.711600 0.642760 -0.496372
O5    O     O_R   0.349000 0.500000 0.619590 -0.513354
O6    O     O_R   0.651000 0.500000 0.380410 -0.513348
O7    O     O_R   0.348990 0.500000 0.334020 -0.514241
O8    O     O_R   0.651010 0.500000 0.665980 -0.514248

loop_
_geom_bond_atom_site_label_1
_geom_bond_atom_site_label_2
_ccdc_geom_bond_type
C4    C16   A    
C9    H14   S    
C12   O2    A    
N1    N2    T    
C5    C19   A    
C14   O7    A    
C2    C16   A    
C9    C10   S    
Cu1   O1    S    
C11   H5    S    
C8    C12   S    
Cu2   O2    S    
Cu2   O7    S    
Cu2   N1    S    
C19   H9    S    
C7    C8    T    
C10   H12   S    
Cu1   O5    S    
Cu1   Cu2   S    
C11   C13   S    
C14   C17   S    
C13   H3    S    
C11   H6    S    
C18   H8    S    
C1    O3    A    
C15   O6    A    
C3    C17   A    
C10   H11   S    
C18   C20   A    
C5    C6    A    
C6    C18   A    
C13   H4    S    
Cu2   O3    S    
C1    O1    A    
Cu1   O4    S    
C10   H10   S    
C17   C20   A    
C4    C6    A    
Cu1   O8    S    
C9    H13   S    
C4    H1    S    
C3    H7    S    
C12   O4    A    
C15   O8    A    
C2    C19   A    
C1    C7    S    
C2    C9    S    
C11   C20   S    
Cu2   O6    S    
Cu1   N2    S    
C15   C16   S    
C13   H2    S    
C14   O5    A    
C3    C5    A    
