data_mof_unit_27181.cif
_audit_creation_date              2012-12-11T17:39:17-0500
_audit_creation_method            fapswitch 2.2
_symmetry_space_group_name_H-M    P1
_symmetry_Int_Tables_number       1
_space_group_crystal_system       triclinic
_cell_length_a                    24.891606
_cell_length_b                    7.330004
_cell_length_c                    22.61151
_cell_angle_alpha                 90.181585
_cell_angle_beta                  96.726139
_cell_angle_gamma                 89.924823
_cell_volume                      4097.17840684

loop_
_atom_site_label
_atom_site_type_symbol
_atom_type_description
_atom_site_fract_x
_atom_site_fract_y
_atom_site_fract_z
_atom_type_partial_charge
O1    O     O_R   0.801910 0.607900 0.699140 -0.502722
O2    O     O_R   0.198090 0.392100 0.300860 -0.530154
O3    O     O_R   0.698090 0.107900 0.800860 -0.504195
O4    O     O_R   0.301910 0.892100 0.199140 -0.528840
O5    O     O_R   0.692320 0.276320 0.686350 -0.529913
O6    O     O_R   0.307680 0.723680 0.313650 -0.531873
O7    O     O_R   0.807680 0.776320 0.813650 -0.532827
O8    O     O_R   0.192320 0.223680 0.186350 -0.531298
C1    C     C_R   0.674076 0.445498 0.671567 0.709125
C2    C     C_R   0.325888 0.554424 0.328491 0.699230
C3    C     C_R   0.825865 0.945726 0.828497 0.691928
C4    C     C_R   0.174103 0.054171 0.171553 0.698210
O9    O     O_R   0.801140 0.278070 0.692060 -0.546883
O10   O     O_R   0.198860 0.721930 0.307940 -0.540132
O11   O     O_R   0.698860 0.778070 0.807940 -0.544234
O12   O     O_R   0.301140 0.221930 0.192060 -0.540224
O13   O     O_R   0.807690 0.109570 0.806600 -0.533125
O14   O     O_R   0.192310 0.890430 0.193400 -0.532374
O15   O     O_R   0.692310 0.609570 0.693400 -0.532046
O16   O     O_R   0.307690 0.390430 0.306600 -0.529694
C5    C     C_R   0.818671 0.448406 0.679010 0.695254
C6    C     C_R   0.182185 0.552068 0.321755 0.697291
C7    C     C_R   0.681360 0.947866 0.820703 0.705628
C8    C     C_R   0.317542 0.050889 0.177804 0.693948
O17   O     O_3   0.752020 0.441970 0.787570 -0.370486
O18   O     O_3   0.247980 0.558030 0.212430 -0.376092
O19   O     O_3   0.747980 0.941970 0.712430 -0.369893
O20   O     O_3   0.252020 0.058030 0.287570 -0.374049
V1    V     V_3+5 0.749620 0.166420 0.743030 1.421366
V2    V     V_3+5 0.250380 0.833580 0.256970 1.373168
V3    V     V_3+5 0.750380 0.666420 0.756970 1.423384
V4    V     V_3+5 0.249620 0.333580 0.243030 1.372528
C9    C     C_R   0.421628 0.165763 0.071399 -0.184055
C10   C     C_R   0.588396 0.815952 0.935456 -0.204402
C11   C     C_R   0.073056 0.690691 0.417732 -0.200023
C12   C     C_R   0.925814 0.335542 0.575434 -0.185939
H1    H     H_    0.438478 0.283982 0.052695 0.143722
H2    H     H_    0.580569 0.696962 0.960038 0.150835
H3    H     H_    0.052711 0.812698 0.428071 0.151783
H4    H     H_    0.946494 0.218102 0.560612 0.136672
C13   C     C_R   0.382448 0.183612 0.110999 -0.235046
C14   C     C_R   0.627849 0.809563 0.896537 -0.239963
C15   C     C_R   0.113345 0.697016 0.379709 -0.224828
C16   C     C_R   0.886442 0.317061 0.614667 -0.250508
H5    H     H_    0.370777 0.318903 0.123631 0.174125
H6    H     H_    0.650209 0.684440 0.893273 0.143983
H7    H     H_    0.122815 0.827718 0.361463 0.166932
H8    H     H_    0.876506 0.183398 0.629015 0.152299
C17   C     C_R   0.358613 0.029066 0.133826 -0.140104
C18   C     C_R   0.639008 0.962397 0.862984 -0.104949
C19   C     C_R   0.140241 0.537799 0.364596 -0.135746
C20   C     C_R   0.861195 0.469981 0.636569 -0.112730
C21   C     C_R   0.375530 0.853382 0.114248 0.268387
C22   C     C_R   0.610627 0.128190 0.872003 0.252027
C23   C     C_R   0.124932 0.368492 0.389852 0.252912
C24   C     C_R   0.877687 0.645847 0.617873 0.263018
C25   C     C_R   0.418159 0.838411 0.078056 0.141568
C26   C     C_R   0.573236 0.136580 0.915321 0.117091
C27   C     C_R   0.082843 0.364654 0.427254 0.147428
C28   C     C_R   0.914794 0.662319 0.574777 0.117553
C29   C     C_R   0.440590 0.995640 0.055866 0.044124
C30   C     C_R   0.560176 0.975579 0.944324 0.075422
C31   C     C_R   0.057670 0.527597 0.441762 0.053728
C32   C     C_R   0.939525 0.505591 0.554635 0.066047
C33   C     C_1   0.483117 0.984619 0.016960 -0.048273
C34   C     C_1   0.518273 0.975138 0.984237 -0.041073
C35   C     C_1   0.015385 0.527068 0.481043 -0.043118
C36   C     C_1   0.980617 0.517356 0.514122 -0.043454
C37   C     C_3   0.960776 0.902111 0.023780 0.291635
C38   C     C_3   0.039150 0.074747 0.976664 0.254991
C39   C     C_3   0.538774 0.404892 0.475775 0.264484
C40   C     C_3   0.461929 0.586364 0.523327 0.260397
C41   C     C_3   0.983475 0.090314 0.045231 0.064184
C42   C     C_3   0.016117 0.887397 0.955361 0.049843
C43   C     C_3   0.516471 0.593170 0.453896 0.075328
C44   C     C_3   0.484141 0.398585 0.545210 0.046574
C45   C     C_1   0.128172 0.048558 0.125748 -0.199256
C46   C     C_1   0.871914 0.949452 0.874176 -0.192194
C47   C     C_1   0.371733 0.549932 0.374433 -0.201231
C48   C     C_1   0.628135 0.448900 0.625755 -0.194507
C49   C     C_3   0.018548 0.825088 0.021668 0.087969
C50   C     C_3   0.981664 0.152859 0.979050 0.084300
C51   C     C_3   0.480971 0.330760 0.479408 0.085944
C52   C     C_3   0.519835 0.659649 0.519915 0.084126
C53   C     C_3   0.041752 0.014669 0.042429 -0.042138
C54   C     C_3   0.958283 0.964448 0.958241 -0.056620
C55   C     C_3   0.458148 0.519745 0.457938 -0.034425
C56   C     C_3   0.542253 0.469644 0.541185 -0.053716
C57   C     C_1   0.089330 0.039316 0.087941 -0.008419
C58   C     C_1   0.910719 0.951196 0.912122 -0.023438
C59   C     C_1   0.410490 0.542614 0.412409 -0.009496
C60   C     C_1   0.589494 0.452036 0.587607 -0.009874
N1    N     N_2   0.349588 0.688366 0.128016 -0.534575
H9    H     H_    0.352977 0.648236 0.171923 0.270950
C61   C     C_3   0.299620 0.646733 0.091010 -0.493393
H10   H     H_    0.285358 0.509006 0.102091 0.198596
H11   H     H_    0.306285 0.647094 0.043280 0.170555
H12   H     H_    0.267836 0.748185 0.098112 0.197933
N2    N     N_2   0.619817 0.284692 0.837586 -0.495190
H13   H     H_    0.628677 0.401918 0.861727 0.247347
C62   C     C_3   0.581502 0.309194 0.784981 -0.536469
H14   H     H_    0.593081 0.430339 0.760012 0.184548
H15   H     H_    0.540097 0.330774 0.797443 0.174021
H16   H     H_    0.581644 0.187777 0.755441 0.192622
N3    N     N_2   0.150303 0.200057 0.378294 -0.539527
H17   H     H_    0.147276 0.156932 0.334639 0.271688
C63   C     C_3   0.200884 0.163263 0.414685 -0.501961
H18   H     H_    0.214776 0.023247 0.405311 0.199559
H19   H     H_    0.195272 0.172008 0.462639 0.176195
H20   H     H_    0.232411 0.262240 0.405025 0.196651
N4    N     N_2   0.858320 0.806474 0.643779 -0.493151
H21   H     H_    0.843325 0.905741 0.614277 0.248779
C64   C     C_3   0.891695 0.870618 0.696624 -0.510343
H22   H     H_    0.871573 0.987475 0.716186 0.195465
H23   H     H_    0.931958 0.915296 0.685748 0.156019
H24   H     H_    0.897522 0.760877 0.730561 0.189556
C65   C     C_3   0.440940 0.652691 0.065790 -0.358457
C66   C     C_3   0.480228 0.591103 0.119110 -0.757032
H25   H     H_    0.511794 0.696627 0.130452 0.227929
H26   H     H_    0.458282 0.567207 0.158399 0.229342
H27   H     H_    0.500871 0.463007 0.108518 0.216025
H28   H     H_    0.407124 0.555544 0.056198 0.195102
H29   H     H_    0.462241 0.651120 0.025380 0.171504
C67   C     C_3   0.548374 0.314711 0.933488 -0.374466
C68   C     C_3   0.572415 0.369072 0.996712 -0.773084
H30   H     H_    0.572607 0.255133 0.028782 0.238089
H31   H     H_    0.614865 0.415252 0.996399 0.221816
H32   H     H_    0.547948 0.479931 0.013634 0.214968
H33   H     H_    0.553982 0.428294 0.902771 0.183100
H34   H     H_    0.503849 0.298637 0.932022 0.179891
C69   C     C_3   0.062158 0.186139 0.449408 -0.354818
C70   C     C_3   0.008582 0.133705 0.412813 -0.773313
H35   H     H_    0.979911 0.250123 0.407729 0.235902
H36   H     H_    0.016206 0.086765 0.367785 0.227477
H37   H     H_    0.988626 0.023003 0.435432 0.216413
H38   H     H_    0.092206 0.075767 0.447590 0.203757
H39   H     H_    0.056191 0.198022 0.497209 0.169347
C71   C     C_3   0.928201 0.846823 0.550596 -0.389251
C72   C     C_3   0.889232 0.894614 0.495586 -0.760971
H40   H     H_    0.893130 0.794015 0.459491 0.233295
H41   H     H_    0.846828 0.895009 0.506315 0.224123
H42   H     H_    0.898783 0.032154 0.479329 0.221726
H43   H     H_    0.926396 0.950723 0.585271 0.181361
H44   H     H_    0.970407 0.853070 0.539388 0.181169
C73   C     C_3   0.968136 0.193288 0.100073 -0.320321
C74   C     C_3   0.907051 0.209408 0.102592 -0.758451
H45   H     H_    0.884028 0.211283 0.057698 0.233004
H46   H     H_    0.891997 0.094086 0.127492 0.226402
H47   H     H_    0.898036 0.335992 0.126578 0.210595
H48   H     H_    0.986777 0.123872 0.141014 0.169983
H49   H     H_    0.985994 0.330130 0.100567 0.171315
C75   C     C_3   0.028894 0.782965 0.899814 -0.321821
C76   C     C_3   0.086783 0.710739 0.905031 -0.788686
H50   H     H_    0.115907 0.810247 0.927588 0.237177
H51   H     H_    0.089951 0.581479 0.930156 0.235604
H52   H     H_    0.098142 0.682079 0.859878 0.212475
H53   H     H_    0.000089 0.668593 0.890589 0.173291
H54   H     H_    0.021897 0.875446 0.860914 0.177849
C77   C     C_3   0.527594 0.693364 0.397155 -0.316472
C78   C     C_3   0.585501 0.761438 0.399105 -0.776242
H55   H     H_    0.590839 0.884642 0.427265 0.250131
H56   H     H_    0.615125 0.656256 0.416727 0.232267
H57   H     H_    0.593737 0.799143 0.353516 0.211173
H58   H     H_    0.518416 0.599923 0.358602 0.175000
H59   H     H_    0.499510 0.810196 0.389295 0.177164
C79   C     C_3   0.470120 0.294171 0.600025 -0.331298
C80   C     C_3   0.409522 0.259420 0.599342 -0.769904
H60   H     H_    0.387814 0.387413 0.607296 0.233196
H61   H     H_    0.391681 0.199612 0.556453 0.234929
H62   H     H_    0.402934 0.163632 0.635710 0.210795
H63   H     H_    0.492154 0.162912 0.602617 0.163710
H64   H     H_    0.484947 0.371985 0.640869 0.175116
N5    N     N_2   0.914947 0.809882 0.044448 -0.510914
H65   H     H_    0.879039 0.879420 0.034458 0.263703
C81   C     C_3   0.922234 0.736138 0.104085 -0.571147
H66   H     H_    0.882286 0.700312 0.118098 0.189546
H67   H     H_    0.942625 0.834648 0.136433 0.200273
H68   H     H_    0.946526 0.610392 0.105133 0.214926
N6    N     N_2   0.084147 0.171611 0.955601 -0.516766
H69   H     H_    0.121478 0.127323 0.974757 0.258989
C82   C     C_3   0.082442 0.201859 0.892191 -0.585407
H70   H     H_    0.112309 0.308369 0.884175 0.199002
H71   H     H_    0.041954 0.247611 0.872371 0.199195
H72   H     H_    0.094045 0.076633 0.869339 0.206639
N7    N     N_2   0.582904 0.305257 0.453880 -0.524873
H73   H     H_    0.620594 0.353702 0.470277 0.256473
C83   C     C_3   0.578060 0.265182 0.390765 -0.579732
H74   H     H_    0.608267 0.160015 0.382245 0.198573
H75   H     H_    0.587024 0.387433 0.365121 0.205007
H76   H     H_    0.537187 0.213775 0.374363 0.214787
N8    N     N_2   0.416857 0.684185 0.543838 -0.506623
H77   H     H_    0.380393 0.618221 0.533623 0.262398
C84   C     C_3   0.424565 0.757936 0.603572 -0.587789
H78   H     H_    0.385029 0.803003 0.616728 0.194812
H79   H     H_    0.451090 0.878604 0.605231 0.204957
H80   H     H_    0.442241 0.655201 0.636024 0.199770
C85   C     C_3   0.963070 0.326880 0.944845 -0.351564
C86   C     C_3   0.910765 0.407250 0.962180 -0.732033
H81   H     H_    0.877739 0.304955 0.956004 0.225428
H82   H     H_    0.916545 0.455031 0.008864 0.259246
H83   H     H_    0.898861 0.526519 0.933411 0.227714
H84   H     H_    0.995729 0.428730 0.950825 0.191665
H85   H     H_    0.956521 0.294969 0.896518 0.176839
C87   C     C_3   0.040689 0.641353 0.046901 -0.326328
C88   C     C_3   0.061106 0.643068 0.113447 -0.758524
H86   H     H_    0.103756 0.689086 0.120447 0.239198
H87   H     H_    0.036002 0.732069 0.138921 0.226883
H88   H     H_    0.060818 0.502737 0.131589 0.206679
H89   H     H_    0.008030 0.540953 0.039204 0.190489
H90   H     H_    0.074493 0.595182 0.023024 0.195624
C89   C     C_3   0.544443 0.829020 0.553386 -0.314779
C90   C     C_3   0.604303 0.862221 0.547153 -0.723487
H91   H     H_    0.622516 0.748289 0.523962 0.229833
H92   H     H_    0.609102 0.990993 0.522674 0.232507
H93   H     H_    0.627580 0.877524 0.591912 0.218318
H94   H     H_    0.521066 0.951093 0.539590 0.170829
H95   H     H_    0.540773 0.810052 0.601465 0.168272
C91   C     C_3   0.462442 0.138122 0.457971 -0.361002
C92   C     C_3   0.422799 0.132238 0.401281 -0.734982
H96   H     H_    0.382865 0.186244 0.410175 0.237053
H97   H     H_    0.438617 0.210005 0.365013 0.221097
H98   H     H_    0.416611 0.988541 0.386402 0.213362
H99   H     H_    0.498661 0.059019 0.449759 0.206689
H100  H     H_    0.443297 0.067215 0.493206 0.204466

loop_
_geom_bond_atom_site_label_1
_geom_bond_atom_site_label_2
_ccdc_geom_bond_type
O17   V3    S    
C51   C55   S    
C26   C30   A    
C62   H14   S    
C55   C59   S    
O19   V1    S    
O13   V1    S    
O1    C5    A    
O3    C7    A    
C61   H10   S    
C10   C14   A    
C10   C30   A    
C40   C44   S    
O15   V3    S    
C73   C74   S    
N7    H73   S    
C52   C89   S    
O4    V2    S    
C91   H99   S    
C80   H61   S    
C82   H70   S    
C46   C58   T    
C2    C47   S    
C79   H64   S    
N3    C63   S    
C45   C57   T    
N1    H9    S    
C23   N3    S    
C32   C36   S    
O9    V1    S    
C39   N7    S    
C64   H22   S    
C23   C27   A    
C71   H43   S    
C77   C78   S    
C22   C26   A    
C11   H3    S    
O4    C8    A    
C72   H42   S    
C38   N6    S    
N7    C83   S    
O1    V3    S    
C90   H91   S    
O2    V4    S    
C14   H6    S    
C88   H88   S    
C25   C29   A    
O3    V1    S    
C66   H25   S    
C83   H76   S    
C9    C29   A    
C1    O15   A    
C39   C51   S    
C89   C90   S    
C2    O16   A    
C70   H35   S    
C84   H79   S    
C87   H89   S    
C38   C42   S    
C68   H32   S    
C63   H18   S    
C44   C79   S    
C86   H81   S    
O14   V2    S    
C76   H51   S    
C11   C15   A    
C44   C56   S    
C40   N8    S    
C47   C59   T    
C73   H48   S    
C64   H24   S    
C16   C20   A    
C12   C32   A    
O11   C7    A    
C89   H94   S    
C79   H63   S    
O12   C8    A    
C63   H19   S    
C42   C75   S    
C37   N5    S    
O10   V2    S    
C38   C50   S    
C44   C51   S    
C13   C17   A    
C80   H62   S    
C74   H46   S    
C88   H87   S    
N1    C61   S    
C89   H95   S    
C75   H54   S    
C61   H12   S    
O7    V3    S    
C30   C34   S    
C21   N1    S    
C35   C36   T    
O8    V4    S    
C78   H57   S    
C56   C60   S    
C12   H4    S    
C16   H8    S    
C50   C85   S    
C81   H67   S    
C69   H38   S    
C54   C58   S    
C82   H71   S    
C80   H60   S    
C51   C91   S    
C53   C57   S    
C81   H68   S    
C7    C18   S    
N5    H65   S    
C9    H1    S    
C77   H59   S    
C41   C73   S    
C1    C48   S    
C78   H56   S    
C48   C60   T    
O7    C3    A    
C65   H28   S    
N8    C84   S    
C31   C35   S    
O5    C1    A    
C69   H39   S    
C3    C46   S    
C92   H97   S    
C74   H47   S    
N2    H13   S    
C90   H93   S    
O8    C4    A    
C84   H80   S    
C27   C69   S    
C4    C45   S    
C86   H83   S    
C67   H34   S    
C85   H84   S    
N4    C64   S    
C73   H49   S    
C42   C54   S    
C76   H52   S    
C37   C41   S    
C41   C53   S    
C40   C52   S    
N5    C81   S    
C14   C18   A    
C43   C55   S    
O6    V2    S    
C90   H92   S    
C84   H78   S    
C62   H16   S    
C79   C80   S    
C63   H20   S    
C22   N2    S    
C12   C16   A    
C42   C49   S    
C87   H90   S    
C69   C70   S    
O5    V1    S    
C41   C50   S    
C92   H96   S    
C40   C55   S    
C25   C65   S    
C74   H45   S    
O16   V4    S    
C82   H72   S    
C43   C77   S    
N8    H77   S    
C88   H86   S    
C75   H53   S    
C3    O13   A    
C21   C25   A    
C24   N4    S    
N4    H21   S    
N2    C62   S    
C10   H2    S    
C27   C31   A    
C52   C56   S    
O6    C2    A    
C11   C31   A    
C72   H40   S    
C61   H11   S    
O11   V3    S    
O18   V4    S    
N6    H69   S    
O12   V4    S    
N3    H17   S    
C26   C67   S    
C62   H15   S    
C28   C32   A    
C9    C13   A    
C78   H55   S    
O10   C6    A    
O20   V2    S    
C65   H29   S    
C83   H74   S    
C18   C22   A    
C81   H66   S    
C50   C54   S    
O2    C6    A    
O9    C5    A    
C92   H98   S    
C39   C43   S    
C72   H41   S    
C15   C19   A    
C91   C92   S    
C68   H30   S    
C71   H44   S    
C70   H37   S    
C17   C21   A    
C8    C17   S    
C67   H33   S    
C85   H85   S    
C19   C23   A    
C91   H100  S    
C85   C86   S    
C43   C52   S    
C66   H26   S    
C83   H75   S    
C37   C49   S    
C71   C72   S    
C39   C56   S    
C29   C33   S    
C49   C87   S    
C24   C28   A    
C87   C88   S    
C70   H36   S    
C33   C34   T    
C4    O14   A    
C68   H31   S    
C13   H5    S    
C77   H58   S    
C67   C68   S    
C86   H82   S    
C75   C76   S    
N6    C82   S    
C76   H50   S    
C65   C66   S    
C38   C53   S    
C15   H7    S    
C66   H27   S    
C5    C20   S    
C49   C53   S    
C37   C54   S    
C20   C24   A    
C28   C71   S    
C6    C19   S    
C64   H23   S    
