data_mof_unit_18077.cif
_audit_creation_date              2012-12-10T19:07:35-0500
_audit_creation_method            fapswitch 2.2
_symmetry_space_group_name_H-M    P1
_symmetry_Int_Tables_number       1
_space_group_crystal_system       triclinic
_cell_length_a                    10.814774
_cell_length_b                    10.828096
_cell_length_c                    9.551206
_cell_angle_alpha                 90.194593
_cell_angle_beta                  89.785424
_cell_angle_gamma                 90.263438
_cell_volume                      1118.45275109

loop_
_atom_site_label
_atom_site_type_symbol
_atom_type_description
_atom_site_fract_x
_atom_site_fract_y
_atom_site_fract_z
_atom_type_partial_charge
C1    C     C_R   0.496785 0.262331 0.499665 0.884760
C2    C     C_R   0.936001 0.480636 0.622518 0.095266
C3    C     C_3   0.929871 0.365361 0.708033 -0.435491
C4    C     C_3   0.070078 0.367439 0.709621 -0.397558
C5    C     C_R   0.493497 0.064111 0.624864 -0.122633
C6    C     C_R   0.483970 0.129082 0.499376 -0.142605
C7    C     C_R   0.457408 0.062865 0.375458 0.596859
C8    C     C_R   0.458512 0.934051 0.376504 -0.267798
C9    C     C_R   0.485783 0.870496 0.500572 -0.093869
C10   C     C_R   0.494716 0.937023 0.625399 -0.096770
C11   C     C_3   0.589801 0.932505 0.738405 0.446302
C12   C     C_R   0.262440 0.501745 0.500323 0.788295
C13   C     C_3   0.587604 0.072820 0.738785 0.474366
C14   C     C_R   0.561666 0.589935 0.073673 0.231558
C15   C     C_R   0.429459 0.418735 0.074574 -0.121805
C16   C     C_R   0.429441 0.418527 0.925789 0.654935
C17   C     C_R   0.561220 0.590354 0.926289 0.143661
C18   C     C_3   0.696231 0.617934 0.919797 -0.434823
C19   C     C_3   0.696936 0.615851 0.078331 -0.492027
C20   C     C_R   0.497975 0.737589 0.500163 0.862763
C21   C     C_R   0.737692 0.501530 0.499954 0.826944
C22   C     C_R   0.063364 0.481722 0.623014 0.116622
C23   C     C_R   0.129419 0.511886 0.502133 -0.086476
C24   C     C_R   0.065469 0.556981 0.385387 -0.193538
C25   C     C_R   0.936464 0.557144 0.385488 -0.186449
C26   C     C_R   0.871056 0.510918 0.501505 -0.070559
Cu1   Cu    Cu3+1 0.499990 0.499980 0.640670 1.025389
Cu2   Cu    Cu3+1 0.500010 0.500020 0.359330 0.980913
H1    H     H_    0.114650 0.588233 0.292968 0.165892
H2    H     H_    0.550702 0.114255 0.836940 0.078251
H3    H     H_    0.374080 0.351569 0.130544 0.210647
H4    H     H_    0.715989 0.710768 0.876084 0.248244
H5    H     H_    0.750143 0.536750 0.120155 0.214839
H6    H     H_    0.718086 0.707174 0.126283 0.206154
H7    H     H_    0.888524 0.380817 0.813184 0.204975
H8    H     H_    0.890741 0.285742 0.648911 0.258247
H9    H     H_    0.108971 0.386135 0.815190 0.235326
H10   H     H_    0.112575 0.288515 0.652540 0.215462
H11   H     H_    0.443244 0.884761 0.279157 0.181199
N1    N     N_R   0.500790 0.500930 0.147930 -0.224640
N2    N     N_R   0.500790 0.500890 0.852020 -0.238381
O1    O     O_R   0.500000 0.319640 0.618810 -0.524732
O2    O     O_R   0.500010 0.319680 0.381230 -0.537535
O3    O     O_R   0.319650 0.499970 0.618810 -0.550817
O4    O     O_R   0.319660 0.500010 0.381230 -0.595947
O5    O     O_R   0.499990 0.680320 0.618770 -0.574951
O6    O     O_R   0.500000 0.680360 0.381190 -0.598731
O7    O     O_R   0.680340 0.499990 0.618770 -0.574076
O8    O     O_R   0.680350 0.500030 0.381190 -0.588978
F1    F     F_    0.701064 0.885095 0.690514 -0.617066
F2    F     F_    0.697650 0.124975 0.692841 -0.626224
F3    F     F_    0.359709 0.333951 0.856790 -0.670310
H12   H     H_    0.750699 0.541813 0.872681 0.213593
H13   H     H_    0.888654 0.589947 0.293928 0.155057
F4    F     F_    0.436361 0.121260 0.252333 -0.666254
H14   H     H_    0.555147 0.889793 0.836740 0.014521

loop_
_geom_bond_atom_site_label_1
_geom_bond_atom_site_label_2
_ccdc_geom_bond_type
Cu1   O7    S    
C2    C22   A    
C21   C26   S    
C19   H6    S    
Cu2   O6    S    
C15   H3    S    
C6    C7    A    
C12   O4    A    
C8    H11   S    
C7    F4    S    
C4    C22   S    
C9    C10   A    
Cu1   N2    S    
C9    C20   S    
C5    C13   S    
Cu1   O1    S    
C3    H7    S    
C23   C24   A    
C21   O7    A    
C21   O8    A    
C17   C18   S    
C3    C4    S    
C5    C10   A    
C2    C26   A    
C11   F1    S    
C25   H13   S    
C11   C13   S    
C14   C17   A    
C3    H8    S    
C14   C19   S    
Cu1   O5    S    
C4    H10   S    
C2    C3    S    
C22   C23   A    
C5    C6    A    
C15   N1    A    
C17   N2    A    
Cu2   O4    S    
C20   O6    A    
C18   H4    S    
C10   C11   S    
Cu2   N1    S    
C14   N1    A    
C15   C16   A    
C13   H2    S    
C7    C8    A    
C1    O1    A    
C24   C25   A    
C12   O3    A    
C18   C19   S    
C19   H5    S    
Cu1   Cu2   S    
C24   H1    S    
C8    C9    A    
C12   C23   S    
Cu2   O2    S    
C18   H12   S    
C25   C26   A    
C13   F2    S    
Cu1   O3    S    
C1    O2    A    
C20   O5    A    
C11   H14   S    
C16   F3    S    
C4    H9    S    
C16   N2    A    
Cu2   O8    S    
C1    C6    S    
