data_mof_unit_68552.cif
_audit_creation_date              2012-12-10T16:55:01-0500
_audit_creation_method            fapswitch 2.2
_symmetry_space_group_name_H-M    P1
_symmetry_Int_Tables_number       1
_space_group_crystal_system       triclinic
_cell_length_a                    7.82488
_cell_length_b                    8.584803
_cell_length_c                    15.726453
_cell_angle_alpha                 91.904924
_cell_angle_beta                  85.302885
_cell_angle_gamma                 93.838912
_cell_volume                      1050.10553391

loop_
_atom_site_label
_atom_site_type_symbol
_atom_type_description
_atom_site_fract_x
_atom_site_fract_y
_atom_site_fract_z
_atom_type_partial_charge
C1    C     C_R   0.545679 0.794554 0.497925 0.947226
C2    C     C_2   0.430481 0.041769 0.503238 -0.383852
C3    C     C_R   0.501326 0.502027 0.661549 0.876682
C4    C     C_R   0.454312 0.205446 0.502069 0.949411
C5    C     C_R   0.498459 0.496656 0.338648 0.880220
C6    C     C_3   0.368976 0.609775 0.960152 -0.512847
C7    C     C_3   0.703101 0.560033 0.945756 0.801005
C8    C     C_3   0.694228 0.550918 0.046003 -0.028698
C9    C     C_1   0.496606 0.492136 0.249995 -0.216457
C10   C     C_3   0.513900 0.510154 0.917210 0.009820
C11   C     C_3   0.298714 0.809395 0.159989 0.096723
C12   C     C_3   0.371036 0.612475 0.058215 0.362541
C13   C     C_3   0.389376 0.939704 0.210507 -0.839256
C14   C     C_3   0.952124 0.306892 0.359617 0.222016
C15   C     C_3   0.056533 0.191513 0.305654 -0.939912
C16   C     C_3   0.052837 0.708898 0.634300 0.198702
C17   C     C_3   0.955182 0.836312 0.681740 -0.911735
C18   C     C_3   0.907699 0.472123 0.835096 0.187751
C19   C     C_3   0.945367 0.319650 0.787736 -0.869019
C20   C     C_3   0.683012 0.832863 0.911371 0.030401
C21   C     C_3   0.799524 0.980980 0.903844 -0.854957
C22   C     C_3   0.783848 0.692658 0.091863 -0.824492
C23   C     C_3   0.506718 0.500677 0.083174 0.118042
C24   C     C_3   0.296610 0.114723 0.910127 0.095691
C25   C     C_3   0.344071 0.061461 0.818201 -0.920500
C26   C     C_3   0.458308 0.335558 0.045698 -0.662248
C27   C     C_3   0.466664 0.338503 0.946791 0.369557
C28   C     C_1   0.499487 0.492242 0.174652 -0.025807
C29   C     C_1   0.508848 0.511577 0.825757 -0.011886
C30   C     C_1   0.504628 0.507858 0.750476 -0.203095
C31   C     C_2   0.569480 0.958234 0.496728 -0.382957
H1    H     H_    0.242297 0.555831 0.943838 0.216328
H2    H     H_    0.263929 0.711133 0.203890 0.143096
H3    H     H_    0.178973 0.851668 0.138050 0.144846
H4    H     H_    0.515655 0.903008 0.227205 0.257497
H5    H     H_    0.409830 0.046721 0.172260 0.245725
H6    H     H_    0.310747 0.965740 0.270503 0.220244
H7    H     H_    0.950192 0.414955 0.322468 0.137812
H8    H     H_    0.820671 0.252178 0.372042 0.171265
H9    H     H_    0.058475 0.081093 0.340319 0.261179
H10   H     H_    0.997991 0.165760 0.244324 0.213896
H11   H     H_    0.190287 0.241257 0.291916 0.266223
H12   H     H_    0.240436 0.565290 0.083568 0.069436
H13   H     H_    0.184784 0.758409 0.618929 0.177998
H14   H     H_    0.054376 0.608575 0.676911 0.127264
H15   H     H_    0.825663 0.789274 0.706588 0.260000
H16   H     H_    0.028947 0.881678 0.735373 0.213992
H17   H     H_    0.941464 0.933905 0.638645 0.269707
H18   H     H_    0.031314 0.536877 0.847064 0.177330
H19   H     H_    0.839107 0.542600 0.792634 0.158999
H20   H     H_    0.824015 0.259813 0.768119 0.242812
H21   H     H_    0.033169 0.342585 0.729802 0.226822
H22   H     H_    0.007415 0.243166 0.829652 0.292825
H23   H     H_    0.547669 0.249881 0.064995 0.173769
H24   H     H_    0.596257 0.851507 0.968710 0.214583
H25   H     H_    0.613068 0.816903 0.852769 0.154909
H26   H     H_    0.915547 0.960707 0.861166 0.268211
H27   H     H_    0.730722 0.073346 0.876942 0.224436
H28   H     H_    0.839958 0.020581 0.967558 0.247315
H29   H     H_    0.792827 0.668941 0.160256 0.217459
H30   H     H_    0.917731 0.713186 0.063242 0.240293
H31   H     H_    0.717623 0.801469 0.088328 0.288773
H32   H     H_    0.162126 0.072473 0.928154 0.174170
H33   H     H_    0.376660 0.058226 0.954277 0.139978
H34   H     H_    0.700722 0.009451 0.490512 0.193402
H35   H     H_    0.479187 0.100108 0.798431 0.250281
H36   H     H_    0.329065 0.932074 0.812606 0.210001
H37   H     H_    0.259140 0.111426 0.774480 0.270008
H38   H     H_    0.299237 0.990577 0.509428 0.192874
H39   H     H_    0.366864 0.727853 0.934473 0.160822
H40   H     H_    0.773464 0.453576 0.061233 0.166835
H41   H     H_    0.570641 0.265186 0.920195 0.135883
H42   H     H_    0.326969 0.294571 0.071889 0.218958
N1    N     N_2   0.950340 0.457950 0.477370 0.161346
N2    N     N_2   0.049660 0.542050 0.522630 0.161245
O1    O     O_R   0.389240 0.738570 0.505550 -0.644598
O2    O     O_3   0.029171 0.339174 0.436313 -0.523579
O3    O     O_3   0.971490 0.664293 0.560348 -0.521340
O4    O     O_3   0.813312 0.440194 0.914314 -0.685049
O5    O     O_3   0.785882 0.707233 0.919167 -0.638790
O6    O     O_3   0.306995 0.280125 0.917297 -0.597049
O7    O     O_R   0.678400 0.711630 0.491050 -0.568154
O8    O     O_R   0.355360 0.513470 0.630110 -0.666457
O9    O     O_R   0.644510 0.486530 0.615610 -0.587700
O10   O     O_R   0.321600 0.288370 0.508950 -0.570531
O11   O     O_R   0.610760 0.261430 0.494450 -0.639988
O12   O     O_R   0.355490 0.513470 0.384390 -0.586699
O13   O     O_R   0.644640 0.486530 0.369890 -0.670128
O14   O     O_3   0.409201 0.767468 0.088443 -0.634948
Zn1   Zn    Zn3+2 0.306930 0.517990 0.509680 1.006919
Zn2   Zn    Zn3+2 0.693070 0.482010 0.490320 1.009173

loop_
_geom_bond_atom_site_label_1
_geom_bond_atom_site_label_2
_ccdc_geom_bond_type
C10   C27   S    
C7    C10   S    
C6    H1    S    
C25   H36   S    
C17   H17   S    
C20   H25   S    
C26   H42   S    
C7    C8    S    
C21   H26   S    
C12   C23   S    
C26   C27   S    
C21   H28   S    
C12   H12   S    
O11   Zn2   S    
C6    C12   S    
C14   O2    S    
C22   H31   S    
C1    C31   S    
C8    C23   S    
C31   H34   S    
C18   C19   S    
C23   C26   S    
N2    Zn1   S    
C14   H8    S    
C5    O13   A    
C19   H21   S    
C18   O4    S    
N1    O2    S    
C8    C22   S    
O9    Zn2   S    
C2    H38   S    
C16   H13   S    
C13   H6    S    
C19   H22   S    
C24   H33   S    
C25   H37   S    
C20   H24   S    
C26   H23   S    
N1    N2    D    
C20   O5    S    
C12   O14   S    
C27   O6    S    
C17   H15   S    
C15   H10   S    
C13   H5    S    
C16   C17   S    
C4    O10   A    
C1    O7    A    
O7    Zn2   S    
C2    C31   D    
N1    Zn2   S    
C3    C30   S    
C2    C4    S    
C24   O6    S    
C5    C9    S    
C29   C30   T    
C14   H7    S    
C11   O14   S    
O13   Zn2   S    
C11   H2    S    
C23   C28   S    
C24   C25   S    
C24   H32   S    
C3    O8    A    
C18   H19   S    
C7    O4    S    
C6    H39   S    
O8    Zn1   S    
C8    H40   S    
C1    O1    A    
C11   H3    S    
C25   H35   S    
C17   H16   S    
C15   H11   S    
C16   H14   S    
C6    C10   S    
O10   Zn1   S    
C13   H4    S    
C21   H27   S    
C22   H30   S    
C22   H29   S    
C11   C13   S    
C10   C29   S    
C16   O3    S    
N2    O3    S    
C15   H9    S    
C5    O12   A    
C19   H20   S    
C4    O11   A    
C20   C21   S    
C18   H18   S    
O12   Zn1   S    
C3    O9    A    
C14   C15   S    
C27   H41   S    
C9    C28   T    
O1    Zn1   S    
C7    O5    S    
