data_mof_unit_45812.cif
_audit_creation_date              2012-12-10T19:46:23-0500
_audit_creation_method            fapswitch 2.2
_symmetry_space_group_name_H-M    P1
_symmetry_Int_Tables_number       1
_space_group_crystal_system       triclinic
_cell_length_a                    10.944095
_cell_length_b                    10.894601
_cell_length_c                    10.448765
_cell_angle_alpha                 92.037864
_cell_angle_beta                  90.794792
_cell_angle_gamma                 91.12629
_cell_volume                      1244.66160429

loop_
_atom_site_label
_atom_site_type_symbol
_atom_type_description
_atom_site_fract_x
_atom_site_fract_y
_atom_site_fract_z
_atom_type_partial_charge
C1    C     C_R   0.499557 0.261435 0.497550 0.817413
C2    C     C_R   0.500429 0.738559 0.502442 0.817390
C3    C     C_R   0.872184 0.505162 0.503384 -0.209825
C4    C     C_R   0.127806 0.494916 0.496634 -0.209760
C5    C     C_R   0.937454 0.452591 0.604908 -0.118277
C6    C     C_R   0.062539 0.547521 0.395133 -0.118336
C7    C     C_R   0.278507 0.105078 0.087385 -0.148219
C8    C     C_R   0.721649 0.894245 0.912276 -0.148091
C9    C     C_R   0.308327 0.086087 0.215498 -0.241106
C10   C     C_R   0.691737 0.913069 0.784138 -0.240916
C11   C     C_R   0.429350 0.102999 0.259957 0.131738
C12   C     C_R   0.570545 0.896950 0.739989 0.131510
C13   C     C_R   0.519545 0.141676 0.175162 -0.121223
C14   C     C_R   0.480258 0.859056 0.825047 -0.121948
C15   C     C_R   0.488801 0.162131 0.047492 -0.229612
C16   C     C_R   0.511060 0.838755 0.952737 -0.229687
C17   C     C_R   0.368785 0.142735 0.003346 0.449269
C18   C     C_R   0.631263 0.857500 0.996624 0.449398
C19   C     C_R   0.463178 0.928095 0.393503 -0.164345
C20   C     C_R   0.536792 0.071880 0.606462 -0.164368
C21   C     C_R   0.498577 0.872055 0.506088 -0.081231
C22   C     C_R   0.501406 0.127930 0.493875 -0.081352
C23   C     C_R   0.261501 0.496821 0.498817 0.869556
C24   C     C_R   0.738496 0.503206 0.501185 0.869381
C25   C     C_R   0.534762 0.945104 0.614867 0.019708
C26   C     C_R   0.465205 0.054875 0.385085 0.020002
C27   C     C_1   0.500055 0.499992 0.072006 0.117045
C28   C     C_1   0.499971 0.500006 0.927995 0.116931
C29   C     C_R   0.221826 0.743723 0.154236 -0.131165
C30   C     C_R   0.778289 0.256084 0.845550 -0.131274
C31   C     C_R   0.171348 0.705581 0.268686 -0.103125
C32   C     C_R   0.828401 0.294506 0.731049 -0.103050
C33   C     C_R   0.122841 0.585926 0.276503 0.161003
C34   C     C_R   0.877183 0.414062 0.723503 0.161002
C35   C     C_R   0.126194 0.504465 0.168743 0.206840
C36   C     C_R   0.874360 0.495179 0.831561 0.207116
C37   C     C_R   0.178462 0.543071 0.055362 -0.124210
C38   C     C_R   0.822498 0.456273 0.945008 -0.124111
C39   C     C_R   0.225291 0.662606 0.047750 -0.129460
C40   C     C_R   0.775497 0.336802 0.952371 -0.129839
C41   C     C_R   0.935754 0.556195 0.401016 0.366592
C42   C     C_R   0.064235 0.443893 0.599001 0.366862
Cu1   Cu    Cu3+1 0.500000 0.500000 0.625300 1.042902
Cu2   Cu    Cu3+1 0.500000 0.500000 0.374700 1.042785
H1    H     H_    0.263306 0.692346 0.958716 0.151397
H2    H     H_    0.737876 0.306792 0.041467 0.151486
H3    H     H_    0.614136 0.150882 0.206539 0.164128
H4    H     H_    0.385575 0.850406 0.793865 0.164509
H5    H     H_    0.558609 0.188744 0.981542 0.147482
H6    H     H_    0.441179 0.812867 0.018898 0.147505
H7    H     H_    0.434321 0.872555 0.309877 0.174904
H8    H     H_    0.565629 0.127405 0.690099 0.175010
H9    H     H_    0.257505 0.836407 0.147774 0.132664
H10   H     H_    0.742438 0.163461 0.851821 0.133006
H11   H     H_    0.168472 0.769414 0.350430 0.130651
H12   H     H_    0.830842 0.230942 0.649068 0.130430
H13   H     H_    0.181433 0.480899 0.972534 0.215955
H14   H     H_    0.820038 0.518132 0.028098 0.216046
H15   H     H_    0.185906 0.087532 0.052841 0.199741
H16   H     H_    0.814422 0.911299 0.946614 0.199901
H17   H     H_    0.238431 0.052456 0.278572 0.171915
H18   H     H_    0.761731 0.946032 0.720817 0.172160
N1    N     N_1   0.500010 0.499990 0.186410 -0.120939
N2    N     N_1   0.499990 0.500010 0.813590 -0.120893
O1    O     O_R   0.499990 0.319650 0.605810 -0.544324
O2    O     O_R   0.500010 0.680350 0.394190 -0.544437
O3    O     O_R   0.499990 0.319640 0.394190 -0.594357
O4    O     O_R   0.500010 0.680360 0.605810 -0.594194
O5    O     O_R   0.319640 0.500010 0.605810 -0.523084
O6    O     O_R   0.680360 0.499990 0.394190 -0.523161
O7    O     O_R   0.319650 0.500010 0.394190 -0.595618
O8    O     O_R   0.680350 0.499990 0.605810 -0.595645
I1    I     I_    0.050895 0.323902 0.171988 -0.369362
I2    I     I_    0.949953 0.675616 0.828714 -0.369506
Cl1   Cl    Cl    0.859891 0.639612 0.281725 -0.542245
Cl2   Cl    Cl    0.140087 0.360381 0.718218 -0.541911
Cl3   Cl    Cl    0.332922 0.159835 0.841393 -0.579673
Cl4   Cl    Cl    0.667263 0.840688 0.158604 -0.579453

loop_
_geom_bond_atom_site_label_1
_geom_bond_atom_site_label_2
_ccdc_geom_bond_type
C30   C32   A    
C5    C42   A    
Cu1   O8    S    
C23   O5    A    
Cu2   O2    S    
C24   O6    A    
C40   H2    S    
C30   H10   S    
C29   H9    S    
C9    H17   S    
C35   C37   A    
C16   H6    S    
C2    O4    A    
C20   C25   A    
Cu2   O7    S    
C7    C9    A    
C19   C26   A    
C33   C35   A    
C38   H14   S    
C35   I1    S    
Cu1   O4    S    
C7    C17   A    
C6    C41   A    
C1    O1    A    
C31   C33   A    
Cu2   O6    S    
Cu1   O1    S    
C39   H1    S    
C1    C22   S    
Cu1   O5    S    
C29   C31   A    
C3    C24   S    
C10   H18   S    
C10   C12   A    
C7    H15   S    
Cu1   N2    S    
Cu2   N1    S    
C23   O7    A    
C4    C6    A    
C13   H3    S    
C4    C23   S    
C14   H4    S    
C11   C26   S    
C2    O2    A    
C8    C18   A    
C32   C34   A    
Cu1   Cu2   S    
C41   Cl1   S    
C18   Cl4   S    
C5    C34   S    
C29   C39   A    
C2    C21   S    
C17   Cl3   S    
C30   C40   A    
C9    C11   A    
C36   I2    S    
C28   N2    T    
C8    C10   A    
C12   C14   A    
C13   C15   A    
C14   C16   A    
C24   O8    A    
C15   C17   A    
C21   C25   A    
C3    C41   A    
C19   C21   A    
C20   C22   A    
C3    C5    A    
C42   Cl2   S    
C6    C33   S    
C12   C25   S    
C20   H8    S    
C36   C38   A    
C37   C39   A    
C8    H16   S    
C38   C40   A    
C11   C13   A    
C4    C42   A    
C1    O3    A    
C34   C36   A    
C15   H5    S    
C19   H7    S    
C16   C18   A    
C22   C26   A    
C27   C28   S    
C27   N1    T    
Cu2   O3    S    
C31   H11   S    
C32   H12   S    
C37   H13   S    
