data_mof_unit_50409.cif
_audit_creation_date              2012-12-10T20:37:32-0500
_audit_creation_method            fapswitch 2.2
_symmetry_space_group_name_H-M    P1
_symmetry_Int_Tables_number       1
_space_group_crystal_system       triclinic
_cell_length_a                    15.728834
_cell_length_b                    10.668856
_cell_length_c                    9.872701
_cell_angle_alpha                 90.188914
_cell_angle_beta                  90.352531
_cell_angle_gamma                 90.134492
_cell_volume                      1656.67976644

loop_
_atom_site_label
_atom_site_type_symbol
_atom_type_description
_atom_site_fract_x
_atom_site_fract_y
_atom_site_fract_z
_atom_type_partial_charge
C1    C     C_R   0.497176 0.259885 0.499730 0.875157
C2    C     C_3   0.083560 0.500406 0.499844 0.118355
C3    C     C_3   0.971580 0.600675 0.569918 -0.213772
C4    C     C_3   0.916763 0.498867 0.500137 0.081175
C5    C     C_3   0.027413 0.604745 0.441204 0.166555
C6    C     C_3   0.971224 0.504703 0.371766 0.196531
C7    C     C_1   0.174272 0.499828 0.499175 -0.030625
C8    C     C_1   0.826027 0.498974 0.500900 -0.033544
C9    C     C_R   0.469608 0.064591 0.619367 0.086478
C10   C     C_R   0.482097 0.128590 0.498407 -0.096350
C11   C     C_R   0.476028 0.064078 0.374763 -0.228572
C12   C     C_R   0.338053 0.499769 0.499660 0.900003
C13   C     C_R   0.474975 0.934696 0.375074 -0.206570
C14   C     C_R   0.480028 0.871112 0.499117 -0.119680
C15   C     C_R   0.467182 0.936449 0.619856 0.082410
C16   C     C_3   0.512374 0.930088 0.754070 -0.103666
C17   C     C_3   0.516041 0.072602 0.751784 -0.465346
C18   C     C_R   0.454997 0.411211 0.069571 0.213610
C19   C     C_R   0.549878 0.580712 0.072807 -0.115244
C20   C     C_R   0.549772 0.580858 0.928875 -0.133019
C21   C     C_R   0.457425 0.408993 0.927265 0.131825
C22   C     C_3   0.365926 0.377614 0.912052 -0.511629
C23   C     C_R   0.496242 0.740044 0.500080 0.873272
C24   C     C_3   0.360317 0.386086 0.066555 0.242590
C25   C     C_R   0.662016 0.499959 0.500369 0.905789
C26   C     C_3   0.971878 0.392670 0.559752 -0.209747
C27   C     C_3   0.027320 0.401523 0.432012 0.061761
C28   C     C_1   0.249395 0.499681 0.499107 -0.205951
C29   C     C_1   0.750817 0.499404 0.501010 -0.192557
C30   C     C_3   0.028309 0.494666 0.627149 0.204332
H1    H     H_    0.575655 0.883843 0.750341 0.164843
H2    H     H_    0.477639 0.119288 0.831467 0.201413
H3    H     H_    0.581732 0.109841 0.740877 0.186637
H4    H     H_    0.588812 0.647645 0.127704 0.148546
H5    H     H_    0.588490 0.648110 0.875282 0.145728
H6    H     H_    0.330337 0.451304 0.856470 0.211166
H7    H     H_    0.356811 0.281723 0.869862 0.187766
H8    H     H_    0.948001 0.305441 0.607461 0.150052
H9    H     H_    0.947053 0.682607 0.627105 0.149514
H10   H     H_    0.479299 0.112075 0.278462 0.175451
H11   H     H_    0.477538 0.885798 0.278828 0.179241
N1    N     N_R   0.499430 0.499140 0.142800 -0.111082
N2    N     N_R   0.499430 0.499180 0.857150 -0.102985
O1    O     O_R   0.500010 0.316790 0.614690 -0.612347
O2    O     O_R   0.500000 0.316760 0.385350 -0.627580
O3    O     O_R   0.376780 0.500010 0.614650 -0.619164
O4    O     O_R   0.376770 0.499970 0.385310 -0.615021
O5    O     O_R   0.500000 0.683240 0.614650 -0.633012
O6    O     O_R   0.499990 0.683210 0.385310 -0.620090
O7    O     O_R   0.623230 0.500030 0.614690 -0.613538
O8    O     O_R   0.623220 0.499990 0.385350 -0.611892
Zn1   Zn    Zn3+2 0.500010 0.500020 0.653130 0.938621
Zn2   Zn    Zn3+2 0.499990 0.499980 0.346870 0.953555
N3    N     N_3   0.059799 0.293746 0.357841 -0.454341
H12   H     H_    0.007396 0.244955 0.318781 0.189103
H13   H     H_    0.093751 0.327884 0.275047 0.184357
N4    N     N_3   0.309545 0.494347 0.111002 -0.415358
H14   H     H_    0.279296 0.473495 0.201950 0.218647
H15   H     H_    0.259056 0.508221 0.043319 0.165279
C31   C     C_3   0.335342 0.261982 0.134439 -0.917474
H16   H     H_    0.374843 0.183387 0.096134 0.227525
H17   H     H_    0.344397 0.269146 0.245816 0.258620
H18   H     H_    0.267480 0.240644 0.112662 0.241203
C32   C     C_3   0.937844 0.508924 0.226882 -0.929192
H19   H     H_    0.992047 0.511823 0.155510 0.240513
H20   H     H_    0.898756 0.424280 0.205827 0.242856
H21   H     H_    0.898206 0.593842 0.212781 0.251855
C33   C     C_3   0.060066 0.723851 0.375023 -0.910809
H22   H     H_    0.005503 0.782285 0.342101 0.246684
H23   H     H_    0.099528 0.777500 0.448661 0.245362
H24   H     H_    0.099173 0.699302 0.285629 0.245251
C34   C     C_3   0.062013 0.489532 0.771719 -0.926142
H25   H     H_    0.007997 0.486295 0.843426 0.244474
H26   H     H_    0.101691 0.404528 0.785068 0.245840
H27   H     H_    0.101205 0.574014 0.793138 0.242435
N5    N     N_3   0.457911 0.882206 0.862271 -0.448464
H28   H     H_    0.398084 0.924870 0.857672 0.195705
H29   H     H_    0.447862 0.786681 0.844899 0.216680

loop_
_geom_bond_atom_site_label_1
_geom_bond_atom_site_label_2
_ccdc_geom_bond_type
C18   C21   A    
C2    C7    S    
C4    C8    S    
C13   H11   S    
C27   N3    S    
C16   H1    S    
C26   C27   S    
C12   C28   S    
C31   H18   S    
C18   C24   S    
C8    C29   T    
N5    H29   S    
C5    C33   S    
N1    Zn2   S    
C5    C6    S    
N2    Zn1   S    
C23   O6    A    
C15   C16   S    
O3    Zn1   S    
C31   H17   S    
C6    C32   S    
C25   O7    A    
C21   N2    A    
C20   H5    S    
C19   C20   A    
C16   C17   S    
O7    Zn1   S    
C2    C27   S    
C9    C10   A    
C19   N1    A    
O4    Zn2   S    
O1    Zn1   S    
C12   O4    A    
O2    Zn2   S    
C13   C14   A    
C17   H3    S    
C34   H27   S    
C25   C29   S    
N3    H13   S    
C32   H21   S    
N5    H28   S    
C34   H26   S    
C26   H8    S    
C22   H7    S    
C7    C28   T    
C31   H16   S    
O8    Zn2   S    
C12   O3    A    
C32   H20   S    
C14   C23   S    
C3    C30   S    
C25   O8    A    
C1    O1    A    
C4    C26   S    
C6    C27   S    
C24   C31   S    
C9    C17   S    
C26   C30   S    
C22   C24   S    
C4    C6    S    
C3    C4    S    
C20   N2    A    
C24   N4    S    
N3    H12   S    
C23   O5    A    
C16   N5    S    
C33   H22   S    
C1    C10   S    
C34   H25   S    
C3    C5    S    
C19   H4    S    
C30   C34   S    
C22   H6    S    
C2    C30   S    
C32   H19   S    
C18   N1    A    
C9    C15   A    
C11   C13   A    
C1    O2    A    
N4    H14   S    
C33   H24   S    
O6    Zn2   S    
C11   H10   S    
N4    H15   S    
C10   C11   A    
C3    H9    S    
C2    C5    S    
O5    Zn1   S    
C33   H23   S    
C17   H2    S    
C14   C15   A    
C21   C22   S    
