data_mof_unit_43718.cif
_audit_creation_date              2012-12-10T16:53:02-0500
_audit_creation_method            fapswitch 2.2
_symmetry_space_group_name_H-M    P1
_symmetry_Int_Tables_number       1
_space_group_crystal_system       triclinic
_cell_length_a                    7.938247
_cell_length_b                    8.568585
_cell_length_c                    11.528844
_cell_angle_alpha                 93.282092
_cell_angle_beta                  84.315913
_cell_angle_gamma                 93.431736
_cell_volume                      777.891219481

loop_
_atom_site_label
_atom_site_type_symbol
_atom_type_description
_atom_site_fract_x
_atom_site_fract_y
_atom_site_fract_z
_atom_type_partial_charge
C1    C     C_R   0.544940 0.793998 0.497374 0.947768
C2    C     C_2   0.431633 0.042357 0.504316 -0.380999
C3    C     C_3   0.012308 0.316151 0.409180 -0.141316
C4    C     C_3   0.928077 0.276086 0.297176 -0.859062
C5    C     C_3   0.987692 0.683849 0.590820 -0.141316
C6    C     C_3   0.071922 0.723915 0.702824 -0.859066
C7    C     C_R   0.455060 0.206002 0.502626 0.947768
C8    C     C_R   0.499671 0.500748 0.717562 0.889181
C9    C     C_R   0.500329 0.499251 0.282438 0.889182
C10   C     C_1   0.498961 0.500709 0.838299 -0.182863
C11   C     C_1   0.501039 0.499291 0.161701 -0.182863
C12   C     C_1   0.499455 0.500320 0.940604 -0.001616
C13   C     C_1   0.500545 0.499680 0.059395 -0.001616
C14   C     C_2   0.568366 0.957643 0.495684 -0.381000
H1    H     H_    0.697874 0.007852 0.487264 0.176467
H2    H     H_    0.004698 0.819368 0.753837 0.214016
H3    H     H_    0.009424 0.782970 0.532126 0.161127
H4    H     H_    0.854366 0.669835 0.621444 0.232271
H5    H     H_    0.302125 0.992148 0.512736 0.176468
H6    H     H_    0.794667 0.233113 0.315227 0.284217
H7    H     H_    0.936248 0.379494 0.242615 0.268249
H8    H     H_    0.995304 0.180635 0.246160 0.214016
H9    H     H_    0.145634 0.330165 0.378556 0.232271
H10   H     H_    0.990574 0.217029 0.467874 0.161127
H11   H     H_    0.063746 0.620509 0.757387 0.268248
H12   H     H_    0.205333 0.766883 0.684774 0.284219
N1    N     N_2   0.950330 0.457960 0.469510 -0.028508
N2    N     N_2   0.049670 0.542040 0.530490 -0.028507
O1    O     O_R   0.389250 0.738570 0.507480 -0.611973
O2    O     O_R   0.610750 0.261430 0.492520 -0.611973
O3    O     O_R   0.678390 0.711630 0.487940 -0.657653
O4    O     O_R   0.321610 0.288370 0.512060 -0.657653
O5    O     O_R   0.355420 0.513450 0.675320 -0.606749
O6    O     O_R   0.644580 0.486550 0.324680 -0.606750
O7    O     O_R   0.644570 0.486510 0.655780 -0.632872
O8    O     O_R   0.355430 0.513490 0.344220 -0.632873
Zn1   Zn    Zn3+2 0.306940 0.517990 0.513050 0.930317
Zn2   Zn    Zn3+2 0.693060 0.482010 0.486950 0.930316

loop_
_geom_bond_atom_site_label_1
_geom_bond_atom_site_label_2
_ccdc_geom_bond_type
C9    O8    A    
C5    H4    S    
C5    N2    S    
C11   C13   T    
C3    H9    S    
C2    C7    S    
O3    Zn2   S    
C3    N1    S    
C7    O2    A    
O4    Zn1   S    
C7    O4    A    
C4    H7    S    
C9    C11   S    
C3    H10   S    
C6    H12   S    
C10   C12   T    
N2    Zn1   S    
C5    C6    S    
C1    O1    A    
O8    Zn1   S    
C8    O5    A    
C9    O6    A    
C2    C14   D    
C6    H11   S    
C5    H3    S    
N1    Zn2   S    
C6    H2    S    
C3    C4    S    
C4    H6    S    
C1    O3    A    
O7    Zn2   S    
C4    H8    S    
C12   C13   S    
O2    Zn2   S    
C8    C10   S    
O1    Zn1   S    
N1    N2    D    
C14   H1    S    
C1    C14   S    
C2    H5    S    
O6    Zn2   S    
O5    Zn1   S    
C8    O7    A    
