data_mof_unit_40018.cif
_audit_creation_date              2012-12-10T20:30:14-0500
_audit_creation_method            fapswitch 2.2
_symmetry_space_group_name_H-M    P1
_symmetry_Int_Tables_number       1
_space_group_crystal_system       triclinic
_cell_length_a                    9.945364
_cell_length_b                    10.625072
_cell_length_c                    13.185042
_cell_angle_alpha                 93.017897
_cell_angle_beta                  72.39914
_cell_angle_gamma                 88.477204
_cell_volume                      1324.87790008

loop_
_atom_site_label
_atom_site_type_symbol
_atom_type_description
_atom_site_fract_x
_atom_site_fract_y
_atom_site_fract_z
_atom_type_partial_charge
C1    C     C_R   0.504796 0.736464 0.483356 1.020388
C2    C     C_R   0.392320 0.418132 0.802750 -0.267480
C3    C     C_R   0.389387 0.933214 0.459704 -0.023555
C4    C     C_R   0.427453 0.471723 0.696844 1.005362
C5    C     C_R   0.513463 0.862965 0.448640 -0.211884
C6    C     C_R   0.642220 0.921698 0.421853 0.366568
C7    C     C_R   0.642691 0.050221 0.448003 0.362673
C8    C     C_R   0.513415 0.122640 0.476285 -0.301832
C9    C     C_R   0.390981 0.063460 0.471695 0.018776
C10   C     C_3   0.307951 0.084293 0.395701 0.221156
C11   C     C_3   0.313632 0.941999 0.376501 0.147585
C12   C     C_R   0.449180 0.425286 0.969791 -0.049503
C13   C     C_R   0.893057 0.548362 0.586842 0.062526
C14   C     C_R   0.963500 0.436821 0.420171 -0.017866
C15   C     C_R   0.107371 0.442179 0.418859 0.060152
C16   C     C_R   0.504026 0.258454 0.494859 0.894599
C17   C     C_R   0.033694 0.543220 0.588811 0.102060
C18   C     C_3   0.013630 0.667051 0.653266 -0.407850
C19   C     C_3   0.864076 0.678195 0.642698 0.184805
C20   C     C_R   0.576545 0.498403 0.297021 0.866244
C21   C     C_R   0.792426 0.515314 0.010921 0.006465
C22   C     C_R   0.619487 0.491044 0.181648 -0.111812
C23   C     C_R   0.494395 0.410678 0.857479 -0.006083
C24   C     C_R   0.257013 0.376996 0.853805 0.245003
C25   C     C_R   0.213196 0.374555 0.965030 0.382568
C26   C     C_R   0.301056 0.421692 0.022511 0.325838
C27   C     C_2   0.378681 0.156432 0.299415 0.541639
C28   C     C_2   0.931457 0.354650 0.337368 0.641123
C29   C     C_2   0.110940 0.766432 0.603432 0.569572
C30   C     C_2   0.843474 0.780073 0.573023 0.577514
C31   C     C_2   0.931727 0.561137 0.950349 0.544505
C32   C     C_R   0.554162 0.446950 0.021469 0.157506
C33   C     C_R   0.696955 0.462879 0.960594 0.075437
C34   C     C_R   0.739613 0.420269 0.853059 -0.134250
C35   C     C_R   0.639501 0.389939 0.803250 -0.011142
C36   C     C_R   0.524218 0.446574 0.131259 -0.141726
C37   C     C_R   0.750719 0.530239 0.122219 -0.063676
Cl1   Cl    Cl    0.805081 0.111167 0.448490 -0.455917
Cl2   Cl    Cl    0.134920 0.146736 0.467342 -0.458016
Cl3   Cl    Cl    0.418734 0.878041 0.246724 -0.470365
Cl4   Cl    Cl    0.729791 0.686390 0.768841 -0.497205
Cl5   Cl    Cl    0.148077 0.319986 0.779210 -0.510565
Cl6   Cl    Cl    0.215173 0.503775 0.146366 -0.506239
Cl7   Cl    Cl    0.048400 0.315480 0.032616 -0.438109
Cl8   Cl    Cl    0.797743 0.838073 0.342705 -0.485946
H1    H     H_    0.821597 0.569164 0.162855 0.228000
H2    H     H_    0.142146 0.771326 0.518203 0.019848
H3    H     H_    0.912285 0.779412 0.491823 0.057979
H4    H     H_    0.978003 0.534951 0.867058 0.061775
H5    H     H_    0.207276 0.903408 0.399217 0.176757
H6    H     H_    0.191025 0.396237 0.353870 0.203063
H7    H     H_    0.014430 0.654555 0.735661 0.226782
H8    H     H_    0.849259 0.411189 0.805777 0.177440
H9    H     H_    0.429218 0.406311 0.178576 0.207307
H10   H     H_    0.677106 0.353512 0.720928 0.187010
H11   H     H_    0.483466 0.191518 0.287269 -0.006718
H12   H     H_    0.824807 0.335571 0.341009 0.112520
N1    N     N_R   0.856940 0.500860 0.500710 -0.179435
N2    N     N_R   0.142580 0.500820 0.500710 -0.136606
O1    O     O_R   0.385310 0.683210 0.499990 -0.623927
O2    O     O_2   0.025751 0.298330 0.266745 -0.438758
O3    O     O_2   0.153874 0.841528 0.658470 -0.470428
O4    O     O_2   0.754925 0.866059 0.608124 -0.459208
O5    O     O_2   0.997607 0.629360 0.993840 -0.480727
O6    O     O_R   0.614650 0.683240 0.500000 -0.581168
O7    O     O_R   0.328390 0.499940 0.653610 -0.564249
O8    O     O_R   0.557730 0.499980 0.653620 -0.599947
O9    O     O_R   0.385350 0.316760 0.500000 -0.589237
O10   O     O_R   0.614690 0.316790 0.500010 -0.622008
O11   O     O_R   0.442270 0.500020 0.346380 -0.623255
O12   O     O_R   0.671610 0.500060 0.346390 -0.662450
O13   O     O_2   0.319341 0.173227 0.232316 -0.455654
Zn1   Zn    Zn3+2 0.346870 0.499980 0.499990 1.024538
Zn2   Zn    Zn3+2 0.653130 0.500020 0.500010 1.001718

loop_
_geom_bond_atom_site_label_1
_geom_bond_atom_site_label_2
_ccdc_geom_bond_type
C10   C27   S    
C6    Cl8   S    
C24   Cl5   S    
C18   H7    S    
C7    C8    A    
C28   H12   S    
C21   C31   S    
C12   C23   A    
C29   H2    S    
C1    C5    S    
C32   C36   A    
C30   H3    S    
C18   C19   S    
C5    C6    A    
C21   C33   A    
O1    Zn1   S    
C34   C35   A    
C8    C9    A    
C1    O6    A    
C20   O12   A    
C16   O9    A    
C15   H6    S    
C9    C10   S    
N2    Zn1   S    
C28   O2    D    
C8    C16   S    
C30   O4    D    
C12   C32   A    
C20   O11   A    
C31   H4    S    
C25   Cl7   S    
C26   Cl6   S    
C33   C34   A    
C14   N1    A    
C13   C19   S    
C35   H10   S    
C36   H9    S    
C24   C25   A    
C1    O1    A    
O8    Zn2   S    
C27   H11   S    
C13   N1    A    
C25   C26   A    
C22   C37   A    
O6    Zn2   S    
C12   C26   A    
C10   Cl2   S    
C2    C4    S    
C3    C9    A    
C4    O8    A    
O11   Zn1   S    
C17   C18   S    
O10   Zn2   S    
C18   C29   S    
C17   N2    A    
C20   C22   S    
C23   C35   A    
C2    C24   A    
N1    Zn2   S    
C29   O3    D    
C15   N2    A    
C31   O5    D    
C16   O10   A    
C3    C5    A    
O12   Zn2   S    
C6    C7    A    
C22   C36   A    
C13   C17   A    
C32   C33   A    
O9    Zn1   S    
C11   H5    S    
C4    O7    A    
O7    Zn1   S    
C7    Cl1   S    
C11   Cl3   S    
C3    C11   S    
C10   C11   S    
C21   C37   A    
C34   H8    S    
C2    C23   A    
C14   C15   A    
C14   C28   S    
C37   H1    S    
C19   C30   S    
C27   O13   D    
C19   Cl4   S    
