data_mof_unit_51482.cif
_audit_creation_date              2013-03-05T16:03:50-0500
_audit_creation_method            fapswitch 2.2
_symmetry_space_group_name_H-M    P1
_symmetry_Int_Tables_number       1
_space_group_crystal_system       triclinic
_cell_length_a                    6.931642
_cell_length_b                    17.743333
_cell_length_c                    19.474278
_cell_angle_alpha                 109.041523
_cell_angle_beta                  90.641476
_cell_angle_gamma                 90.242951
_cell_volume                      2263.87214879

loop_
_atom_site_label
_atom_site_type_symbol
_atom_site_description
_atom_site_fract_x
_atom_site_fract_y
_atom_site_fract_z
_atom_type_partial_charge
O1    O     O_R   0.505700 0.440210 0.561730 -0.583638
O2    O     O_R   0.169350 0.406300 0.412660 -0.591290
O3    O     O_R   0.005650 0.559790 0.438270 -0.602562
C1    C     C_R   0.337875 0.382824 0.385161 0.931232
O4    O     O_R   0.175560 0.430650 0.559600 -0.607853
O5    O     O_R   0.011900 0.584320 0.586250 -0.592266
C2    C     C_R   0.345789 0.414456 0.579944 1.013252
O6    O     O_R   0.499450 0.415680 0.413750 -0.587130
O7    O     O_3   0.341370 0.550390 0.508570 -0.280953
V1    V     V_3+5 0.063940 0.490650 0.498410 1.148496
O8    O     O_R   0.682570 0.593700 0.587340 -0.598248
C3    C     C_R   0.851638 0.616740 0.615348 0.935583
O9    O     O_R   0.676370 0.569350 0.440400 -0.597501
C4    C     C_R   0.844847 0.584534 0.418947 0.919644
V2    V     V_3+5 0.564750 0.509350 0.501590 1.159859
O10   O     O_3   0.837190 0.449610 0.491430 -0.270372
C5    C     C_R   0.042396 0.715035 0.314627 -0.158048
H1    H     H_    0.178959 0.743158 0.310925 0.098584
C6    C     C_R   0.030693 0.669564 0.361248 -0.163963
H2    H     H_    0.159102 0.663206 0.391033 0.128580
C7    C     C_R   0.855440 0.633722 0.370087 -0.125090
C8    C     C_R   0.692277 0.644166 0.330727 -0.155423
H3    H     H_    0.555524 0.616677 0.335586 0.124185
C9    C     C_R   0.704558 0.688733 0.283250 -0.139503
H4    H     H_    0.576767 0.693454 0.252520 0.106761
C10   C     C_R   0.879786 0.725135 0.274560 0.118315
C11   C     C_R   0.733556 0.817704 0.213572 -0.144469
H5    H     H_    0.600127 0.818546 0.242136 0.094054
C12   C     C_R   0.745044 0.862903 0.166752 -0.087117
H6    H     H_    0.619350 0.896068 0.160147 0.121265
C13   C     C_R   0.916811 0.866390 0.130012 -0.146168
C14   C     C_R   0.076622 0.822984 0.141051 -0.118389
H7    H     H_    0.210888 0.823971 0.113438 0.170403
C15   C     C_R   0.064360 0.776788 0.187164 -0.132638
H8    H     H_    0.189279 0.742760 0.192741 0.113927
C16   C     C_R   0.892715 0.773613 0.224422 0.098224
C17   C     C_R   0.126255 0.882668 0.754854 -0.285649
C18   C     C_R   0.225342 0.885519 0.693801 0.688838
C19   C     C_R   0.205733 0.821089 0.628955 -0.317090
C20   C     C_R   0.085135 0.756909 0.625380 -0.211141
C21   C     C_R   0.986543 0.752482 0.687289 0.133911
C22   C     C_R   0.007538 0.816878 0.753475 0.041575
C23   C     C_R   0.861969 0.687137 0.683266 -0.294756
C24   C     C_R   0.750402 0.689159 0.745042 0.098524
C25   C     C_R   0.781669 0.750761 0.812278 0.075001
C26   C     C_R   0.906715 0.815460 0.816189 -0.239496
C27   C     C_R   0.608223 0.630716 0.742191 -0.195721
C28   C     C_R   0.507045 0.630697 0.803555 -0.189028
C29   C     C_R   0.548145 0.687283 0.870965 0.389521
C30   C     C_R   0.687255 0.746008 0.875088 -0.264708
H9    H     H_    0.142495 0.934152 0.803002 0.150709
H10   H     H_    0.282591 0.819864 0.580597 0.133410
H11   H     H_    0.068612 0.711744 0.572767 0.150101
H12   H     H_    0.569525 0.584315 0.692895 0.205485
H13   H     H_    0.398233 0.585117 0.798281 0.188934
H14   H     H_    0.721506 0.787536 0.928222 0.168507
H15   H     H_    0.289820 0.481829 0.179632 0.155569
C31   C     C_R   0.381218 0.219619 0.383205 -0.165401
C32   C     C_R   0.410543 0.142542 0.384736 -0.121934
C33   C     C_R   0.441356 0.080344 0.320586 -0.106042
C34   C     C_R   0.444330 0.094801 0.254425 -0.179445
C35   C     C_R   0.416451 0.172521 0.251050 0.110542
C36   C     C_R   0.382833 0.236165 0.316923 0.129518
C37   C     C_R   0.424383 0.187245 0.183631 -0.311582
C38   C     C_R   0.400940 0.266875 0.182717 -0.052588
C39   C     C_R   0.354103 0.329168 0.248375 0.074340
C40   C     C_R   0.350374 0.314490 0.315692 -0.274521
C41   C     C_R   0.426327 0.287504 0.118408 0.565021
C42   C     C_R   0.379709 0.364045 0.117745 -0.243387
C43   C     C_R   0.322697 0.422619 0.180704 -0.186791
C44   C     C_R   0.313991 0.406208 0.245630 -0.175534
H16   H     H_    0.356515 0.265971 0.434419 0.087090
H17   H     H_    0.409250 0.131027 0.436000 0.120407
H18   H     H_    0.463953 0.020551 0.322073 0.110187
H19   H     H_    0.470834 0.044513 0.206174 0.092579
H20   H     H_    0.393515 0.378630 0.068177 0.156892
H21   H     H_    0.273526 0.454545 0.293586 0.121681
C45   C     C_R   0.472973 0.338127 0.735332 -0.345713
H22   H     H_    0.546571 0.361197 0.787403 0.171343
C46   C     C_R   0.476878 0.383995 0.688927 0.609645
C47   C     C_R   0.360302 0.362201 0.625860 -0.314677
C48   C     C_R   0.269013 0.287253 0.603867 -0.477344
H23   H     H_    0.194034 0.268643 0.551993 0.153566
C49   C     C_R   0.285016 0.235349 0.646123 0.744023
C50   C     C_R   0.378595 0.263738 0.715213 -0.020181
C51   C     C_R   0.220148 0.175479 0.781124 0.426875
C52   C     C_R   0.237227 0.131293 0.829335 -0.278489
H24   H     H_    0.111447 0.100028 0.839168 0.166226
C53   C     C_R   0.412027 0.128808 0.866089 -0.162520
C54   C     C_R   0.570617 0.171290 0.853622 -0.082591
H25   H     H_    0.707243 0.171355 0.881085 0.130688
C55   C     C_R   0.554894 0.215331 0.806136 -0.120564
H26   H     H_    0.678619 0.249105 0.800265 0.200765
C56   C     C_R   0.383257 0.216752 0.767290 -0.016157
O11   O     O_R   0.273230 0.084330 0.086440 -0.601435
O12   O     O_R   0.596660 0.069390 0.940470 -0.600557
O13   O     O_R   0.760270 0.915710 0.913690 -0.591219
C57   C     C_R   0.426650 0.082714 0.917560 1.046993
O14   O     O_R   0.603330 0.093680 0.087390 -0.586028
O15   O     O_R   0.766990 0.940160 0.061660 -0.596752
C58   C     C_R   0.434922 0.118013 0.114518 1.053170
O16   O     O_R   0.266510 0.059870 0.938470 -0.613039
O17   O     O_3   0.431050 0.949630 0.991510 -0.265513
V3    V     V_3+5 0.708490 0.009340 0.001580 1.174267
O18   O     O_R   0.096270 0.930570 0.059390 -0.593730
C59   C     C_R   0.927813 0.915442 0.080982 0.934071
O19   O     O_R   0.089600 0.906290 0.912460 -0.593611
C60   C     C_R   0.920047 0.884109 0.884501 0.947916
V4    V     V_3+5 0.207670 0.990600 0.998190 1.183768
O20   O     O_3   0.935250 0.050360 0.008480 -0.288449
O21   O     O_3   0.348784 0.950147 0.702470 -0.636303
C61   C     C_3   0.350824 0.974706 0.640475 -0.138647
H27   H     H_    0.203116 0.976616 0.617961 0.138027
H28   H     H_    0.447333 0.936129 0.598541 0.117285
H29   H     H_    0.411476 0.036027 0.656583 0.209784
O22   O     O_3   0.504556 0.234683 0.056521 -0.661786
C62   C     C_3   0.702809 0.253166 0.055565 -0.204082
H30   H     H_    0.778629 0.253590 0.106470 0.138486
H31   H     H_    0.724139 0.311186 0.046177 0.132372
H32   H     H_    0.771642 0.206661 0.010216 0.178386
O23   O     O_3   0.585829 0.453104 0.707777 -0.662550
C63   C     C_3   0.782846 0.432882 0.698068 -0.147909
H33   H     H_    0.868384 0.488171 0.706193 0.149882
H34   H     H_    0.811185 0.392350 0.641993 0.143226
H35   H     H_    0.834835 0.405716 0.738808 0.166471
O24   O     O_3   0.225451 0.155654 0.620842 -0.648685
C64   C     C_3   0.066728 0.141512 0.572101 -0.166613
H36   H     H_    0.115349 0.136642 0.516689 0.107520
H37   H     H_    0.953058 0.187588 0.591059 0.166357
H38   H     H_    0.000286 0.083398 0.568684 0.172734
N1    N     N_R   0.034124 0.181279 0.750372 0.226764
O25   O     O_R   0.978081 0.248413 0.743560 -0.490983
O26   O     O_R   0.916137 0.120511 0.732335 -0.430888
N2    N     N_R   0.448179 0.685606 0.934952 0.237306
O27   O     O_R   0.318012 0.631149 0.930807 -0.402840
O28   O     O_R   0.484879 0.738911 0.997853 -0.421334

loop_
_geom_bond_atom_site_label_1
_geom_bond_atom_site_label_2
_geom_bond_distance
_ccdc_geom_bond_type
C28   H13   1.082768 S    
C52   H24   1.083286 S    
O24   C64   1.411830 S    
C11   C12   1.399673 A    
O19   V4    2.006077 S    
C21   C22   1.421769 A    
C6    H2    1.083244 S    
C1    O6    1.293404 A    
C61   H28   1.110987 S    
C47   C48   1.402651 A    
C25   C26   1.417036 A    
C34   H19   1.082140 S    
C35   C36   1.427885 A    
C5    C10   1.408793 A    
C4    C7    1.488403 S    
C6    C7    1.406889 A    
C17   C18   1.394698 A    
C9    C10   1.410812 A    
C3    C23   1.494611 S    
C62   H31   1.112303 S    
O5    C3    1.301109 A    
C18   C19   1.404615 A    
C17   H9    1.078968 S    
C45   C46   1.400007 A    
C51   N1    1.433867 S    
V2    O10   2.148833 S    
O15   V3    1.992685 S    
O22   C62   1.413195 S    
C42   H20   1.082958 S    
C15   H8    1.082226 S    
C22   C26   1.421153 A    
C17   C22   1.418264 A    
C35   C37   1.421419 A    
C51   C56   1.419760 A    
C29   N2    1.441234 S    
O13   C60   1.294407 A    
O8    V2    2.005959 S    
C13   C14   1.405852 A    
C41   C42   1.401448 A    
C26   C60   1.483557 S    
O19   C60   1.294047 A    
C43   C44   1.388857 A    
O1    V2    1.997040 S    
H15   C43   1.082752 S    
O7    V1    2.167526 S    
C32   H17   1.082477 S    
C24   C27   1.414994 A    
C39   C40   1.417930 A    
C32   C33   1.390174 A    
O1    C2    1.293660 A    
O9    C4    1.301020 A    
C21   C23   1.423645 A    
C42   C43   1.386520 A    
C61   H27   1.114269 S    
C46   O23   1.378751 S    
C49   O24   1.395932 S    
C37   C58   1.499989 S    
C36   C40   1.416633 A    
C27   C28   1.392480 A    
C9    H4    1.082246 S    
O11   V4    2.009250 S    
C62   H32   1.107132 S    
C53   C54   1.397824 A    
C19   C20   1.392589 A    
O4    C2    1.303281 A    
C45   H22   1.082540 S    
N2    O28   1.301843 A    
C31   C32   1.393328 A    
C57   O16   1.294715 A    
C30   H14   1.079600 S    
O12   C57   1.305025 A    
C33   C34   1.393731 A    
C14   C15   1.402488 A    
O2    C1    1.302863 A    
C23   C24   1.428134 A    
C64   H37   1.113786 S    
C12   H6    1.083120 S    
C50   C56   1.508581 S    
C54   C55   1.395593 A    
C39   C44   1.413952 A    
C38   C41   1.427184 A    
C55   C56   1.407451 A    
C5    H1    1.082239 S    
C49   C50   1.421343 A    
O23   C63   1.412499 S    
O3    C4    1.295886 A    
C41   O22   1.380902 S    
C27   H12   1.071448 S    
C45   C50   1.404684 A    
C10   C16   1.500201 S    
C28   C29   1.393458 A    
C2    C47   1.486292 S    
C48   H23   1.081115 S    
O6    V2    2.003637 S    
C48   C49   1.425127 A    
O9    V2    1.998353 S    
C13   C59   1.489400 S    
C8    C9    1.402015 A    
C63   H34   1.114395 S    
C64   H36   1.110425 S    
O2    V1    1.992049 S    
C44   H21   1.082454 S    
C24   C25   1.419120 A    
C31   C36   1.414227 A    
O18   V4    1.998295 S    
C20   C21   1.416539 A    
O14   V3    1.992005 S    
O21   C61   1.411127 S    
O14   C58   1.302858 A    
C51   C52   1.410221 A    
C46   C47   1.405766 A    
N1    O26   1.301447 A    
N1    O25   1.301262 A    
O5    V1    1.995600 S    
C1    C40   1.497017 S    
O8    C3    1.293891 A    
C20   H11   1.079797 S    
N2    O27   1.301650 A    
C11   C16   1.408458 A    
O18   C59   1.301668 A    
O15   C59   1.295792 A    
C53   C57   1.489054 S    
O17   V4    1.701539 S    
C14   H7    1.082985 S    
C63   H35   1.111892 S    
O12   V3    1.991520 S    
O7    V2    1.701743 S    
C64   H38   1.109192 S    
O4    V1    1.991508 S    
C12   C13   1.407370 A    
O3    V1    1.992740 S    
V1    O10   1.714658 S    
C62   H30   1.114649 S    
C37   C38   1.428748 A    
V3    O20   1.714691 S    
C31   H16   1.081779 S    
C54   H25   1.082206 S    
C25   C30   1.419973 A    
C33   H18   1.082732 S    
C55   H26   1.072493 S    
C5    C6    1.400322 A    
C19   H10   1.081277 S    
C15   C16   1.410894 A    
C38   C39   1.432537 A    
C34   C35   1.415791 A    
O13   V3    1.995433 S    
C29   C30   1.398979 A    
V4    O20   2.148728 S    
O17   V3    2.167482 S    
C63   H33   1.109337 S    
C52   C53   1.408537 A    
C8    H3    1.083336 S    
O16   V4    1.992144 S    
C18   O21   1.392027 S    
C7    C8    1.405729 A    
C61   H29   1.108814 S    
O11   C58   1.296038 A    
C11   H5    1.082257 S    
