data_mof_unit_24505.cif
_audit_creation_date              2013-03-05T15:47:46-0500
_audit_creation_method            fapswitch 2.2
_symmetry_space_group_name_H-M    P1
_symmetry_Int_Tables_number       1
_space_group_crystal_system       triclinic
_cell_length_a                    21.690771
_cell_length_b                    7.210169
_cell_length_c                    18.566261
_cell_angle_alpha                 90.123807
_cell_angle_beta                  95.796322
_cell_angle_gamma                 90.137961
_cell_volume                      2888.79150843

loop_
_atom_site_label
_atom_site_type_symbol
_atom_site_description
_atom_site_fract_x
_atom_site_fract_y
_atom_site_fract_z
_atom_type_partial_charge
O1    O     O_R   0.449650 0.506500 0.414480 -0.582867
O2    O     O_R   0.550350 0.006500 0.585520 -0.582926
O3    O     O_R   0.432010 0.173150 0.560250 -0.586003
O4    O     O_R   0.567990 0.673150 0.439750 -0.586020
C1    C     C_R   0.415560 0.344651 0.580280 0.915873
C2    C     C_R   0.584412 0.844711 0.419699 0.915042
O5    O     O_R   0.442320 0.176650 0.413480 -0.578251
O6    O     O_R   0.557680 0.676650 0.586520 -0.578412
O7    O     O_R   0.560730 0.008380 0.437700 -0.596444
O8    O     O_R   0.439270 0.508380 0.562300 -0.596193
C3    C     C_R   0.428546 0.344957 0.387663 0.901392
C4    C     C_R   0.571418 0.845471 0.612352 0.902364
O9    O     O_3   0.538840 0.339860 0.508120 -0.279505
O10   O     O_3   0.461160 0.839860 0.491880 -0.278916
V1    V     V_3+5 0.492800 0.064220 0.498490 1.174378
V2    V     V_3+5 0.507200 0.564220 0.501510 1.173277
C5    C     C_R   0.873217 0.910137 0.689970 -0.044385
C6    C     C_R   0.130254 0.499536 0.308633 -0.054210
H1    H     H_    0.960669 0.902395 0.754329 0.129865
H2    H     H_    0.044596 0.545241 0.243721 0.131436
H3    H     H_    0.895653 0.896115 0.640819 0.172960
H4    H     H_    0.109083 0.534261 0.357142 0.176127
C7    C     C_R   0.885448 0.936269 0.820479 -0.237685
C8    C     C_R   0.114836 0.444840 0.179559 -0.237012
C9    C     C_R   0.585761 0.814512 0.744664 -0.169173
C10   C     C_R   0.415673 0.342616 0.254705 -0.167461
C11   C     C_R   0.622310 0.801701 0.810306 -0.098985
C12   C     C_R   0.380854 0.365136 0.188338 -0.106362
C13   C     C_R   0.685992 0.831987 0.813978 -0.060334
C14   C     C_R   0.317010 0.391364 0.184771 -0.065085
C15   C     C_R   0.714960 0.884028 0.752104 0.109805
C16   C     C_R   0.285374 0.387639 0.247768 0.113049
C17   C     C_R   0.677665 0.884435 0.684012 0.056688
C18   C     C_R   0.322179 0.378694 0.316078 0.053683
C19   C     C_R   0.780546 0.918170 0.754858 -0.079195
C20   C     C_R   0.219175 0.407968 0.245262 -0.078389
C21   C     C_R   0.808241 0.918358 0.688388 -0.037185
C22   C     C_R   0.193503 0.453990 0.310851 -0.036539
C23   C     C_R   0.770626 0.920901 0.621468 0.353659
C24   C     C_R   0.231104 0.450240 0.377781 0.360775
C25   C     C_R   0.706285 0.908011 0.620285 -0.314629
C26   C     C_R   0.293666 0.403953 0.379773 -0.306499
C27   C     C_R   0.820212 0.947916 0.820831 0.300151
C28   C     C_R   0.177291 0.386406 0.180413 0.305854
C29   C     C_R   0.910891 0.912526 0.755124 -0.231432
C30   C     C_R   0.092544 0.503310 0.243595 -0.222641
C31   C     C_R   0.612539 0.852932 0.680967 -0.133430
C32   C     C_R   0.387521 0.352854 0.319022 -0.131360
H5    H     H_    0.536439 0.787926 0.743108 0.110070
H6    H     H_    0.465363 0.324344 0.256076 0.108412
H7    H     H_    0.711922 0.803742 0.865301 0.163566
H8    H     H_    0.294024 0.423954 0.132229 0.161587
H9    H     H_    0.601306 0.763485 0.858651 0.130599
H10   H     H_    0.403752 0.366414 0.139155 0.128782
H11   H     H_    0.678751 0.911674 0.568281 0.146138
H12   H     H_    0.320815 0.399741 0.432024 0.142350
C33   C     C_R   0.645987 0.709607 0.324277 -0.232048
C34   C     C_R   0.353907 0.209880 0.675664 -0.233293
C35   C     C_R   0.634955 0.856656 0.371304 -0.126443
C36   C     C_R   0.364973 0.356476 0.628614 -0.135062
C37   C     C_R   0.671337 0.018875 0.370406 -0.164817
C38   C     C_R   0.328600 0.518213 0.629451 -0.162186
C39   C     C_R   0.717752 0.035302 0.323218 0.144629
C40   C     C_R   0.282190 0.534668 0.676639 0.142941
C41   C     C_R   0.727612 0.888786 0.275302 0.039164
C42   C     C_R   0.272312 0.388659 0.724600 0.036129
C43   C     C_R   0.691564 0.725465 0.275810 0.156659
C44   C     C_R   0.308327 0.225775 0.724121 0.157076
C45   C     C_R   0.754324 0.196197 0.322830 -0.156321
C46   C     C_R   0.245636 0.695089 0.676982 -0.146746
C47   C     C_R   0.799780 0.212923 0.274743 -0.193364
C48   C     C_R   0.200204 0.711894 0.725093 -0.198793
C49   C     C_R   0.809434 0.069341 0.225982 0.143554
C50   C     C_R   0.190547 0.568857 0.773916 0.145288
C51   C     C_R   0.773451 0.905898 0.226600 0.038072
C52   C     C_R   0.226490 0.405839 0.773315 0.037757
C53   C     C_R   0.783265 0.759406 0.178653 0.129203
C54   C     C_R   0.216650 0.259824 0.821287 0.123372
C55   C     C_R   0.746852 0.598236 0.179224 -0.202319
C56   C     C_R   0.253012 0.099070 0.820727 -0.199617
C57   C     C_R   0.701359 0.581604 0.227243 -0.215860
C58   C     C_R   0.298496 0.082393 0.772708 -0.216863
C59   C     C_R   0.854711 0.085656 0.177114 -0.241076
C60   C     C_R   0.145309 0.585282 0.822832 -0.248347
C61   C     C_R   0.865523 0.938833 0.129876 -0.119164
C62   C     C_R   0.134495 0.438941 0.870125 -0.133354
C63   C     C_R   0.829397 0.776222 0.131141 -0.181234
C64   C     C_R   0.170541 0.276679 0.868814 -0.170026
H13   H     H_    0.618104 0.584576 0.324104 0.132351
H14   H     H_    0.381773 0.085215 0.675872 0.133854
H15   H     H_    0.663791 0.132484 0.406823 0.142651
H16   H     H_    0.336158 0.631439 0.592997 0.146358
H17   H     H_    0.747514 0.309870 0.359455 0.158644
H18   H     H_    0.252445 0.808335 0.640302 0.161141
H19   H     H_    0.827236 0.338788 0.275496 0.149916
H20   H     H_    0.172770 0.837400 0.724312 0.150510
H21   H     H_    0.882483 0.210868 0.177050 0.133471
H22   H     H_    0.117565 0.710154 0.822886 0.134849
H23   H     H_    0.836928 0.662574 0.094734 0.155020
H24   H     H_    0.162972 0.163321 0.905205 0.166326
H25   H     H_    0.753717 0.484442 0.142675 0.153019
H26   H     H_    0.246119 0.985646 0.857295 0.150880
H27   H     H_    0.673915 0.455716 0.226505 0.139571
H28   H     H_    0.325907 0.956843 0.773461 0.138651
O11   O     O_R   0.060820 0.290050 0.937800 -0.594132
O12   O     O_R   0.939180 0.790050 0.062200 -0.603831
O13   O     O_R   0.057690 0.616620 0.086540 -0.584148
O14   O     O_R   0.942310 0.116620 0.913460 -0.578871
C65   C     C_R   0.071693 0.449069 0.112406 1.005704
C66   C     C_R   0.928365 0.948119 0.887618 1.009749
O15   O     O_R   0.068010 0.619890 0.939770 -0.597125
O16   O     O_R   0.931990 0.119890 0.060230 -0.589940
O17   O     O_R   0.949640 0.787940 0.914460 -0.587988
O18   O     O_R   0.050360 0.287940 0.085540 -0.575082
C67   C     C_R   0.084396 0.451083 0.919121 0.994323
C68   C     C_R   0.915648 0.951033 0.080919 0.998044
O19   O     O_3   0.961210 0.453080 0.991940 -0.286135
O20   O     O_3   0.038790 0.953080 0.008060 -0.277442
V3    V     V_3+5 0.007200 0.728820 0.001500 1.206877
V4    V     V_3+5 0.992800 0.228820 0.998500 1.221297
N1    N     N_R   0.796824 0.941082 0.553798 0.231158
O21   O     O_R   0.774348 0.845968 0.497480 -0.400444
O22   O     O_R   0.835285 0.076045 0.545040 -0.391720
N2    N     N_R   0.206710 0.494033 0.444855 0.228397
O23   O     O_R   0.219111 0.386886 0.500724 -0.393062
O24   O     O_R   0.183407 0.657380 0.454299 -0.398085
N3    N     N_R   0.795721 0.013367 0.885280 0.211601
O25   O     O_R   0.811681 0.935538 0.947511 -0.459353
O26   O     O_R   0.758325 0.154642 0.882046 -0.394124
N4    N     N_R   0.194995 0.285509 0.119013 0.212663
O27   O     O_R   0.218631 0.120353 0.127609 -0.391818
O28   O     O_R   0.185616 0.354827 0.054200 -0.460990

loop_
_geom_bond_atom_site_label_1
_geom_bond_atom_site_label_2
_geom_bond_distance
_ccdc_geom_bond_type
C42   C44   1.412575 A    
C39   C41   1.410194 A    
C7    C29   1.393188 A    
O12   V3    1.994650 S    
C11   C13   1.392776 A    
C49   C51   1.412618 A    
O14   V4    1.996907 S    
O1    C3    1.327773 A    
O2    C4    1.328202 A    
C2    O7    1.343152 A    
C23   C25   1.396445 A    
O5    C3    1.329277 A    
C33   H13   1.084186 S    
C16   C20   1.439785 A    
O15   V3    1.994151 S    
C46   H18   1.083710 S    
C60   C62   1.408453 A    
N2    O24   1.301235 A    
C45   H17   1.083706 S    
C10   H6    1.083907 S    
C50   C60   1.407760 A    
C57   H27   1.083572 S    
C62   C64   1.410246 A    
C33   C35   1.408237 A    
C47   H19   1.083549 S    
C28   N4    1.436118 S    
C7    C27   1.418394 A    
C36   C38   1.410482 A    
C45   C47   1.400536 A    
O20   V3    1.753807 S    
C25   H11   1.083199 S    
C38   C40   1.404745 A    
C26   H12   1.083339 S    
O17   V3    1.987462 S    
C39   C45   1.404234 A    
C41   C43   1.412539 A    
C18   C26   1.400537 A    
C15   C17   1.430425 A    
O11   V4    1.994155 S    
C40   C46   1.404262 A    
C19   C27   1.439327 A    
C9    C31   1.397155 A    
C10   C32   1.396919 A    
C53   C55   1.404155 A    
O6    V2    1.997066 S    
C22   C24   1.416200 A    
O13   C65   1.325571 A    
C3    C32   1.480109 S    
C33   C43   1.407027 A    
C4    C31   1.480304 S    
C6    C30   1.388752 A    
O13   V3    2.001802 S    
C63   H23   1.084243 S    
C61   C63   1.410184 A    
C24   N2    1.436216 S    
C35   C37   1.410453 A    
C17   C25   1.401022 A    
C48   C50   1.403751 A    
O19   V4    1.757331 S    
C27   N3    1.436614 S    
C55   C57   1.400182 A    
C12   H10   1.082708 S    
C5    H3    1.081368 S    
H1    C29   1.083954 S    
C5    C29   1.389811 A    
C56   H26   1.083698 S    
C62   C67   1.488564 S    
C40   C42   1.410170 A    
O4    V2    1.993645 S    
N4    O28   1.301091 A    
N3    O26   1.301359 A    
C51   C53   1.410206 A    
O6    C4    1.329404 A    
C42   C52   1.415250 A    
C37   C39   1.404713 A    
O1    V2    1.982302 S    
C5    C21   1.408110 A    
O2    V1    1.985028 S    
C34   H14   1.084185 S    
C66   O17   1.324289 A    
N1    O21   1.301392 A    
C64   H24   1.084262 S    
C50   C52   1.412659 A    
C65   O18   1.326991 A    
C56   C58   1.400157 A    
C59   C61   1.408398 A    
C43   C57   1.403513 A    
C17   C31   1.425698 A    
C15   C19   1.438945 A    
C20   C28   1.441087 A    
O4    C2    1.349914 A    
C18   C32   1.425535 A    
N3    O25   1.301011 A    
O16   C68   1.335258 A    
O3    V1    1.994194 S    
O16   V4    1.993602 S    
C13   H7    1.076532 S    
C54   C64   1.404293 A    
O18   V4    1.984673 S    
C7    C66   1.480700 S    
C14   H8    1.076435 S    
C1    C36   1.488472 S    
C19   C21   1.426061 A    
C6    H4    1.080663 S    
C2    C35   1.488444 S    
O11   C67   1.328375 A    
C61   C68   1.488472 S    
C8    C65   1.481814 S    
C52   C54   1.410169 A    
C24   C26   1.395115 A    
O3    C1    1.349669 A    
C23   N1    1.437779 S    
C46   C48   1.400588 A    
C11   H9    1.082685 S    
C9    C11   1.388528 A    
C10   C12   1.388725 A    
C41   C51   1.415231 A    
O12   C68   1.328727 A    
C60   H22   1.084205 S    
C12   C14   1.393076 A    
N4    O27   1.301362 A    
C6    C22   1.408007 A    
C44   C58   1.403497 A    
C1    O8    1.342760 A    
C13   C15   1.414862 A    
O8    V2    1.985451 S    
C20   C22   1.428005 A    
C14   C16   1.414838 A    
C34   C44   1.407037 A    
C8    C28   1.418244 A    
O5    V1    2.001969 S    
O14   C66   1.328200 A    
C54   C56   1.404147 A    
O7    V1    1.985899 S    
C9    H5    1.083913 S    
N1    O22   1.301347 A    
C48   H20   1.083548 S    
N2    O23   1.301239 A    
C53   C63   1.404380 A    
C21   C23   1.416005 A    
C59   H21   1.084184 S    
O9    V2    1.758443 S    
C47   C49   1.403723 A    
C58   H28   1.083571 S    
O10   V1    1.754911 S    
C55   H25   1.083703 S    
O15   C67   1.335026 A    
C38   H16   1.084233 S    
C34   C36   1.408201 A    
C49   C59   1.407640 A    
H2    C30   1.084006 S    
C37   H15   1.084214 S    
C16   C18   1.430411 A    
C8    C30   1.392819 A    
