data_mof_unit_53130.cif
_audit_creation_date              2012-12-10T19:27:30-0500
_audit_creation_method            fapswitch 2.2
_symmetry_space_group_name_H-M    P1
_symmetry_Int_Tables_number       1
_space_group_crystal_system       triclinic
_cell_length_a                    23.418227
_cell_length_b                    10.47896
_cell_length_c                    9.802594
_cell_angle_alpha                 89.268247
_cell_angle_beta                  90.445694
_cell_angle_gamma                 89.583989
_cell_volume                      2405.20935233

loop_
_atom_site_label
_atom_site_type_symbol
_atom_type_description
_atom_site_fract_x
_atom_site_fract_y
_atom_site_fract_z
_atom_type_partial_charge
C1    C     C_R   0.499519 0.258023 0.500788 1.015137
C2    C     C_R   0.500446 0.741987 0.499271 1.013090
C3    C     C_R   0.237863 0.502508 0.375642 -0.107205
C4    C     C_R   0.761418 0.508707 0.378495 -0.127501
C5    C     C_R   0.296992 0.504914 0.375470 -0.089875
C6    C     C_R   0.702331 0.508563 0.377899 -0.118024
C7    C     C_R   0.327322 0.496132 0.499052 -0.084354
C8    C     C_R   0.672714 0.500518 0.501333 -0.094867
C9    C     C_R   0.297898 0.483293 0.622589 -0.229050
C10   C     C_R   0.702900 0.492129 0.625405 -0.199286
C11   C     C_R   0.238495 0.479356 0.623492 0.401261
C12   C     C_R   0.762408 0.490583 0.626761 0.487444
C13   C     C_R   0.208621 0.490431 0.498746 0.156305
C14   C     C_R   0.791473 0.499952 0.501869 0.147224
C15   C     C_3   0.492154 0.038944 0.630251 -0.269869
C16   C     C_3   0.507753 0.961127 0.370157 -0.278862
C17   C     C_3   0.542681 0.956650 0.580213 0.232296
C18   C     C_3   0.457211 0.043382 0.420229 0.223245
C19   C     C_3   0.500537 0.876653 0.498199 -0.317809
C20   C     C_3   0.499372 0.123370 0.502166 -0.313965
C21   C     C_3   0.450447 0.957480 0.546706 0.412589
C22   C     C_3   0.549461 0.042537 0.453760 0.407716
C23   C     C_R   0.389526 0.499241 0.499605 0.951599
C24   C     C_R   0.610480 0.500302 0.500439 0.952420
C25   C     C_3   0.482409 0.391896 0.050596 -0.192670
C26   C     C_3   0.517592 0.608037 0.949415 -0.179659
C27   C     C_3   0.532910 0.412361 0.955717 0.514298
C28   C     C_3   0.467072 0.587537 0.044201 0.517937
C29   C     C_3   0.449199 0.480162 0.949982 -0.214561
C30   C     C_3   0.550808 0.519720 0.049967 -0.195753
C31   C     C_R   0.880535 0.609383 0.519215 0.617721
C32   C     C_R   0.119456 0.384064 0.468071 0.624661
C33   C     C_R   0.879568 0.386991 0.468939 0.647632
C34   C     C_R   0.120539 0.606796 0.516674 0.638473
C35   C     C_R   0.939731 0.382581 0.460743 -0.162023
C36   C     C_R   0.060303 0.612495 0.520398 -0.141386
C37   C     C_R   0.969924 0.496758 0.490390 -0.047287
C38   C     C_R   0.030100 0.498117 0.491485 -0.046890
C39   C     C_R   0.939973 0.610224 0.518679 -0.082693
C40   C     C_R   0.060025 0.384409 0.463862 -0.085667
C41   C     C_R   0.971100 0.270390 0.426211 0.446791
C42   C     C_R   0.028888 0.725760 0.551010 0.453468
C43   C     C_R   0.030577 0.273166 0.431466 -0.147289
C44   C     C_R   0.969401 0.722291 0.547666 -0.167705
H1    H     H_    0.467973 0.300642 0.097098 0.215038
H2    H     H_    0.532026 0.699286 0.902910 0.222840
H3    H     H_    0.406401 0.463985 0.904194 0.197581
H4    H     H_    0.593617 0.535833 0.095723 0.197086
H5    H     H_    0.054399 0.187431 0.408158 0.253497
H6    H     H_    0.945541 0.808081 0.570290 0.241737
H7    H     H_    0.214497 0.511037 0.280129 0.194360
H8    H     H_    0.784148 0.515173 0.282863 0.192386
H9    H     H_    0.318800 0.514573 0.278896 0.212787
H10   H     H_    0.679983 0.515031 0.280886 0.195305
H11   H     H_    0.321158 0.476068 0.718266 0.205455
H12   H     H_    0.680172 0.486121 0.720991 0.226055
H13   H     H_    0.484852 0.073155 0.735337 0.251879
H14   H     H_    0.515188 0.926851 0.265196 0.259912
N1    N     N_R   0.852181 0.498619 0.497863 -0.351683
N2    N     N_R   0.147892 0.493469 0.495669 -0.354469
N3    N     N_3   0.499960 0.500030 0.863290 -0.156998
N4    N     N_3   0.500040 0.499970 0.136710 -0.154584
O1    O     O_R   0.500000 0.313960 0.616610 -0.586463
O2    O     O_R   0.500000 0.686040 0.383390 -0.583380
O3    O     O_R   0.500030 0.313950 0.383350 -0.590232
O4    O     O_R   0.499970 0.686050 0.616650 -0.591920
O5    O     O_R   0.416140 0.499970 0.616650 -0.621989
O6    O     O_R   0.583860 0.500030 0.383350 -0.622545
O7    O     O_R   0.416170 0.499960 0.383400 -0.592672
O8    O     O_R   0.583830 0.500040 0.616600 -0.590954
O9    O     O_2   0.850933 0.718103 0.541721 -0.502855
O10   O     O_2   0.148982 0.275342 0.445044 -0.476553
O11   O     O_2   0.847949 0.281602 0.451901 -0.418372
O12   O     O_2   0.152325 0.712202 0.531765 -0.444600
Zn1   Zn    Zn3+2 0.499980 0.500010 0.655740 1.064208
Zn2   Zn    Zn3+2 0.500020 0.499990 0.344260 1.065857
S1    S     S_3+6 0.939821 0.125668 0.369382 0.120679
O13   O     O_2   0.900056 0.154067 0.251505 -0.227444
O14   O     O_2   0.984828 0.033040 0.323318 -0.251545
O15   O     O_3   0.903244 0.057908 0.497989 -0.441597
H15   H     H_    0.882072 0.986935 0.455656 0.403275
S2    S     S_3+6 0.060053 0.873162 0.600159 0.128877
O16   O     O_2   0.092533 0.928636 0.482012 -0.203898
O17   O     O_2   0.015004 0.967495 0.642035 -0.241718
O18   O     O_3   0.104683 0.847973 0.733243 -0.462470
H16   H     H_    0.124507 0.930231 0.745762 0.404586
S3    S     S_3+6 0.579849 0.284468 0.909278 0.086197
O19   O     O_2   0.550654 0.159508 0.936024 -0.278647
O20   O     O_2   0.596946 0.292018 0.762553 -0.249873
O21   O     O_3   0.639052 0.291838 0.006862 -0.497782
H17   H     H_    0.661737 0.215281 0.982971 0.420721
S4    S     S_3+6 0.420185 0.715681 0.089896 0.081855
O22   O     O_2   0.366940 0.708019 0.003876 -0.257058
O23   O     O_2   0.403769 0.710224 0.237180 -0.245396
O24   O     O_3   0.452863 0.854876 0.056773 -0.543876
H18   H     H_    0.421899 0.919735 0.054827 0.416860
S5    S     S_3+6 0.202542 0.461824 0.780802 0.085309
O25   O     O_2   0.158369 0.359151 0.769509 -0.218109
O26   O     O_2   0.243796 0.426479 0.893596 -0.270862
O27   O     O_3   0.169724 0.599709 0.819371 -0.464676
H19   H     H_    0.200509 0.664034 0.820201 0.383770
S6    S     S_3+6 0.799427 0.476738 0.784421 0.078605
O28   O     O_2   0.824987 0.603670 0.818421 -0.245095
O29   O     O_2   0.759344 0.437400 0.896148 -0.258816
O30   O     O_3   0.851948 0.367248 0.772802 -0.509999
H20   H     H_    0.874500 0.375456 0.858099 0.401509
Br1   Br    Br    0.604237 0.890680 0.694966 -0.316605
Br2   Br    Br    0.395539 0.109918 0.306210 -0.357698
S7    S     S_3+6 0.384416 0.897474 0.609090 0.089821
O31   O     O_2   0.355371 0.822214 0.499470 -0.245527
O32   O     O_2   0.395649 0.812948 0.731405 -0.251401
O33   O     O_3   0.342502 0.020745 0.653616 -0.500518
H21   H     H_    0.306789 0.981153 0.686481 0.406565
S8    S     S_3+6 0.615517 0.102609 0.391692 0.095078
O34   O     O_2   0.604241 0.188548 0.270548 -0.245986
O35   O     O_2   0.644840 0.176409 0.502048 -0.241936
O36   O     O_3   0.657156 0.979523 0.345289 -0.505019
H22   H     H_    0.692783 0.019222 0.312035 0.407071

loop_
_geom_bond_atom_site_label_1
_geom_bond_atom_site_label_2
_ccdc_geom_bond_type
S3    O19   D    
C18   C21   S    
C41   C43   A    
C23   O7    A    
C36   C42   A    
O24   H18   S    
C42   S2    S    
S8    O34   D    
C24   O8    A    
C32   O10   S    
C13   N2    S    
O18   H16   S    
N3    Zn1   S    
C14   N1    S    
C4    H8    S    
O3    Zn2   S    
C29   H3    S    
C30   H4    S    
C28   C29   S    
C35   C37   A    
C26   N3    S    
C17   Br1   S    
C41   S1    S    
C33   C35   A    
C31   N1    A    
O7    Zn2   S    
C15   C17   S    
C23   O5    A    
S4    O22   D    
S6    O30   S    
C27   N3    S    
C8    C24   S    
C40   C43   A    
C1    O3    A    
C9    H11   S    
C10   H12   S    
C18   C20   S    
C3    C13   A    
C31   O9    S    
C33   N1    A    
C27   C30   S    
C34   N2    A    
C15   H13   S    
N4    Zn2   S    
C42   C44   A    
C6    H10   S    
C1    O1    A    
O33   H21   S    
S5    O26   D    
C2    O2    A    
S5    O25   D    
S1    O14   D    
C25   C29   S    
C15   C20   S    
C29   N3    S    
C4    C6    A    
S7    O33   S    
C5    C7    A    
C3    H7    S    
C43   H5    S    
C6    C8    A    
C3    C5    A    
S1    O13   D    
S4    O24   S    
C27   S3    S    
C12   S6    S    
C37   C38   A    
S8    O35   D    
C22   S8    S    
S4    O23   D    
O2    Zn2   S    
C28   S4    S    
C16   H14   S    
S6    O29   D    
C9    C11   A    
C10   C12   A    
C34   O12   S    
C33   O11   S    
C12   C14   A    
C26   C30   S    
S2    O17   D    
C30   N4    S    
O6    Zn2   S    
C32   N2    A    
C25   H1    S    
S5    O27   S    
S1    O15   S    
C44   H6    S    
C7    C9    A    
C1    C20   S    
C16   C22   S    
C19   C21   S    
C2    C19   S    
C8    C10   A    
C20   C22   S    
O15   H15   S    
C2    O4    A    
C21   S7    S    
C39   C44   A    
C25   C27   S    
S2    O18   S    
O30   H20   S    
C26   C28   S    
C17   C22   S    
C11   S5    S    
S7    O32   D    
C5    H9    S    
C37   C39   A    
O36   H22   S    
C38   C40   A    
C11   C13   A    
O21   H17   S    
O1    Zn1   S    
C16   C19   S    
C7    C23   S    
O4    Zn1   S    
C36   C38   A    
O27   H19   S    
C17   C19   S    
C31   C39   A    
C34   C36   A    
C25   N4    S    
C32   C40   A    
C4    C14   A    
S6    O28   D    
C35   C41   A    
C18   Br2   S    
S8    O36   S    
C24   O6    A    
C15   C21   S    
O5    Zn1   S    
C16   C18   S    
S2    O16   D    
S3    O21   S    
O8    Zn1   S    
S3    O20   D    
S7    O31   D    
C26   H2    S    
C28   N4    S    
