data_mof_unit_11911.cif
_audit_creation_date              2013-03-05T15:44:40-0500
_audit_creation_method            fapswitch 2.2
_symmetry_space_group_name_H-M    P1
_symmetry_Int_Tables_number       1
_space_group_crystal_system       triclinic
_cell_length_a                    24.889085
_cell_length_b                    7.183523
_cell_length_c                    14.416355
_cell_angle_alpha                 90.561439
_cell_angle_beta                  103.159369
_cell_angle_gamma                 88.80168
_cell_volume                      2509.25243179

loop_
_atom_site_label
_atom_site_type_symbol
_atom_site_description
_atom_site_fract_x
_atom_site_fract_y
_atom_site_fract_z
_atom_type_partial_charge
O1    O     O_R   0.319150 0.364170 0.330530 -0.575419
O2    O     O_R   0.680850 0.635830 0.669470 -0.575418
O3    O     O_R   0.180850 0.864170 0.169470 -0.597102
O4    O     O_R   0.819150 0.135830 0.830530 -0.597102
O5    O     O_R   0.210330 0.696850 0.354180 -0.600845
O6    O     O_R   0.789670 0.303150 0.645820 -0.600845
O7    O     O_R   0.289670 0.196850 0.145820 -0.572254
O8    O     O_R   0.710330 0.803150 0.854180 -0.572254
C1    C     C_R   0.197279 0.527204 0.378219 0.960146
C2    C     C_R   0.802721 0.472796 0.621781 0.960145
C3    C     C_R   0.302521 0.023530 0.121728 0.951975
C4    C     C_R   0.697479 0.976470 0.878272 0.951975
O9    O     O_R   0.320550 0.694110 0.341970 -0.595851
O10   O     O_R   0.679450 0.305890 0.658030 -0.595851
O11   O     O_R   0.179450 0.194110 0.158030 -0.570141
O12   O     O_R   0.820550 0.805890 0.841970 -0.570140
O13   O     O_R   0.291860 0.861000 0.157170 -0.601178
O14   O     O_R   0.708140 0.139000 0.842830 -0.601178
O15   O     O_R   0.208140 0.361000 0.342830 -0.576397
O16   O     O_R   0.791860 0.639000 0.657170 -0.576397
C5    C     C_R   0.341653 0.524338 0.362736 1.011888
C6    C     C_R   0.658346 0.475662 0.637264 1.011887
C7    C     C_R   0.158361 0.026633 0.136937 1.002924
C8    C     C_R   0.841639 0.973367 0.863063 1.002923
O17   O     O_3   0.240460 0.529330 0.189380 -0.282332
O18   O     O_3   0.759540 0.470670 0.810620 -0.282332
O19   O     O_3   0.259540 0.029330 0.310620 -0.278492
O20   O     O_3   0.740460 0.970670 0.689380 -0.278492
V1    V     V_3+5 0.251770 0.805510 0.261240 1.206418
V2    V     V_3+5 0.748230 0.194490 0.738760 1.206419
V3    V     V_3+5 0.248230 0.305510 0.238760 1.239541
V4    V     V_3+5 0.751770 0.694490 0.761240 1.239541
C9    C     C_R   0.103344 0.021448 0.070858 -0.265647
C10   C     C_R   0.896655 0.978552 0.929141 -0.265648
C11   C     C_R   0.396520 0.511633 0.428742 -0.266097
C12   C     C_R   0.603480 0.488367 0.571258 -0.266097
C13   C     C_R   0.956767 0.982041 0.088541 -0.297357
C14   C     C_R   0.043233 0.017959 0.911459 -0.297356
C15   C     C_R   0.543828 0.508031 0.411914 -0.299193
C16   C     C_R   0.456172 0.491969 0.588086 -0.299193
C17   C     C_R   0.903370 0.970988 0.029440 0.361776
C18   C     C_R   0.096630 0.029012 0.970560 0.361775
C19   C     C_R   0.597268 0.501817 0.471318 0.363005
C20   C     C_R   0.402732 0.498183 0.528683 0.363005
C21   C     C_R   0.943415 0.994981 0.890659 -0.288188
C22   C     C_R   0.056585 0.005019 0.109341 -0.288188
C23   C     C_R   0.556347 0.485108 0.609413 -0.290706
C24   C     C_R   0.443653 0.514892 0.390587 -0.290707
C25   C     C_R   0.996638 0.003106 0.950177 0.171561
C26   C     C_R   0.003362 0.996894 0.049823 0.171561
C27   C     C_R   0.503155 0.494498 0.549737 0.172921
C28   C     C_R   0.496845 0.505502 0.450263 0.172922
H1    H     H_    0.061785 0.999057 0.186043 0.131487
H2    H     H_    0.938215 0.000943 0.813957 0.131487
H3    H     H_    0.438755 0.524736 0.314059 0.131518
H4    H     H_    0.561245 0.475264 0.685941 0.131518
H5    H     H_    0.962035 0.976378 0.165207 0.168608
H6    H     H_    0.037965 0.023622 0.834793 0.168608
H7    H     H_    0.538889 0.518284 0.335453 0.169255
H8    H     H_    0.461111 0.481716 0.664547 0.169256
C29   C     C_R   0.665249 0.992861 0.950944 -0.099909
C30   C     C_R   0.334751 0.007139 0.049056 -0.099909
C31   C     C_R   0.834934 0.472087 0.548634 -0.101478
C32   C     C_R   0.165065 0.527913 0.451366 -0.101478
C33   C     C_R   0.657111 0.098241 0.106619 -0.140925
C34   C     C_R   0.342889 0.901759 0.893381 -0.140925
C35   C     C_R   0.844828 0.376378 0.392318 -0.146032
C36   C     C_R   0.155172 0.623622 0.607682 -0.146032
C37   C     C_R   0.689319 0.063559 0.040949 -0.099841
C38   C     C_R   0.310681 0.936441 0.959051 -0.099841
C39   C     C_R   0.812191 0.400668 0.458128 -0.089803
C40   C     C_R   0.187809 0.599332 0.541872 -0.089802
C41   C     C_R   0.608706 0.958546 0.926050 -0.255696
C42   C     C_R   0.391294 0.041454 0.073950 -0.255696
C43   C     C_R   0.890727 0.518030 0.573632 -0.258981
C44   C     C_R   0.109273 0.481970 0.426368 -0.258981
C45   C     C_R   0.574500 0.998801 0.990205 0.114010
C46   C     C_R   0.425500 0.001200 0.009795 0.114010
C47   C     C_R   0.925555 0.487397 0.509392 0.113690
C48   C     C_R   0.074444 0.512603 0.490608 0.113690
C49   C     C_R   0.600059 0.068505 0.081821 0.156127
C50   C     C_R   0.399941 0.931496 0.918179 0.156127
C51   C     C_R   0.901231 0.416428 0.417447 0.158023
C52   C     C_R   0.098769 0.583572 0.582553 0.158024
C53   C     C_R   0.515943 0.976297 0.965884 0.065808
C54   C     C_R   0.484057 0.023703 0.034116 0.065808
C55   C     C_R   0.983672 0.519658 0.534062 0.066365
C56   C     C_R   0.016327 0.480342 0.465938 0.066365
C57   C     C_R   0.511824 0.090681 0.124535 -0.208868
C58   C     C_R   0.488176 0.909320 0.875465 -0.208868
C59   C     C_R   0.989719 0.411569 0.375250 -0.209291
C60   C     C_R   0.010281 0.588431 0.624750 -0.209291
C61   C     C_R   0.568536 0.111814 0.147619 -0.183257
C62   C     C_R   0.431464 0.888186 0.852381 -0.183256
C63   C     C_R   0.933430 0.381247 0.351743 -0.181490
C64   C     C_R   0.066570 0.618753 0.648257 -0.181490
H9    H     H_    0.587876 0.164607 0.217724 0.178056
H10   H     H_    0.412124 0.835394 0.782276 0.178055
H11   H     H_    0.915005 0.327131 0.281460 0.173636
H12   H     H_    0.084995 0.672869 0.718539 0.173636
H13   H     H_    0.407218 0.092657 0.145138 0.108233
H14   H     H_    0.592782 0.907343 0.854862 0.108233
H15   H     H_    0.094158 0.431502 0.354800 0.110825
H16   H     H_    0.905842 0.568497 0.645200 0.110825
H17   H     H_    0.267129 0.905566 0.940163 0.174114
H18   H     H_    0.732871 0.094434 0.059837 0.174115
H19   H     H_    0.230642 0.639458 0.560981 0.173699
H20   H     H_    0.769358 0.360543 0.439019 0.173699
H21   H     H_    0.676615 0.153006 0.176206 0.158256
H22   H     H_    0.323385 0.846994 0.823794 0.158256
H23   H     H_    0.826289 0.320610 0.322478 0.159575
H24   H     H_    0.173711 0.679391 0.677522 0.159575
H25   H     H_    0.491060 0.129430 0.179818 0.136456
H26   H     H_    0.508940 0.870571 0.820182 0.136456
H27   H     H_    0.011136 0.378122 0.320130 0.135579
H28   H     H_    0.988864 0.621878 0.679870 0.135579
N1    N     N_R   0.143065 0.046129 0.927351 0.219228
O21   O     O_R   0.184774 0.147986 0.966809 -0.432325
O22   O     O_R   0.140973 0.977818 0.842674 -0.430538
N2    N     N_R   0.856935 0.953871 0.072648 0.219228
O23   O     O_R   0.815226 0.852014 0.033191 -0.432325
O24   O     O_R   0.859027 0.022182 0.157326 -0.430538
N3    N     N_R   0.355727 0.489157 0.570970 0.221232
O25   O     O_R   0.311871 0.400296 0.528434 -0.439035
O26   O     O_R   0.359136 0.549319 0.657532 -0.431267
N4    N     N_R   0.644273 0.510842 0.429030 0.221231
O27   O     O_R   0.688129 0.599706 0.471566 -0.439034
O28   O     O_R   0.640864 0.450677 0.342469 -0.431268

loop_
_geom_bond_atom_site_label_1
_geom_bond_atom_site_label_2
_geom_bond_distance
_ccdc_geom_bond_type
O17   V3    1.753848 S    
C24   H3    1.084883 S    
C55   C56   1.432906 A    
O1    C5    1.323316 A    
N4    O27   1.300644 A    
C16   H8    1.084029 S    
O19   V1    1.748466 S    
C1    C32   1.462709 S    
O13   V1    2.028648 S    
O3    C7    1.326332 A    
C2    C31   1.462707 S    
C60   C64   1.385716 A    
C48   C52   1.420454 A    
C3    C30   1.459875 S    
O15   V3    2.014622 S    
C47   C55   1.432017 A    
N3    O25   1.300641 A    
C14   C25   1.403196 A    
C53   C54   1.432095 A    
C58   H26   1.075601 S    
O7    C3    1.341096 A    
C50   C62   1.391042 A    
C9    C18   1.418716 A    
O9    V1    1.994792 S    
C14   C18   1.409250 A    
N1    O22   1.301581 A    
C52   C64   1.391317 A    
O4    C8    1.326332 A    
C63   H11   1.084533 S    
N3    O26   1.301534 A    
C62   H10   1.084241 S    
O1    V3    2.000114 S    
C30   C38   1.395101 A    
C12   C23   1.405175 A    
O2    V4    2.000112 S    
C36   H24   1.084167 S    
O3    V1    1.989998 S    
C14   H6    1.084009 S    
C1    O15   1.340220 A    
C2    O16   1.340220 A    
C7    C9    1.480328 S    
O2    C6    1.323317 A    
C40   H19   1.083085 S    
O14   V2    2.028648 S    
C45   C49   1.420426 A    
C16   C20   1.408594 A    
C36   C40   1.390019 A    
C46   C54   1.431532 A    
C44   H15   1.076621 S    
O11   C7    1.327379 A    
C15   C28   1.403139 A    
C45   C53   1.431532 A    
O12   C8    1.327380 A    
C55   C60   1.413765 A    
C57   C61   1.385740 A    
C9    C22   1.406107 A    
C10   C17   1.418717 A    
O10   V2    1.994792 S    
C11   C24   1.405175 A    
C19   N4    1.439854 S    
N2    O24   1.301581 A    
C58   C62   1.385740 A    
O5    V1    2.037567 S    
C57   H25   1.075601 S    
O7    V3    2.010804 S    
C27   C28   1.409460 A    
C36   C52   1.402853 A    
O18   V4    1.753849 S    
C15   C19   1.408594 A    
C29   C41   1.397470 A    
C38   H17   1.082957 S    
C8    C10   1.480328 S    
O8    V4    2.010805 S    
O5    C1    1.336723 A    
C34   C50   1.403504 A    
C49   C61   1.391042 A    
C46   C50   1.420426 A    
C33   C49   1.403504 A    
C56   C59   1.413764 A    
C21   C25   1.406808 A    
O8    C4    1.341095 A    
C15   H7    1.084029 S    
C32   C44   1.398591 A    
O9    C5    1.327251 A    
C10   C21   1.406107 A    
C51   C63   1.391317 A    
C34   H22   1.084130 S    
C11   C20   1.417654 A    
C60   H28   1.075667 S    
C33   H21   1.084130 S    
C42   H13   1.076626 S    
C35   H23   1.084166 S    
C41   H14   1.076626 S    
O6    V2    2.037567 S    
C31   C39   1.395993 A    
C21   H2    1.084823 S    
C43   H16   1.076620 S    
C61   H9    1.084241 S    
C35   C51   1.402853 A    
N2    O23   1.300526 A    
O16   V4    2.014622 S    
C29   C37   1.395100 A    
C3    O13   1.334535 A    
C37   H18   1.082957 S    
N4    O28   1.301540 A    
C44   C48   1.418123 A    
C54   C57   1.414101 A    
O6    C2    1.336722 A    
C23   C27   1.405771 A    
C53   C58   1.414100 A    
C18   N1    1.440153 S    
O11   V3    2.014275 S    
C5    C11   1.477641 S    
O12   V4    2.014273 S    
C16   C27   1.403139 A    
C6    C12   1.477640 S    
C22   C26   1.406808 A    
C20   N3    1.439858 S    
O10   C6    1.327251 A    
O20   V2    1.748465 S    
C48   C56   1.432019 A    
N1    O21   1.300526 A    
C47   C51   1.420454 A    
C4    C29   1.459876 S    
C34   C38   1.390508 A    
C31   C43   1.398593 A    
C33   C37   1.390508 A    
C64   H12   1.084532 S    
C22   H1    1.084823 S    
C13   C26   1.403196 A    
C59   H27   1.075666 S    
C35   C39   1.390020 A    
C32   C40   1.395994 A    
C17   N2    1.440152 S    
C13   C17   1.409249 A    
O4    V2    1.990000 S    
C59   C63   1.385716 A    
C24   C28   1.405771 A    
C25   C26   1.408947 A    
C42   C46   1.416609 A    
C4    O14   1.334536 A    
C41   C45   1.416608 A    
C30   C42   1.397470 A    
C12   C19   1.417654 A    
C39   H20   1.083087 S    
C43   C47   1.418123 A    
C13   H5    1.084009 S    
C23   H4    1.084883 S    
