data_mof_unit_45606.cif
_audit_creation_date              2012-12-11T17:45:28-0500
_audit_creation_method            fapswitch 2.2
_symmetry_space_group_name_H-M    P1
_symmetry_Int_Tables_number       1
_space_group_crystal_system       triclinic
_cell_length_a                    15.187857
_cell_length_b                    15.020827
_cell_length_c                    14.893687
_cell_angle_alpha                 110.240598
_cell_angle_beta                  109.906307
_cell_angle_gamma                 109.066954
_cell_volume                      2589.22856867

loop_
_atom_site_label
_atom_site_type_symbol
_atom_type_description
_atom_site_fract_x
_atom_site_fract_y
_atom_site_fract_z
_atom_type_partial_charge
C1    C     C_R   0.973507 0.248970 0.063659 -0.115484
C2    C     C_R   0.706906 0.192196 0.792989 -0.133444
C3    C     C_R   0.776114 0.591032 0.030286 -0.158317
C4    C     C_R   0.314671 0.759016 0.226051 -0.133831
C5    C     C_R   0.935114 0.407135 0.682833 0.018270
C6    C     C_R   0.673454 0.497962 0.962167 0.017909
C7    C     C_R   0.940683 0.497835 0.672632 -0.007709
C8    C     C_R   0.711008 0.125078 0.704097 0.046613
C9    C     C_R   0.065814 0.870176 0.075441 0.061919
C10   C     C_R   0.609181 0.202378 0.061307 -0.124396
C11   C     C_R   0.671455 0.300614 0.164426 -0.163549
C12   C     C_R   0.327939 0.791983 0.332031 0.064255
C13   C     C_R   0.734119 0.303827 0.261471 0.118862
C14   C     C_R   0.727847 0.205605 0.253875 -0.153845
C15   C     C_R   0.662200 0.107012 0.151300 -0.131525
C16   C     C_R   0.207588 0.408124 0.903460 -0.174631
C17   C     C_R   0.603656 0.105595 0.054924 -0.091805
C18   C     C_R   0.819865 0.416437 0.467389 -0.216188
C19   C     C_R   0.908088 0.506470 0.571353 0.062326
C20   C     C_R   0.970008 0.603292 0.575590 0.021105
C21   C     C_R   0.942474 0.604097 0.477064 -0.232778
C22   C     C_R   0.885547 0.504591 0.376652 0.059034
C23   C     C_R   0.301017 0.499296 0.937521 0.040903
C24   C     C_R   0.812844 0.410056 0.368510 0.006584
C25   C     C_R   0.096308 0.796914 0.738680 -0.194938
C26   C     C_R   0.197337 0.875986 0.835198 -0.111099
C27   C     C_R   0.281564 0.853942 0.864905 -0.100651
C28   C     C_R   0.988956 0.591547 0.296433 -0.146199
C29   C     C_R   0.264863 0.751276 0.799364 -0.095496
C30   C     C_R   0.163520 0.669929 0.704836 -0.138189
C31   C     C_R   0.078322 0.692388 0.673350 0.101018
C32   C     C_R   0.253939 0.966705 0.603773 -0.177724
C33   C     C_R   0.343201 0.975854 0.592552 -0.175743
C34   C     C_R   0.924638 0.501276 0.297058 0.048306
C35   C     C_R   0.360754 0.886471 0.566028 0.127174
C36   C     C_R   0.294893 0.791766 0.558704 -0.183200
C37   C     C_R   0.202917 0.780828 0.563175 -0.087533
C38   C     C_R   0.181973 0.868050 0.586448 -0.084123
C39   C     C_R   0.549827 0.958954 0.638367 -0.239215
C40   C     C_R   0.299140 0.590897 0.997170 -0.182129
C41   C     C_R   0.637437 0.005023 0.627048 0.049327
C42   C     C_R   0.631139 0.946137 0.525304 0.054197
C43   C     C_R   0.528542 0.867265 0.430665 -0.239939
C44   C     C_R   0.434265 0.849389 0.436936 0.065120
C45   C     C_R   0.685045 0.406321 0.942425 -0.144490
C46   C     C_R   0.447615 0.892096 0.544629 0.028736
C47   C     C_R   0.737155 0.996373 0.436853 -0.048136
C48   C     C_R   0.837950 0.044563 0.446090 -0.186139
C49   C     C_R   0.930790 0.064263 0.532893 0.049338
C50   C     C_R   0.919603 0.025681 0.603967 -0.141875
C51   C     C_R   0.819005 0.977393 0.594959 -0.210399
C52   C     C_R   0.904877 0.410159 0.208501 -0.143154
C53   C     C_R   0.728580 0.968672 0.515527 0.101621
C54   C     C_3   0.471894 0.390797 0.852241 -0.412305
C55   C     C_3   0.371302 0.385708 0.856448 -0.383297
C56   C     C_R   0.009394 0.587737 0.779852 -0.127682
C57   C     C_3   0.572220 0.510417 0.062331 -0.208715
C58   C     C_3   0.571130 0.596546 0.940585 -0.441950
C59   C     C_3   0.575120 0.499879 0.954818 0.258054
C60   C     C_3   0.399171 0.499996 0.941421 0.199193
C61   C     C_3   0.478927 0.531449 0.063138 -0.047174
C62   C     C_3   0.460564 0.588256 0.917857 0.010264
C63   C     C_R   0.198725 0.091363 0.822279 -0.065131
C64   C     C_R   0.223571 0.760300 0.317204 -0.146878
C65   C     C_R   0.145880 0.088894 0.882776 -0.243019
C66   C     C_R   0.206330 0.148642 0.999801 0.113060
C67   C     C_R   0.797695 0.192771 0.704179 -0.052732
C68   C     C_R   0.319435 0.210941 0.055012 -0.162916
C69   C     C_R   0.371557 0.212208 0.994124 -0.162051
C70   C     C_R   0.311707 0.150167 0.877996 -0.094531
C71   C     C_R   0.163120 0.038301 0.078648 -0.234001
C72   C     C_R   0.101228 0.987831 0.115238 0.048081
C73   C     C_R   0.063239 0.046505 0.173491 0.052734
C74   C     C_R   0.060696 0.134690 0.163073 -0.264609
C75   C     C_R   0.094256 0.163866 0.095175 0.068736
C76   C     C_R   0.068938 0.255123 0.977351 -0.162108
C77   C     C_R   0.155964 0.121549 0.062085 0.039219
C78   C     C_R   0.999292 0.801399 0.095058 -0.144245
C79   C     C_R   0.906617 0.968178 0.195639 -0.235650
C80   C     C_R   0.856124 0.908924 0.235052 -0.139403
C81   C     C_R   0.917199 0.895463 0.318105 -0.119448
C82   C     C_R   0.029428 0.945330 0.365790 -0.204475
C83   C     C_R   0.082351 0.006989 0.328789 0.155836
C84   C     C_R   0.018836 0.013056 0.238037 0.065531
C85   C     C_R   0.051055 0.223931 0.050272 0.052680
C86   C     C_2   0.900418 0.299655 0.593937 0.414159
C87   C     C_2   0.038751 0.130249 0.551597 0.420841
C88   C     C_3   0.428254 0.475353 0.118321 -0.389052
C89   C     C_R   0.096511 0.807233 0.012652 -0.147899
C90   C     C_3   0.423805 0.554557 0.213017 -0.257487
C91   C     C_3   0.366064 0.494702 0.258043 -0.899460
C92   C     C_3   0.394754 0.581342 0.806489 -0.381028
C93   C     C_3   0.379446 0.499073 0.697421 -0.217002
C94   C     C_3   0.323528 0.514534 0.601850 -0.973705
C95   C     C_2   0.678883 0.591849 0.172483 0.445495
C96   C     C_3   0.204416 0.060288 0.383301 -0.433186
C97   C     C_3   0.259285 0.185767 0.451285 -0.243704
C98   C     C_3   0.382472 0.239239 0.509913 -0.922474
H1    H     H_    0.939519 0.236382 0.113971 0.092750
H2    H     H_    0.675428 0.375076 0.167794 0.097001
H3    H     H_    0.376507 0.771417 0.204079 0.085760
H4    H     H_    0.776794 0.205811 0.326414 0.154355
H5    H     H_    0.658812 0.032184 0.146196 0.103899
H6    H     H_    0.760570 0.348649 0.462485 0.195296
H7    H     H_    0.984016 0.679710 0.481218 0.115350
H8    H     H_    0.031537 0.815420 0.717378 0.118812
H9    H     H_    0.210906 0.953878 0.889454 0.143197
H10   H     H_    0.359403 0.916120 0.939596 0.105379
H11   H     H_    0.330528 0.735286 0.823162 0.093893
H12   H     H_    0.023812 0.669684 0.806447 0.137661
H13   H     H_    0.150920 0.589514 0.655907 0.103464
H14   H     H_    0.109736 0.859532 0.589225 0.101586
H15   H     H_    0.178265 0.322832 0.847637 0.134497
H16   H     H_    0.238478 0.034337 0.621286 0.155169
H17   H     H_    0.396766 0.050784 0.601333 0.120667
H18   H     H_    0.308897 0.722994 0.538782 0.120441
H19   H     H_    0.147010 0.701499 0.541983 0.126923
H20   H     H_    0.556589 0.991431 0.719100 0.124232
H21   H     H_    0.523647 0.825619 0.352208 0.114768
H22   H     H_    0.668261 0.989717 0.374484 0.117597
H23   H     H_    0.835397 0.167834 0.659552 0.129303
H24   H     H_    0.844599 0.072987 0.389775 0.121701
H25   H     H_    0.989265 0.038400 0.670274 0.141466
H26   H     H_    0.008435 0.675209 0.343862 0.098089
H27   H     H_    0.813519 0.955039 0.655453 0.128532
H28   H     H_    0.472836 0.316964 0.850785 0.145572
H29   H     H_    0.465681 0.384632 0.773648 0.176170
H30   H     H_    0.302800 0.351252 0.772889 0.194429
H31   H     H_    0.343646 0.328243 0.883876 0.182820
H32   H     H_    0.553547 0.429131 0.054288 0.081476
H33   H     H_    0.636250 0.675723 0.018766 0.143231
H34   H     H_    0.966543 0.819532 0.147122 0.134118
H35   H     H_    0.589169 0.599454 0.875269 0.165216
H36   H     H_    0.355153 0.675614 0.029225 0.085313
H37   H     H_    0.481500 0.669222 0.982805 0.072555
H38   H     H_    0.513373 0.621338 0.116039 0.162414
H39   H     H_    0.352926 0.149282 0.831405 0.110206
H40   H     H_    0.152580 0.042368 0.732567 0.141008
H41   H     H_    0.058887 0.035782 0.839219 0.121436
H42   H     H_    0.367385 0.254646 0.145069 0.125930
H43   H     H_    0.458411 0.260958 0.037553 0.118723
H44   H     H_    0.208416 0.005496 0.050869 0.122214
H45   H     H_    0.158244 0.836174 0.993053 0.106604
H46   H     H_    0.025176 0.174459 0.202014 0.125567
H47   H     H_    0.853849 0.324986 0.178090 0.121318
H48   H     H_    0.857153 0.972314 0.126617 0.132652
H49   H     H_    0.769250 0.871533 0.199667 0.137497
H50   H     H_    0.878301 0.849114 0.348393 0.183963
H51   H     H_    0.074758 0.935698 0.431893 0.136340
H52   H     H_    0.198120 0.773892 0.376635 0.134562
H53   H     H_    0.127842 0.256832 0.953329 0.129896
H54   H     H_    0.624079 0.320867 0.898406 0.090245
H55   H     H_    0.959227 0.273413 0.597619 -0.002391
H56   H     H_    0.657817 0.166355 0.826919 0.088774
H57   H     H_    0.045521 0.162086 0.497519 0.023329
H58   H     H_    0.281175 0.430421 0.191184 0.266687
H59   H     H_    0.409008 0.455922 0.291002 0.256629
H60   H     H_    0.364758 0.554195 0.326510 0.253897
H61   H     H_    0.507652 0.620094 0.281942 0.224219
H62   H     H_    0.380616 0.594407 0.183921 0.208691
H63   H     H_    0.346598 0.402897 0.055691 0.207663
H64   H     H_    0.477626 0.444048 0.156706 0.190685
H65   H     H_    0.241535 0.498649 0.586365 0.259148
H66   H     H_    0.372168 0.599316 0.621380 0.265929
H67   H     H_    0.796574 0.675864 0.068001 0.114542
H68   H     H_    0.314644 0.455666 0.524687 0.258696
H69   H     H_    0.458066 0.510255 0.705567 0.191710
H70   H     H_    0.327790 0.413400 0.671702 0.198879
H71   H     H_    0.313500 0.565970 0.793385 0.181084
H72   H     H_    0.438686 0.664231 0.819442 0.175530
H73   H     H_    0.743623 0.572921 0.192074 0.036558
H74   H     H_    0.411778 0.213510 0.570193 0.257426
H75   H     H_    0.408183 0.215785 0.448115 0.272201
H76   H     H_    0.419991 0.329931 0.555977 0.245321
H77   H     H_    0.232802 0.217303 0.395954 0.203749
H78   H     H_    0.554899 0.029749 0.975107 0.099633
H79   H     H_    0.235873 0.209739 0.515058 0.213687
H80   H     H_    0.235551 0.031518 0.439740 0.196752
H81   H     H_    0.227603 0.035288 0.319702 0.194832
H82   H     H_    0.565916 0.201289 0.985907 0.096357
N1    N     N_R   0.947080 0.293830 0.002870 -0.040933
N2    N     N_R   0.153670 0.443180 0.946090 -0.035643
N3    N     N_R   0.002360 0.556820 0.208890 -0.038490
N4    N     N_R   0.210070 0.556820 0.002870 -0.028024
N5    N     N_R   0.945960 0.443180 0.152110 -0.039784
N6    N     N_R   0.151710 0.706170 0.208890 -0.041704
N7    N     N_R   0.004320 0.293830 0.946090 -0.044159
N8    N     N_R   0.789930 0.443180 0.997130 -0.035192
N9    N     N_R   0.054040 0.556820 0.847890 -0.049125
N10   N     N_R   0.848290 0.293830 0.791110 -0.053491
N11   N     N_R   0.995680 0.706170 0.053910 -0.039336
N12   N     N_R   0.052920 0.706170 0.997130 -0.040222
N13   N     N_R   0.791050 0.293830 0.847890 -0.040031
N14   N     N_R   0.846330 0.556820 0.053910 -0.039841
N15   N     N_R   0.997640 0.443180 0.791110 -0.079135
N16   N     N_R   0.208950 0.706170 0.152110 -0.036563
Ni1   Ni    Ni4+2 0.869690 0.369690 0.000000 0.210317
Ni2   Ni    Ni4+2 0.130310 0.630310 0.000000 0.212929
Ni3   Ni    Ni4+2 0.000970 0.369690 0.869780 0.210258
Ni4   Ni    Ni4+2 0.999030 0.630310 0.130220 0.213241
O1    O     O_2   0.805751 0.237457 0.520231 -0.630208
O2    O     O_2   0.121218 0.150389 0.627436 -0.655214
O3    O     O_2   0.692880 0.676404 0.241744 -0.624436

loop_
_geom_bond_atom_site_label_1
_geom_bond_atom_site_label_2
_ccdc_geom_bond_type
N9    Ni2   S    
C25   C31   A    
C66   C68   A    
C63   C65   A    
C58   C62   S    
C52   H47   S    
C97   H77   S    
C6    C45   A    
C55   H30   S    
C27   C29   A    
C41   C42   A    
C49   C87   S    
C35   C36   A    
C9    C72   S    
C3    C6    A    
N1    Ni1   S    
C16   H15   S    
C1    H1    S    
C97   C98   S    
N1    N7    A    
C67   N10   A    
C39   C41   A    
C54   H28   S    
C26   C27   A    
C29   C30   A    
C18   C24   A    
C27   H10   S    
C29   H11   S    
C36   C37   A    
C28   N3    A    
C32   C38   A    
N3    N5    A    
C42   C53   S    
C48   H24   S    
C30   C31   A    
C98   H76   S    
C16   N2    A    
C14   H4    S    
C10   C17   A    
C69   H43   S    
C23   C40   A    
C60   C62   S    
C18   C19   A    
C73   C74   A    
C90   H61   S    
C66   C77   S    
C78   H34   S    
C91   H60   S    
N10   N13   A    
C56   N9    A    
C75   C85   S    
C80   H49   S    
N14   Ni4   S    
C83   C84   A    
C93   H70   S    
C92   H72   S    
C68   C69   A    
C55   H31   S    
C62   C92   S    
C25   H8    S    
N12   Ni2   S    
C4    C12   A    
C92   H71   S    
C73   C84   S    
C17   H78   S    
C47   C53   A    
C98   H74   S    
N8    N14   A    
C2    H56   S    
C21   C22   A    
C96   C97   S    
C94   H68   S    
C7    C56   A    
C67   H23   S    
C56   H12   S    
C44   C46   A    
N10   Ni3   S    
C81   C82   A    
C79   H48   S    
N15   Ni3   S    
C54   C59   S    
C58   H35   S    
C1    C85   A    
C23   C60   S    
C22   C34   S    
C33   H17   S    
C3    N14   A    
C74   C75   A    
N2    Ni3   S    
N11   N12   A    
C51   H27   S    
C57   H32   S    
C8    C41   S    
N16   Ni2   S    
C9    C89   A    
C5    C7    A    
C98   H75   S    
C1    N1    A    
C72   C73   A    
C76   H53   S    
C25   C26   A    
C89   H45   S    
C40   H36   S    
C82   C83   A    
C4    N16   A    
C13   C24   S    
N7    Ni3   S    
C60   C61   S    
C51   C53   A    
C62   H37   S    
C43   C44   A    
C32   H16   S    
C37   C38   A    
C61   C88   S    
C64   N6    A    
N9    N15   A    
C97   H79   S    
C47   C48   A    
C63   C70   A    
C58   H33   S    
C81   H50   S    
C4    H3    S    
C50   C51   A    
C93   C94   S    
C18   H6    S    
N11   Ni4   S    
C75   C77   A    
C86   O1    D    
C76   N7    A    
C70   H39   S    
C39   C46   A    
C5    C86   S    
C48   C49   A    
C88   C90   S    
C65   C66   A    
C16   C23   A    
C7    C19   S    
C71   H44   S    
C63   H40   S    
C87   H57   S    
C68   H42   S    
C42   C43   A    
C38   H14   S    
C36   H18   S    
C94   H66   S    
C71   C77   A    
C3    H67   S    
N6    N16   A    
C15   C17   A    
C12   C64   A    
C74   H46   S    
C54   C55   S    
C47   H22   S    
C87   O2    D    
N2    N4    A    
C88   H64   S    
C34   C52   A    
C6    C59   S    
C86   H55   S    
C2    C8    A    
C50   H25   S    
C80   C81   A    
C26   H9    S    
C52   N5    A    
C28   H26   S    
C45   N8    A    
C57   C61   S    
C39   H20   S    
C54   H29   S    
N4    Ni2   S    
N3    Ni4   S    
C5    N15   A    
C30   H13   S    
C45   H54   S    
N5    Ni1   S    
C32   C33   A    
C2    N13   A    
C19   C20   A    
C78   N11   A    
C10   H82   S    
C71   C72   A    
C12   C44   S    
C11   C13   A    
C90   C91   S    
C79   C84   A    
C95   H73   S    
N8    Ni1   S    
N13   Ni1   S    
C83   C96   S    
C94   H65   S    
C92   C93   S    
C33   C35   A    
C89   N12   A    
C22   C24   A    
C9    C78   A    
C96   H81   S    
C90   H62   S    
C69   C70   A    
C58   C59   S    
C91   H59   S    
C82   H51   S    
C57   C59   S    
C10   C11   A    
C28   C34   A    
C79   C80   A    
C65   H41   S    
C15   H5    S    
C91   H58   S    
C37   H19   S    
C20   C21   A    
C93   H69   S    
C8    C67   A    
C49   C50   A    
C57   C95   S    
C64   H52   S    
N6    Ni4   S    
C14   C15   A    
C11   H2    S    
C96   H80   S    
C55   C60   S    
C35   C46   S    
C95   O3    D    
C76   C85   A    
C20   C31   S    
C21   H7    S    
C88   H63   S    
C61   H38   S    
C43   H21   S    
C40   N4    A    
C13   C14   A    
