data_mof_unit_53472.cif
_audit_creation_date              2012-12-11T15:44:44-0500
_audit_creation_method            fapswitch 2.2
_symmetry_space_group_name_H-M    P1
_symmetry_Int_Tables_number       1
_space_group_crystal_system       triclinic
_cell_length_a                    19.684545
_cell_length_b                    11.036097
_cell_length_c                    18.739342
_cell_angle_alpha                 89.82894
_cell_angle_beta                  90.022418
_cell_angle_gamma                 90.492643
_cell_volume                      4070.77602982

loop_
_atom_site_label
_atom_site_type_symbol
_atom_type_description
_atom_site_fract_x
_atom_site_fract_y
_atom_site_fract_z
_atom_type_partial_charge
C1    C     C_R   0.761191 0.531031 0.645013 0.543561
C2    C     C_R   0.239968 0.534132 0.353698 0.528401
C3    C     C_R   0.261190 0.031033 0.645014 0.543560
C4    C     C_R   0.739967 0.034132 0.353699 0.528401
C5    C     C_R   0.837949 0.110980 0.521267 -0.173098
C6    C     C_R   0.166564 0.094055 0.474813 -0.165694
C7    C     C_R   0.337950 0.610978 0.521267 -0.173085
C8    C     C_R   0.666568 0.594037 0.474809 -0.165638
C9    C     C_R   0.825232 0.080376 0.449734 -0.137792
C10   C     C_R   0.181590 0.054678 0.543469 -0.149038
C11   C     C_R   0.325233 0.580372 0.449734 -0.137767
C12   C     C_R   0.681595 0.554661 0.543466 -0.149026
C13   C     C_3   0.646689 0.175119 0.464051 0.110467
C14   C     C_3   0.351801 0.198132 0.538011 0.106997
C15   C     C_3   0.146692 0.675140 0.464049 0.110476
C16   C     C_3   0.851800 0.698136 0.538010 0.106994
C17   C     C_3   0.658284 0.195146 0.544429 -0.116314
C18   C     C_3   0.338087 0.241910 0.461934 -0.107820
C19   C     C_3   0.158287 0.695165 0.544426 -0.116242
C20   C     C_3   0.838085 0.741913 0.461934 -0.107807
C21   C     C_R   0.787896 0.167462 0.561964 -0.005226
C22   C     C_R   0.211977 0.168835 0.437846 -0.005916
C23   C     C_R   0.287898 0.667464 0.561964 -0.005207
C24   C     C_R   0.711978 0.668828 0.437845 -0.005901
C25   C     C_R   0.001878 0.345042 0.427342 0.000264
C26   C     C_R   0.003814 0.351670 0.577517 0.016629
C27   C     C_R   0.501879 0.845041 0.427343 0.000256
C28   C     C_R   0.503815 0.851668 0.577518 0.016624
C29   C     C_R   0.988614 0.121648 0.436434 0.238725
C30   C     C_R   0.029953 0.136490 0.579969 0.252620
C31   C     C_R   0.488617 0.621647 0.436434 0.238743
C32   C     C_R   0.529955 0.636487 0.579969 0.252637
C33   C     C_R   0.994084 0.017766 0.479081 -0.180775
C34   C     C_R   0.017566 0.024914 0.548794 -0.158453
C35   C     C_R   0.494089 0.517765 0.479080 -0.180839
C36   C     C_R   0.517571 0.524911 0.548793 -0.158492
C37   C     C_R   0.013251 0.242115 0.541807 -0.008252
C38   C     C_R   0.001656 0.236256 0.467376 -0.001351
C39   C     C_R   0.513252 0.742113 0.541808 -0.008251
C40   C     C_R   0.501658 0.736254 0.467377 -0.001345
C41   C     C_R   0.002603 0.462617 0.538517 -0.016660
C42   C     C_R   0.998927 0.458193 0.464240 -0.038122
C43   C     C_R   0.502605 0.962615 0.538518 -0.016658
C44   C     C_R   0.498927 0.958191 0.464241 -0.038125
C45   C     C_R   0.792740 0.174135 0.640102 0.568608
C46   C     C_R   0.207066 0.175669 0.359747 0.567624
C47   C     C_R   0.292740 0.674135 0.640102 0.568607
C48   C     C_R   0.707066 0.675668 0.359747 0.567625
C49   C     C_R   0.003416 0.580368 0.570946 -0.076599
C50   C     C_R   0.992810 0.570245 0.428525 -0.077867
C51   C     C_R   0.503419 0.080366 0.570947 -0.076579
C52   C     C_R   0.492808 0.070242 0.428526 -0.077833
C53   C     C_R   0.003200 0.685317 0.532566 -0.104808
C54   C     C_R   0.996432 0.679995 0.461107 -0.084109
C55   C     C_R   0.503200 0.185315 0.532567 -0.104858
C56   C     C_R   0.496430 0.179992 0.461109 -0.084150
C57   C     C_R   0.754535 0.089429 0.079869 0.017316
C58   C     C_R   0.256711 0.053018 0.930020 0.018515
C59   C     C_R   0.254527 0.589421 0.079865 0.017312
C60   C     C_R   0.756706 0.553025 0.930017 0.018516
C61   C     C_R   0.814226 0.058661 0.043594 0.025978
C62   C     C_R   0.207209 0.990117 0.968808 0.042624
C63   C     C_R   0.314225 0.558682 0.043594 0.025973
C64   C     C_R   0.707202 0.490125 0.968802 0.042611
C65   C     C_R   0.818275 0.069422 0.970790 0.035656
C66   C     C_R   0.202742 0.999610 0.041616 0.029138
C67   C     C_R   0.318274 0.569435 0.970789 0.035665
C68   C     C_R   0.702725 0.499640 0.041610 0.029120
C69   C     C_R   0.708763 0.163474 0.967461 -0.153535
C70   C     C_R   0.305615 0.118789 0.043234 -0.172433
C71   C     C_R   0.208740 0.663405 0.967448 -0.153526
C72   C     C_R   0.805611 0.618786 0.043232 -0.172441
C73   C     C_R   0.704419 0.153071 0.042048 -0.152800
C74   C     C_R   0.309190 0.110738 0.968453 -0.165106
C75   C     C_R   0.204395 0.653004 0.042035 -0.152789
C76   C     C_R   0.809185 0.610741 0.968451 -0.165113
C77   C     C_3   0.853658 0.943002 0.042280 -0.268894
C78   C     C_3   0.132080 0.985886 0.958714 -0.275160
C79   C     C_3   0.353674 0.443038 0.042287 -0.268892
C80   C     C_3   0.632070 0.485972 0.958703 -0.275165
C81   C     C_3   0.857531 0.955567 0.962151 -0.274827
C82   C     C_3   0.126607 0.995400 0.038981 -0.268331
C83   C     C_3   0.357543 0.455591 0.962157 -0.274822
C84   C     C_3   0.626591 0.495519 0.038969 -0.268329
C85   C     C_R   0.763856 0.111907 0.930721 0.015881
C86   C     C_R   0.248005 0.073980 0.079514 0.015310
C87   C     C_R   0.263848 0.611885 0.930715 0.015891
C88   C     C_R   0.747998 0.573989 0.079511 0.015315
C89   C     C_R   0.971926 0.348573 0.648234 0.587715
C90   C     C_R   0.029207 0.346620 0.353462 0.576218
C91   C     C_R   0.471927 0.848572 0.648235 0.587712
C92   C     C_R   0.529207 0.846620 0.353462 0.576211
C93   C     C_R   0.014515 0.341931 0.070655 0.021138
C94   C     C_R   0.003157 0.336037 0.921696 0.014423
C95   C     C_R   0.514512 0.841933 0.070656 0.021127
C96   C     C_R   0.503155 0.836034 0.921696 0.014419
C97   C     C_R   0.033584 0.441360 0.028757 0.047558
C98   C     C_R   0.028983 0.438983 0.955817 0.014283
C99   C     C_R   0.533595 0.941349 0.028754 0.047556
C100  C     C_R   0.528993 0.938971 0.955815 0.014284
C101  C     C_R   0.994011 0.229018 0.962136 -0.163046
C102  C     C_R   0.998900 0.232327 0.036551 -0.172081
C103  C     C_R   0.493999 0.729021 0.962138 -0.163050
C104  C     C_R   0.498886 0.732334 0.036554 -0.172105
C105  C     C_3   0.011849 0.570191 0.033566 -0.266622
C106  C     C_3   0.008699 0.569698 0.952990 -0.270717
C107  C     C_3   0.511887 0.070198 0.033558 -0.266601
C108  C     C_3   0.508737 0.069704 0.952981 -0.270709
C109  C     C_R   0.762381 0.526250 0.854121 0.547173
C110  C     C_R   0.239587 0.532290 0.148434 0.548302
C111  C     C_R   0.262382 0.026247 0.854123 0.547179
C112  C     C_R   0.739588 0.032292 0.148435 0.548297
C113  C     C_R   0.775178 0.132333 0.854966 0.550296
C114  C     C_R   0.227170 0.124912 0.147816 0.550485
C115  C     C_R   0.275175 0.632324 0.854963 0.550293
C116  C     C_R   0.727169 0.624914 0.147816 0.550481
C117  C     C_R   0.970008 0.346578 0.853028 0.548092
C118  C     C_R   0.031973 0.346985 0.145484 0.541614
C119  C     C_R   0.470008 0.846578 0.853027 0.548096
C120  C     C_R   0.531971 0.846986 0.145484 0.541606
C121  C     C_R   0.762174 0.104942 0.417240 -0.004910
C122  C     C_R   0.241038 0.093430 0.578909 -0.008651
C123  C     C_R   0.262176 0.604942 0.417239 -0.004897
C124  C     C_R   0.741040 0.593422 0.578907 -0.008646
C125  C     C_R   0.720257 0.182710 0.454188 0.032776
C126  C     C_R   0.277897 0.186439 0.547049 -0.002336
C127  C     C_R   0.220262 0.682718 0.454185 0.032574
C128  C     C_R   0.777896 0.686437 0.547048 -0.002371
C129  C     C_R   0.731395 0.210258 0.525783 -0.026409
C130  C     C_R   0.264044 0.224563 0.477537 -0.041542
C131  C     C_R   0.231400 0.710265 0.525781 -0.026451
C132  C     C_R   0.764043 0.724560 0.477537 -0.041557
Cr1   Cr    Cr6+3 0.885860 0.491680 0.749630 1.014464
Cr2   Cr    Cr6+3 0.114140 0.491680 0.250370 1.018587
Cr3   Cr    Cr6+3 0.385860 0.991680 0.749630 1.014476
Cr4   Cr    Cr6+3 0.614140 0.991680 0.250370 1.018608
Cr5   Cr    Cr6+3 0.730490 0.332970 0.748720 0.981617
Cr6   Cr    Cr6+3 0.269510 0.332970 0.251280 0.990418
Cr7   Cr    Cr6+3 0.230490 0.832970 0.748720 0.981618
Cr8   Cr    Cr6+3 0.769510 0.832970 0.251280 0.990416
Cr9   Cr    Cr6+3 0.887570 0.179310 0.750150 1.032562
Cr10  Cr    Cr6+3 0.112430 0.179310 0.249850 1.035742
Cr11  Cr    Cr6+3 0.387570 0.679310 0.750150 1.032566
Cr12  Cr    Cr6+3 0.612430 0.679310 0.249850 1.035746
H1    H     H_    0.883513 0.079741 0.546835 0.156242
H2    H     H_    0.123478 0.054708 0.447884 0.157137
H3    H     H_    0.383514 0.579736 0.546836 0.156232
H4    H     H_    0.623485 0.554685 0.447880 0.157121
H5    H     H_    0.005462 0.769692 0.559407 0.145402
H6    H     H_    0.993947 0.759572 0.428682 0.146034
H7    H     H_    0.505460 0.269690 0.559408 0.145389
H8    H     H_    0.493943 0.259568 0.428683 0.145995
H9    H     H_    0.668383 0.207841 0.938659 0.124417
H10   H     H_    0.344766 0.168144 0.071651 0.112787
H11   H     H_    0.168349 0.707731 0.938639 0.124383
H12   H     H_    0.844765 0.668131 0.071651 0.112787
H13   H     H_    0.660061 0.186575 0.069187 0.122383
H14   H     H_    0.351068 0.153593 0.940757 0.119084
H15   H     H_    0.160024 0.686459 0.069166 0.122392
H16   H     H_    0.851062 0.653598 0.940755 0.119080
H17   H     H_    0.822360 0.864239 0.058926 0.167370
H18   H     H_    0.113728 0.897518 0.937732 0.132226
H19   H     H_    0.322387 0.364261 0.058937 0.167367
H20   H     H_    0.613689 0.397613 0.937731 0.132213
H21   H     H_    0.903844 0.951912 0.069080 0.128997
H22   H     H_    0.112634 0.066847 0.930023 0.142525
H23   H     H_    0.403859 0.451976 0.069087 0.128989
H24   H     H_    0.612654 0.566948 0.930000 0.142534
H25   H     H_    0.909952 0.971711 0.942358 0.134617
H26   H     H_    0.103258 0.081392 0.056176 0.169315
H27   H     H_    0.409963 0.471748 0.942363 0.134610
H28   H     H_    0.603277 0.581544 0.056153 0.169328
H29   H     H_    0.828445 0.884275 0.933151 0.140916
H30   H     H_    0.105413 0.912200 0.064458 0.127006
H31   H     H_    0.328465 0.384283 0.933163 0.140911
H32   H     H_    0.605365 0.412357 0.064457 0.127022
H33   H     H_    0.976904 0.146018 0.937241 0.134566
H34   H     H_    0.988623 0.150880 0.067222 0.122407
H35   H     H_    0.476888 0.646024 0.937245 0.134576
H36   H     H_    0.488604 0.650891 0.067226 0.122415
H37   H     H_    0.051822 0.630881 0.055086 0.134952
H38   H     H_    0.956649 0.584568 0.932932 0.164169
H39   H     H_    0.551877 0.130858 0.055076 0.134977
H40   H     H_    0.456688 0.084617 0.932921 0.164148
H41   H     H_    0.961291 0.579600 0.059275 0.130470
H42   H     H_    0.048375 0.627749 0.927697 0.120039
H43   H     H_    0.461330 0.079646 0.059266 0.130466
H44   H     H_    0.548430 0.127725 0.927686 0.120043
H45   H     H_    0.861707 0.025709 0.422596 0.165219
H46   H     H_    0.149008 0.985889 0.566142 0.141376
H47   H     H_    0.361708 0.525703 0.422597 0.165214
H48   H     H_    0.649015 0.485868 0.566137 0.141341
H49   H     H_    0.125223 0.585796 0.448856 0.173420
H50   H     H_    0.876243 0.608612 0.543135 0.169337
H51   H     H_    0.625225 0.085770 0.448857 0.173401
H52   H     H_    0.376242 0.108606 0.543135 0.169337
H53   H     H_    0.636391 0.280445 0.565011 0.107498
H54   H     H_    0.351025 0.338392 0.454700 0.117335
H55   H     H_    0.136395 0.780469 0.565003 0.107584
H56   H     H_    0.851022 0.838396 0.454701 0.117356
H57   H     H_    0.977684 0.932857 0.458665 0.104985
H58   H     H_    0.026000 0.945663 0.580266 0.099422
H59   H     H_    0.477691 0.432855 0.458663 0.104961
H60   H     H_    0.526009 0.445660 0.580263 0.099402
H61   H     H_    0.980147 0.579739 0.374381 0.180902
H62   H     H_    0.007167 0.601891 0.626107 0.167638
H63   H     H_    0.480143 0.079732 0.374383 0.180905
H64   H     H_    0.507172 0.101886 0.626108 0.167637
O1    O     O_R   0.957020 0.451640 0.669920 -0.556421
O2    O     O_R   0.042980 0.451640 0.330080 -0.552776
O3    O     O_R   0.457020 0.951640 0.669920 -0.556420
O4    O     O_R   0.542980 0.951640 0.330080 -0.552769
O5    O     O_R   0.736470 0.210100 0.823360 -0.510096
O6    O     O_R   0.263530 0.210100 0.176640 -0.509041
O7    O     O_R   0.236470 0.710100 0.823360 -0.510091
O8    O     O_R   0.763530 0.710100 0.176640 -0.509043
O9    O     O_R   0.831960 0.093290 0.830130 -0.511921
O10   O     O_R   0.168040 0.093290 0.169870 -0.518736
O11   O     O_R   0.331960 0.593290 0.830130 -0.511922
O12   O     O_R   0.668040 0.593290 0.169870 -0.518735
O13   O     O_R   0.945600 0.250580 0.824860 -0.504451
O14   O     O_R   0.054400 0.250580 0.175140 -0.505890
O15   O     O_R   0.445600 0.750580 0.824860 -0.504454
O16   O     O_R   0.554400 0.750580 0.175140 -0.505896
O17   O     O_3   0.834640 0.334650 0.749500 -0.292526
O18   O     O_3   0.165360 0.334650 0.250500 -0.293862
O19   O     O_3   0.334640 0.834650 0.749500 -0.292527
O20   O     O_3   0.665360 0.834650 0.250500 -0.293869
O21   O     O_R   0.821450 0.543440 0.674610 -0.478280
O22   O     O_R   0.178550 0.543440 0.325390 -0.483330
O23   O     O_R   0.321450 0.043440 0.674610 -0.478272
O24   O     O_R   0.678550 0.043440 0.325390 -0.483306
O25   O     O_R   0.715320 0.458650 0.668100 -0.545069
O26   O     O_R   0.284680 0.458650 0.331900 -0.541274
O27   O     O_R   0.215320 0.958650 0.668100 -0.545075
O28   O     O_R   0.784680 0.958650 0.331900 -0.541279
O29   O     O_R   0.737170 0.209590 0.674530 -0.500993
O30   O     O_R   0.262830 0.209590 0.325470 -0.481256
O31   O     O_R   0.237170 0.709590 0.674530 -0.500995
O32   O     O_R   0.762830 0.709590 0.325470 -0.481257
O33   O     O_R   0.832710 0.092740 0.669580 -0.509463
O34   O     O_R   0.167290 0.092740 0.330420 -0.507171
O35   O     O_R   0.332710 0.592740 0.669580 -0.509458
O36   O     O_R   0.667290 0.592740 0.330420 -0.507136
O37   O     O_R   0.946290 0.250060 0.676040 -0.469955
O38   O     O_R   0.053710 0.250060 0.323960 -0.454809
O39   O     O_R   0.446290 0.750060 0.676040 -0.469955
O40   O     O_R   0.553710 0.750060 0.323960 -0.454812
O41   O     O_R   0.956270 0.452200 0.830470 -0.535286
O42   O     O_R   0.043730 0.452200 0.169530 -0.527230
O43   O     O_R   0.456270 0.952200 0.830470 -0.535280
O44   O     O_R   0.543730 0.952200 0.169530 -0.527226
O45   O     O_R   0.820760 0.543950 0.823440 -0.504540
O46   O     O_R   0.179240 0.543950 0.176560 -0.501534
O47   O     O_R   0.320760 0.043950 0.823440 -0.504536
O48   O     O_R   0.679240 0.043950 0.176560 -0.501528
O49   O     O_R   0.714570 0.459210 0.828640 -0.518675
O50   O     O_R   0.285430 0.459210 0.171360 -0.522220
O51   O     O_R   0.214570 0.959210 0.828640 -0.518670
O52   O     O_R   0.785430 0.959210 0.171360 -0.522219
O53   O     O_3   0.617372 0.273102 0.427322 -0.713260
H65   H     H_    0.634339 0.349940 0.448195 0.326938
O54   O     O_3   0.379163 0.287591 0.583508 -0.715625
H66   H     H_    0.351592 0.362274 0.579386 0.341562
O55   O     O_3   0.117371 0.773134 0.427335 -0.713304
H67   H     H_    0.134454 0.849975 0.448119 0.326981
O56   O     O_3   0.879162 0.787600 0.583505 -0.715639
H68   H     H_    0.851574 0.862267 0.579403 0.341570
C133  C     C_R   0.646982 0.085802 0.594223 0.037147
C134  C     C_R   0.622059 0.105222 0.664145 -0.050785
C135  C     C_R   0.617467 0.010713 0.713571 -0.087477
C136  C     C_R   0.636514 0.894501 0.693911 -0.069752
C137  C     C_R   0.659800 0.873084 0.624883 -0.079651
C138  C     C_R   0.666016 0.967478 0.575348 -0.098917
H69   H     H_    0.606996 0.195189 0.680558 0.093879
H70   H     H_    0.598740 0.027631 0.766898 0.111047
H71   H     H_    0.632132 0.820538 0.731737 0.142281
H72   H     H_    0.671506 0.782377 0.609600 0.160318
H73   H     H_    0.685743 0.947921 0.522812 0.092728
C139  C     C_R   0.362630 0.163253 0.401080 0.030038
C140  C     C_R   0.391835 0.220736 0.340181 -0.067395
C141  C     C_R   0.401621 0.155237 0.277045 -0.072277
C142  C     C_R   0.384260 0.032107 0.274221 -0.076337
C143  C     C_R   0.357360 0.973530 0.334377 -0.092827
C144  C     C_R   0.346410 0.038042 0.397498 -0.081656
H74   H     H_    0.403477 0.316776 0.340644 0.084537
H75   H     H_    0.422354 0.200051 0.230339 0.087886
H76   H     H_    0.391996 0.981857 0.225419 0.114465
H77   H     H_    0.344264 0.878173 0.331892 0.134752
H78   H     H_    0.323393 0.991748 0.442529 0.106390
C145  C     C_R   0.146980 0.585821 0.594219 0.037138
C146  C     C_R   0.122054 0.605244 0.664140 -0.050797
C147  C     C_R   0.117461 0.510736 0.713567 -0.087473
C148  C     C_R   0.136510 0.394523 0.693909 -0.069748
C149  C     C_R   0.159800 0.373104 0.624883 -0.079640
C150  C     C_R   0.166015 0.467496 0.575345 -0.098906
H79   H     H_    0.106992 0.695213 0.680552 0.093869
H80   H     H_    0.098731 0.527655 0.766894 0.111047
H81   H     H_    0.132128 0.320561 0.731737 0.142279
H82   H     H_    0.171513 0.282396 0.609603 0.160315
H83   H     H_    0.185745 0.447938 0.522811 0.092739
C151  C     C_R   0.862630 0.663256 0.401081 0.030028
C152  C     C_R   0.891835 0.720740 0.340182 -0.067403
C153  C     C_R   0.901622 0.655242 0.277046 -0.072281
C154  C     C_R   0.884263 0.532111 0.274222 -0.076337
C155  C     C_R   0.857362 0.473533 0.334377 -0.092814
C156  C     C_R   0.846411 0.538045 0.397498 -0.081644
H84   H     H_    0.903477 0.816780 0.340646 0.084536
H85   H     H_    0.922355 0.700056 0.230341 0.087886
H86   H     H_    0.891999 0.481862 0.225420 0.114464
H87   H     H_    0.844266 0.378176 0.331892 0.134760
H88   H     H_    0.823395 0.491750 0.442529 0.106409
O57   O     O_3   0.962873 0.113185 0.367965 -0.690821
H89   H     H_    0.962345 0.027004 0.353047 0.307460
O58   O     O_3   0.059361 0.144732 0.646934 -0.710842
H90   H     H_    0.068018 0.062319 0.665912 0.320387
O59   O     O_3   0.462874 0.613184 0.367966 -0.690819
H91   H     H_    0.462345 0.527003 0.353047 0.307460
O60   O     O_3   0.559360 0.644728 0.646935 -0.710846
H92   H     H_    0.568020 0.562316 0.665912 0.320391

loop_
_geom_bond_atom_site_label_1
_geom_bond_atom_site_label_2
_ccdc_geom_bond_type
Cr2   O2    S    
C145  C146  A    
C116  O8    A    
C30   O58   S    
C2    C123  S    
C141  C142  A    
C4    O24   A    
C143  C144  A    
Cr1   O17   S    
C6    H2    S    
C94   C117  S    
C95   C99   A    
C135  C136  A    
C29   C33   A    
Cr8   O32   S    
Cr6   O18   S    
C139  C144  A    
C3    O27   A    
C82   H30   S    
C1    O25   A    
C136  C137  A    
Cr10  O38   S    
C83   H27   S    
C70   C74   A    
C9    C121  A    
C17   H53   S    
C81   H25   S    
C87   C115  S    
C80   C84   S    
C97   C105  S    
Cr4   O20   S    
C15   C127  S    
C22   C130  A    
Cr9   O17   S    
C146  H79   S    
C20   C132  S    
C9    H45   S    
C41   C49   A    
C111  O47   A    
C12   H48   S    
Cr8   O20   S    
C108  H40   S    
C23   C47   S    
C106  H42   S    
C17   C133  S    
C118  O42   A    
Cr1   O45   S    
C30   C34   A    
Cr7   O31   S    
C60   C76   A    
C7    H3    S    
C20   C151  S    
C25   C42   A    
C43   C44   A    
C37   C38   A    
C66   C82   S    
C78   C82   S    
C152  C153  A    
C16   C20   S    
C45   O29   A    
C119  O15   A    
C155  C156  A    
C115  O7    A    
C55   H7    S    
C125  C129  A    
Cr7   O27   S    
C18   C130  S    
Cr2   O42   S    
C140  H74   S    
Cr8   O52   S    
C142  H76   S    
C108  H44   S    
C120  O44   A    
Cr11  O19   S    
C10   C122  A    
C14   C126  S    
C57   C61   A    
Cr5   O49   S    
C59   C63   A    
C137  H72   S    
C98   C106  S    
C60   C64   A    
C1    C124  S    
C110  O46   A    
C49   C53   A    
Cr12  O36   S    
C89   O37   A    
C51   C55   A    
Cr5   O29   S    
C127  C131  A    
C61   C65   A    
C5    C21   A    
C49   H62   S    
C126  C130  A    
Cr4   O44   S    
C79   H23   S    
C80   H24   S    
C154  H86   S    
Cr9   O13   S    
C79   C83   S    
Cr6   O50   S    
C88   C116  S    
C72   H12   S    
C118  O14   A    
Cr1   O1    S    
C114  O6    A    
C97   C98   A    
C92   O40   A    
C54   H6    S    
C53   C54   A    
C5    C9    A    
C25   C90   S    
Cr3   O19   S    
C133  C138  A    
C64   C68   A    
C29   O57   S    
Cr12  O12   S    
O53   H65   S    
C77   H21   S    
C73   H13   S    
C156  H88   S    
C57   C73   A    
C147  H80   S    
C20   H56   S    
Cr5   O17   S    
C60   C109  S    
Cr4   O4    S    
C27   C44   A    
C61   C77   S    
C29   C38   A    
Cr9   O37   S    
C107  C108  S    
C116  O12   A    
C44   C52   A    
C141  H75   S    
C120  O16   A    
C53   H5    S    
C4    O28   A    
C114  O10   A    
C137  C138  A    
C21   C45   S    
C135  H70   S    
C100  C108  S    
C5    H1    S    
C62   C66   A    
C138  H73   S    
C24   C48   S    
C139  C140  A    
C91   O3    A    
C3    O23   A    
C39   C40   A    
C89   O1    A    
Cr10  O34   S    
C81   H29   S    
C121  C125  A    
C147  C148  A    
C119  O43   A    
C25   C38   A    
C123  C127  A    
C27   C40   A    
C8    C12   A    
C23   C131  A    
C21   C129  A    
C42   C50   A    
C47   O31   A    
C102  H34   S    
Cr11  O35   S    
C92   O4    A    
C93   C97   A    
C69   C85   A    
C58   C74   A    
C69   H9    S    
C134  H69   S    
C62   C78   S    
Cr3   O43   S    
C84   H28   S    
C66   C86   A    
O56   H68   S    
C152  H84   S    
C19   H55   S    
C155  H87   S    
C13   C17   S    
C85   C113  S    
C13   C125  S    
C148  H81   S    
C112  O52   A    
C34   H58   S    
C7    C23   A    
C96   C100  A    
C8    C24   A    
C28   C91   S    
C11   H47   S    
Cr2   O22   S    
C16   O56   S    
C16   H50   S    
C2    O22   A    
Cr11  O11   S    
C142  C143  A    
Cr3   O23   S    
C105  H37   S    
C58   C62   A    
Cr3   O3    S    
C55   C56   A    
C101  C102  A    
Cr1   O41   S    
C52   H63   S    
C41   C42   A    
C96   C119  S    
C35   C36   A    
C48   O36   A    
O54   H66   S    
C15   C19   S    
C50   C54   A    
C148  C149  A    
C112  O48   A    
C94   C98   A    
C6    C22   A    
C31   C40   A    
Cr7   O19   S    
C32   C39   A    
C80   H20   S    
Cr9   O9    S    
C2    O26   A    
C32   O60   S    
Cr7   O7    S    
Cr7   O51   S    
C18   H54   S    
C69   C73   A    
C56   H8    S    
C124  C128  A    
O58   H90   S    
C19   C145  S    
C133  C134  A    
C64   C80   S    
C8    H4    S    
C111  O51   A    
C48   O32   A    
Cr10  O18   S    
C77   H17   S    
C153  H85   S    
C91   O39   A    
C78   H22   S    
C74   H14   S    
C58   C111  S    
C68   C84   S    
C149  C150  A    
C117  O41   A    
C28   C39   A    
C151  C156  A    
Cr9   O33   S    
C30   C37   A    
C24   C132  A    
C65   C81   S    
C77   C81   S    
C71   H11   S    
C71   C87   A    
C22   C46   S    
C143  H77   S    
C31   C35   A    
Cr6   O26   S    
C46   O34   A    
C32   C36   A    
Cr6   O6    S    
C11   C123  A    
C15   O55   S    
C93   C102  A    
C6    C10   A    
C26   C37   A    
C110  O50   A    
C149  H82   S    
C95   C120  S    
C99   C107  S    
C105  C106  S    
C28   C43   A    
C145  C150  A    
C47   O35   A    
C43   C51   A    
O57   H89   S    
C90   O38   A    
C109  O45   A    
Cr11  O39   S    
C4    C121  S    
C103  H35   S    
Cr1   O21   S    
C101  H33   S    
C14   O54   S    
O60   H92   S    
C15   H49   S    
C154  C155  A    
C13   H51   S    
C96   C103  A    
C103  C104  A    
Cr8   O28   S    
C134  C135  A    
Cr3   O47   S    
C84   H32   S    
C82   H26   S    
C136  H71   S    
C83   H31   S    
C14   C18   S    
C117  O13   A    
C113  O5    A    
C72   C76   A    
C63   C79   S    
C26   C89   S    
C7    C11   A    
Cr4   O24   S    
C10   H46   S    
Cr2   O18   S    
C146  C147  A    
Cr11  O15   S    
C57   C112  S    
C107  H43   S    
C59   C110  S    
C105  H41   S    
C31   O59   S    
C106  H38   S    
Cr10  O10   S    
C94   C101  A    
O55   H67   S    
C3    C122  S    
C115  O11   A    
C59   C75   A    
C128  C132  A    
C113  O9    A    
C72   C88   A    
C19   C131  S    
C150  H83   S    
C63   C67   A    
C17   C129  S    
Cr2   O46   S    
C90   O2    A    
C51   H64   S    
C140  C141  A    
C144  H78   S    
C107  H39   S    
C122  C126  A    
C99   C100  A    
C12   C124  A    
C33   C34   A    
C27   C92   S    
C67   C83   S    
C16   C128  S    
C153  C154  A    
C78   H18   S    
Cr12  O40   S    
C68   C88   A    
C18   C139  S    
C93   C118  S    
Cr5   O25   S    
C70   C86   A    
C45   O33   A    
C95   C104  A    
C75   H15   S    
C14   H52   S    
C151  C152  A    
C76   H16   S    
Cr5   O5    S    
C70   H10   S    
Cr4   O48   S    
C79   H19   S    
C65   C85   A    
C67   C87   A    
C86   C114  S    
C71   C75   A    
C35   H59   S    
C104  H36   S    
C33   H57   S    
Cr6   O30   S    
C46   O30   A    
C109  O49   A    
O59   H91   S    
Cr12  O16   S    
Cr8   O8    S    
C50   H61   S    
C1    O21   A    
Cr12  O20   S    
C36   H60   S    
C13   O53   S    
Cr10  O14   S    
C52   C56   A    
C26   C41   A    
