data_mof_unit_52193.cif
_audit_creation_date              2012-12-10T17:35:43-0500
_audit_creation_method            fapswitch 2.2
_symmetry_space_group_name_H-M    P1
_symmetry_Int_Tables_number       1
_space_group_crystal_system       triclinic
_cell_length_a                    10.489193
_cell_length_b                    12.167649
_cell_length_c                    12.731057
_cell_angle_alpha                 96.294079
_cell_angle_beta                  91.821572
_cell_angle_gamma                 86.296696
_cell_volume                      1611.18321656

loop_
_atom_site_label
_atom_site_type_symbol
_atom_type_description
_atom_site_fract_x
_atom_site_fract_y
_atom_site_fract_z
_atom_type_partial_charge
C1    C     C_R   0.498507 0.523989 0.700445 0.876832
C2    C     C_R   0.571608 0.172198 0.610661 -0.018953
C3    C     C_R   0.533373 0.864968 0.557099 0.252363
C4    C     C_R   0.480628 0.131721 0.438430 0.252948
C5    C     C_R   0.526771 0.981045 0.547575 0.059166
C6    C     C_R   0.470415 0.018917 0.455764 0.035729
C7    C     C_R   0.741971 0.500087 0.500858 0.865408
C8    C     C_R   0.257999 0.499930 0.499145 0.862127
C9    C     C_3   0.967347 0.397188 0.514449 -0.181572
C10   C     C_3   0.032545 0.602932 0.485542 -0.184522
C11   C     C_3   0.047611 0.472255 0.591726 0.049370
C12   C     C_R   0.500398 0.475837 0.299598 0.877900
C13   C     C_3   0.952264 0.527873 0.408282 0.047957
C14   C     C_3   0.122845 0.500593 0.499130 -0.024569
C15   C     C_3   0.877070 0.499496 0.500852 -0.024008
C16   C     C_3   0.044300 0.426205 0.420332 -0.241455
C17   C     C_3   0.955540 0.573929 0.579654 -0.241830
C18   C     C_R   0.502462 0.458376 0.186969 -0.037133
C19   C     C_R   0.493378 0.540263 0.813088 -0.038295
C20   C     C_R   0.382643 0.615305 0.969710 -0.202793
C21   C     C_R   0.609365 0.380393 0.029555 -0.205548
C22   C     C_R   0.402815 0.616135 0.862790 -0.203949
C23   C     C_R   0.565193 0.464580 0.869047 -0.273040
C24   C     C_R   0.589048 0.379346 0.136451 -0.199179
C25   C     C_1   0.104526 0.442350 0.692331 0.139909
C26   C     C_1   0.895340 0.557749 0.307672 0.137973
C27   C     C_3   0.470991 0.159420 0.325208 -0.368922
C28   C     C_3   0.338555 0.207314 0.294360 -0.826591
C29   C     C_3   0.607566 0.821985 0.649558 -0.386699
C30   C     C_3   0.527767 0.835443 0.749206 -0.843581
C31   C     C_R   0.430481 0.534052 0.131223 -0.273511
C32   C     C_R   0.542765 0.460413 0.974481 0.190448
C33   C     C_R   0.450999 0.536699 0.025265 0.189386
C34   C     C_R   0.409187 0.942457 0.382157 -0.333687
C35   C     C_R   0.578514 0.059838 0.624779 -0.331251
C36   C     C_R   0.412621 0.830369 0.396569 -0.012708
H1    H     H_    0.937523 0.313843 0.527226 0.153447
H2    H     H_    0.678993 0.321082 0.990773 0.137587
H3    H     H_    0.608480 0.230800 0.672325 0.146047
H4    H     H_    0.366153 0.773123 0.338954 0.140410
H5    H     H_    0.357433 0.967861 0.313286 0.163662
H6    H     H_    0.623463 0.037449 0.697371 0.162674
H7    H     H_    0.265348 0.146720 0.300853 0.231496
H8    H     H_    0.310946 0.283581 0.345349 0.286449
H9    H     H_    0.338681 0.227278 0.211341 0.241280
H10   H     H_    0.549655 0.210345 0.309578 0.219196
H11   H     H_    0.493990 0.084883 0.269083 0.170777
H12   H     H_    0.062404 0.686261 0.472744 0.153244
H13   H     H_    0.430794 0.806247 0.730659 0.268763
H14   H     H_    0.575372 0.786764 0.809795 0.252825
H15   H     H_    0.516701 0.923139 0.783345 0.241461
H16   H     H_    0.641533 0.735375 0.631019 0.255580
H17   H     H_    0.698009 0.864202 0.665098 0.165679
H18   H     H_    0.083860 0.367205 0.354993 0.140995
H19   H     H_    0.915101 0.632978 0.644643 0.137785
H20   H     H_    0.362674 0.594118 0.171709 0.138131
H21   H     H_    0.634472 0.405580 0.829008 0.136835
H22   H     H_    0.645850 0.321741 0.180584 0.142602
H23   H     H_    0.343320 0.671337 0.818159 0.149234
H24   H     H_    0.311595 0.673498 0.008093 0.138861
N1    N     N_R   0.523490 0.207800 0.519350 -0.112563
N2    N     N_R   0.476510 0.792200 0.480650 -0.117053
N3    N     N_1   0.149662 0.418887 0.771575 -0.199090
N4    N     N_1   0.850191 0.581181 0.228420 -0.200852
O1    O     O_R   0.506270 0.421700 0.658830 -0.617070
O2    O     O_R   0.493730 0.578300 0.341170 -0.614039
O3    O     O_R   0.491200 0.609310 0.646410 -0.629585
O4    O     O_R   0.508800 0.390690 0.353590 -0.631722
O5    O     O_R   0.693580 0.406210 0.506230 -0.628584
O6    O     O_R   0.306420 0.593790 0.493770 -0.625790
O7    O     O_R   0.678510 0.593830 0.493810 -0.634493
O8    O     O_R   0.321490 0.406170 0.506190 -0.613817
Zn1   Zn    Zn3+2 0.510060 0.374730 0.508290 0.935537
Zn2   Zn    Zn3+2 0.489940 0.625270 0.491710 0.930382

loop_
_geom_bond_atom_site_label_1
_geom_bond_atom_site_label_2
_ccdc_geom_bond_type
C2    C35   A    
C30   H15   S    
C12   O4    A    
C18   C24   A    
C9    C16   S    
C7    O7    A    
C5    C6    A    
C11   C14   S    
C11   C25   S    
C10   C17   S    
O2    Zn2   S    
O1    Zn1   S    
C15   C17   S    
C25   N3    T    
C3    C29   S    
C35   H6    S    
C26   N4    T    
C2    H3    S    
C21   H2    S    
O6    Zn2   S    
C1    O1    A    
C31   C33   A    
O5    Zn1   S    
C31   H20   S    
C20   H24   S    
C17   H19   S    
C2    N1    A    
C7    C15   S    
C30   H14   S    
C34   H5    S    
C36   N2    A    
C21   C32   A    
C28   H9    S    
C8    O8    A    
C1    C19   S    
C36   H4    S    
C19   C22   A    
C4    C6    A    
C10   C14   S    
C22   H23   S    
N1    Zn1   S    
O4    Zn1   S    
C12   O2    A    
C4    N1    A    
C28   H8    S    
C6    C34   A    
C19   C23   A    
C29   C30   S    
C9    H1    S    
O3    Zn2   S    
C9    C11   S    
C20   C33   A    
C27   H10   S    
C30   H13   S    
C20   C22   A    
C13   C15   S    
C10   H12   S    
C14   C16   S    
C13   C26   S    
C13   C16   S    
C4    C27   S    
C3    N2    A    
C27   H11   S    
C23   H21   S    
C11   C17   S    
C8    C14   S    
O8    Zn1   S    
C3    C5    A    
C10   C13   S    
C7    O5    A    
O7    Zn2   S    
C28   H7    S    
C8    O6    A    
C23   C32   A    
C9    C15   S    
C32   C33   A    
C29   H17   S    
C5    C35   A    
C1    O3    A    
C34   C36   A    
C16   H18   S    
C24   H22   S    
C21   C24   A    
C12   C18   S    
C27   C28   S    
N2    Zn2   S    
C18   C31   A    
C29   H16   S    
