data_mof_unit_54777.cif
_audit_creation_date              2012-12-11T16:07:37-0500
_audit_creation_method            fapswitch 2.2
_symmetry_space_group_name_H-M    P1
_symmetry_Int_Tables_number       1
_space_group_crystal_system       triclinic
_cell_length_a                    6.944983
_cell_length_b                    14.358806
_cell_length_c                    15.952558
_cell_angle_alpha                 90.403144
_cell_angle_beta                  90.232401
_cell_angle_gamma                 89.725986
_cell_volume                      1590.74518055

loop_
_atom_site_label
_atom_site_type_symbol
_atom_type_description
_atom_site_fract_x
_atom_site_fract_y
_atom_site_fract_z
_atom_type_partial_charge
O1    O     O_R   0.494320 0.415010 0.412140 -0.539717
O2    O     O_R   0.824010 0.404260 0.587250 -0.543187
O3    O     O_R   0.994320 0.584990 0.587860 -0.537584
C1    C     C_R   0.655210 0.384043 0.617879 0.677185
O4    O     O_R   0.824040 0.403870 0.412760 -0.543612
O5    O     O_R   0.994350 0.584590 0.412130 -0.539054
C2    C     C_R   0.655247 0.381160 0.383811 0.654554
O6    O     O_R   0.494300 0.415410 0.587870 -0.537094
O7    O     O_3   0.660800 0.559290 0.500000 -0.366046
V1    V     V_3+5 0.935650 0.489000 0.500000 1.372111
O8    O     O_R   0.324060 0.595740 0.412750 -0.543365
C3    C     C_R   0.154897 0.618043 0.383493 0.650698
O9    O     O_R   0.324040 0.596130 0.587240 -0.540959
C4    C     C_R   0.155029 0.618232 0.616376 0.680969
V2    V     V_3+5 0.435660 0.511000 0.500000 1.373840
O10   O     O_3   0.160640 0.440710 0.500000 -0.367666
C5    C     C_3   0.955088 0.721475 0.728648 -0.111175
C6    C     C_3   0.049717 0.709491 0.816062 -0.135661
H1    H     H_    0.980659 0.677085 0.871228 0.109338
H2    H     H_    0.807722 0.698467 0.711262 0.110032
C7    C     C_3   0.122855 0.810355 0.811975 -0.007092
C8    C     C_3   0.028323 0.823136 0.725345 -0.147986
C9    C     C_3   0.216736 0.788960 0.683058 -0.147942
C10   C     C_3   0.311363 0.776965 0.770466 -0.113162
C11   C     C_3   0.238123 0.675306 0.773767 -0.140181
C12   C     C_3   0.143612 0.688100 0.687127 -0.009085
H3    H     H_    0.941459 0.884440 0.705856 0.093187
H4    H     H_    0.285813 0.821339 0.627885 0.093116
H5    H     H_    0.458746 0.799937 0.787859 0.109621
H6    H     H_    0.325062 0.614140 0.793472 0.110326
C13   C     C_3   0.336540 0.792482 0.213678 -0.306937
H7    H     H_    0.420544 0.765296 0.159411 0.140471
H8    H     H_    0.404758 0.858933 0.234096 0.127750
C14   C     C_3   0.348292 0.721637 0.286143 -0.313003
H9    H     H_    0.422115 0.754584 0.340780 0.133073
H10   H     H_    0.437688 0.660956 0.266074 0.135004
H11   H     H_    0.112780 0.687383 0.104752 0.128348
H12   H     H_    0.130409 0.582049 0.212539 0.125008
C15   C     C_3   0.035332 0.715719 0.160351 -0.315441
C16   C     C_3   0.013396 0.846889 0.265048 -0.324640
C17   C     C_3   0.123930 0.810671 0.186746 0.115594
H13   H     H_    0.859602 0.859626 0.248691 0.134371
H14   H     H_    0.074782 0.914622 0.286082 0.114773
C18   C     C_3   0.144260 0.688257 0.312085 0.114996
C19   C     C_3   0.047226 0.644447 0.233291 -0.317711
C20   C     C_3   0.025245 0.775641 0.338002 -0.318205
H15   H     H_    0.092314 0.809306 0.393888 0.116431
H16   H     H_    0.877028 0.754758 0.356017 0.139559
H17   H     H_    0.882031 0.725578 0.141711 0.139975
H18   H     H_    0.899533 0.620587 0.248982 0.135496
C21   C     C_3   0.422300 0.296561 0.711230 0.061017
H19   H     H_    0.348176 0.275971 0.651798 0.098938
C22   C     C_3   0.406304 0.210762 0.771053 0.050292
H20   H     H_    0.373776 0.150100 0.729294 0.090157
H21   H     H_    0.683336 0.421838 0.789041 0.174602
C23   C     C_3   0.737041 0.351423 0.771578 -0.334881
C24   C     C_3   0.738595 0.221607 0.665264 -0.400627
C25   C     C_3   0.639394 0.315248 0.689972 0.026084
H22   H     H_    0.890682 0.233975 0.646829 0.166200
H23   H     H_    0.663679 0.190819 0.609927 0.132778
C26   C     C_3   0.610414 0.189256 0.812605 0.030599
C27   C     C_3   0.707517 0.281262 0.844567 0.260813
C28   C     C_3   0.735459 0.151412 0.738881 -0.483269
H24   H     H_    0.678112 0.083543 0.715980 0.142049
H25   H     H_    0.884407 0.136860 0.760164 0.163334
H26   H     H_    0.891995 0.360571 0.760563 0.110662
H27   H     H_    0.850059 0.263737 0.871712 0.103365
C29   C     C_3   0.546182 0.354145 0.234507 -0.336134
H28   H     H_    0.397947 0.377832 0.250602 0.139684
H29   H     H_    0.627659 0.416592 0.214272 0.129779
C30   C     C_3   0.535563 0.282726 0.161076 -0.292706
H30   H     H_    0.615639 0.310418 0.106603 0.197876
H31   H     H_    0.382855 0.273746 0.141334 0.154648
H32   H     H_    0.378863 0.245358 0.357546 0.138364
H33   H     H_    0.358726 0.141040 0.248742 0.135476
C31   C     C_3   0.526630 0.223838 0.338537 -0.316997
C32   C     C_3   0.848845 0.276522 0.286243 -0.316901
C33   C     C_3   0.644813 0.310535 0.312599 0.118457
H34   H     H_    0.923875 0.244247 0.340653 0.132918
H35   H     H_    0.937142 0.336742 0.265887 0.136974
C34   C     C_3   0.623423 0.187621 0.187062 0.092854
C35   C     C_3   0.512853 0.152459 0.265037 -0.331431
C36   C     C_3   0.836425 0.204723 0.213944 -0.308915
H36   H     H_    0.920805 0.230534 0.159720 0.151778
H37   H     H_    0.903976 0.138124 0.234393 0.128363
H38   H     H_    0.595438 0.190155 0.393748 0.114212
H39   H     H_    0.573275 0.084284 0.285320 0.115628
O11   O     O_R   0.771990 0.083520 0.910980 -0.546738
O12   O     O_R   0.442180 0.095020 0.086060 -0.538013
O13   O     O_R   0.271950 0.914280 0.086680 -0.542040
C37   C     C_R   0.611347 0.117343 0.115430 0.688820
O14   O     O_R   0.442270 0.094630 0.911580 -0.531596
O15   O     O_R   0.272040 0.913890 0.910940 -0.541160
C38   C     C_R   0.608597 0.116785 0.882239 0.732532
O16   O     O_R   0.771900 0.083910 0.086710 -0.539403
O17   O     O_3   0.605520 0.939610 0.998840 -0.370566
V3    V     V_3+5 0.330640 0.009880 0.998810 1.397055
O18   O     O_R   0.942330 0.902710 0.911540 -0.541621
C39   C     C_R   0.111387 0.880435 0.882564 0.671857
O19   O     O_R   0.942240 0.903100 0.086030 -0.544033
C40   C     C_R   0.111798 0.880837 0.115320 0.646704
V4    V     V_3+5 0.830640 0.987830 0.998780 1.384771
O20   O     O_3   0.105630 0.058150 0.998800 -0.366270
C41   C     C_3   0.317843 0.386834 0.743361 -0.693506
H40   H     H_    0.174536 0.392140 0.713419 0.179348
H41   H     H_    0.302550 0.389661 0.812307 0.254893
H42   H     H_    0.393087 0.451940 0.726838 0.185483
C42   C     C_3   0.225827 0.214799 0.827120 -0.714782
H43   H     H_    0.249721 0.252618 0.886863 0.267839
H44   H     H_    0.108493 0.248667 0.792047 0.177273
H45   H     H_    0.169992 0.144178 0.840251 0.204810
Cl1   Cl    Cl    0.581667 0.335054 0.929872 -0.767015

loop_
_geom_bond_atom_site_label_1
_geom_bond_atom_site_label_2
_ccdc_geom_bond_type
H21   C23   S    
C28   H25   S    
O17   V4    S    
C6    C7    S    
C1    O6    A    
C41   H41   S    
C34   C35   S    
C15   C17   S    
C32   C33   S    
C16   C20   S    
H32   C31   S    
C27   H27   S    
C5    C12   S    
C31   C33   S    
C14   H9    S    
O5    C3    A    
C7    C39   S    
C24   H22   S    
C32   C36   S    
C35   H39   S    
C5    H2    S    
C42   H43   S    
C6    H1    S    
C9    C12   S    
C26   C28   S    
C10   H5    S    
H12   C19   S    
C22   C26   S    
C16   H14   S    
C36   H36   S    
C42   H44   S    
C29   H28   S    
C9    C10   S    
C13   H8    S    
O1    V2    S    
O12   C37   A    
O7    V1    S    
O15   C39   A    
O13   V3    S    
C17   C40   S    
O16   V4    S    
C15   C19   S    
C16   H13   S    
O9    C4    A    
V4    O20   S    
C6    C11   S    
O8    V2    S    
O19   V4    S    
C41   H40   S    
C34   C36   S    
C18   C20   S    
O14   V3    S    
C24   C28   S    
O11   C38   A    
C32   H34   S    
C29   C33   S    
C20   H16   S    
C21   H19   S    
C14   C18   S    
C10   C11   S    
C31   C35   S    
C30   H31   S    
C26   C38   S    
C24   H23   S    
C11   C12   S    
C22   H20   S    
O12   V3    S    
C21   C22   S    
O2    C1    A    
O13   C40   A    
C13   H7    S    
O17   V3    S    
O14   C38   A    
C5    C6    S    
C13   C14   S    
C21   C25   S    
C9    H4    S    
C4    C12   S    
V3    O20   S    
O3    C4    A    
C2    C33   S    
C29   H29   S    
C16   C17   S    
C15   H17   S    
O6    V2    S    
C8    H3    S    
O9    V2    S    
C23   C27   S    
C7    C10   S    
O2    V1    S    
O15   V3    S    
C18   C19   S    
O4    C2    A    
C32   H35   S    
C11   H6    S    
C20   H15   S    
C13   C17   S    
C36   H37   S    
O1    C2    A    
O5    V1    S    
O11   V4    S    
O8    C3    A    
H33   C35   S    
C5    C8    S    
C42   H45   S    
C21   C41   S    
O4    V1    S    
H11   C15   S    
O3    V1    S    
O18   V4    S    
C22   C42   S    
C24   C25   S    
C19   H18   S    
C29   C30   S    
C23   H26   S    
O19   C40   A    
C23   C25   S    
C14   H10   S    
O7    V2    S    
C26   C27   S    
C37   O16   A    
C28   H24   S    
C34   C37   S    
C30   H30   S    
C27   Cl1   S    
C3    C18   S    
O18   C39   A    
C31   H38   S    
C1    C25   S    
C8    C9    S    
V1    O10   S    
C7    C8    S    
C41   H42   S    
V2    O10   S    
C30   C34   S    
