data_mof_unit_49157.cif
_audit_creation_date              2012-12-11T16:34:08-0500
_audit_creation_method            fapswitch 2.2
_symmetry_space_group_name_H-M    P1
_symmetry_Int_Tables_number       1
_space_group_crystal_system       triclinic
_cell_length_a                    8.276454
_cell_length_b                    17.413418
_cell_length_c                    27.03025
_cell_angle_alpha                 95.737232
_cell_angle_beta                  92.424013
_cell_angle_gamma                 83.720998
_cell_volume                      3850.93234531

loop_
_atom_site_label
_atom_site_type_symbol
_atom_type_description
_atom_site_fract_x
_atom_site_fract_y
_atom_site_fract_z
_atom_type_partial_charge
Ba1   Ba    Ba6+2 0.856110 0.463800 0.523550 1.368406
Ba2   Ba    Ba6+2 0.333710 0.536130 0.476450 1.583855
C1    C     C_3   0.764003 0.192406 0.686752 -0.167225
C2    C     C_3   0.687980 0.261681 0.660685 1.213279
C3    C     C_3   0.509289 0.641392 0.626309 0.244711
C4    C     C_3   0.500566 0.658991 0.682424 -0.358605
C5    C     C_3   0.974109 0.727087 0.344795 0.281041
C6    C     C_3   0.934204 0.773351 0.300206 -0.328874
C7    C     C_3   0.484840 0.738300 0.336480 0.895056
C8    C     C_3   0.404550 0.804309 0.307814 0.256990
C9    C     C_R   0.979085 0.442836 0.177733 0.545513
C10   C     C_R   0.973602 0.581272 0.184033 0.656753
C11   C     C_2   0.770102 0.561404 0.272577 -0.164860
C12   C     C_3   0.231243 0.246594 0.652135 0.263966
C13   C     C_3   0.741950 0.583145 0.327310 -0.143917
C14   C     C_1   0.982015 0.490924 0.344183 0.091735
C15   C     C_2   0.020798 0.482615 0.296375 -0.162749
C16   C     C_2   0.909472 0.518841 0.257689 0.238974
C17   C     C_R   0.029737 0.506983 0.103980 -0.085190
C18   C     C_R   0.017212 0.438448 0.126727 0.019622
C19   C     C_R   0.041335 0.366999 0.097865 -0.042981
C20   C     C_R   0.008756 0.578708 0.133072 -0.134886
C21   C     C_2   0.852176 0.535936 0.361263 0.374311
C22   C     C_2   0.340618 0.471005 0.639458 -0.263183
C23   C     C_3   0.204654 0.232049 0.705781 0.239906
C24   C     C_R   0.140544 0.427302 0.973390 0.009279
C25   C     C_R   0.089747 0.569680 0.976606 0.059702
C26   C     C_R   0.132612 0.496725 0.949407 0.034251
C27   C     C_R   0.194300 0.356643 0.945606 -0.083089
C28   C     C_R   0.233084 0.354063 0.895792 0.008076
C29   C     C_R   0.218786 0.421643 0.871059 -0.059919
C30   C     C_R   0.167168 0.493063 0.897616 -0.015926
C31   C     C_R   0.150026 0.560706 0.872408 -0.070546
C32   C     C_R   0.186484 0.556135 0.821197 0.659326
C33   C     C_R   0.256171 0.418810 0.820309 0.658146
C34   C     C_3   0.197863 0.300646 0.418122 0.434949
C35   C     C_2   0.423626 0.442397 0.727031 -0.076703
C36   C     C_3   0.447226 0.420301 0.672147 0.012292
C37   C     C_1   0.205811 0.510651 0.656605 0.034523
C38   C     C_2   0.164515 0.514675 0.704189 -0.086150
C39   C     C_2   0.281208 0.481038 0.742867 0.208273
C40   C     C_R   0.095557 0.430627 0.024113 0.067254
C41   C     C_R   0.064554 0.503778 0.052248 -0.010146
C42   C     C_R   0.069680 0.573662 0.029301 -0.069188
C43   C     C_R   0.079995 0.363034 0.047885 -0.086788
C44   C     C_R   0.027073 0.646552 0.111001 -0.057190
C45   C     C_3   0.208349 0.212765 0.406002 0.288844
C46   C     C_R   0.063614 0.635684 0.949491 0.006564
C47   C     C_R   0.094705 0.631388 0.898847 -0.090599
C48   C     C_R   0.058974 0.644541 0.060598 0.595902
C49   C     C_R   0.413818 0.279913 0.522158 -0.285127
C50   C     C_R   0.554689 0.255305 0.496112 0.060140
C51   C     C_R   0.610681 0.175766 0.489895 0.591101
C52   C     C_R   0.523937 0.121285 0.509565 -0.016735
C53   C     C_R   0.377437 0.146654 0.533610 -0.159426
C54   C     C_R   0.321292 0.225998 0.538909 -0.006194
C55   C     C_R   0.591149 0.836156 0.511960 -0.091487
C56   C     C_3   0.971971 0.701366 0.588590 0.790068
C57   C     C_R   0.643612 0.756580 0.507380 0.046915
C58   C     C_R   0.879896 0.780031 0.463585 0.035257
C59   C     C_R   0.828696 0.860078 0.467928 -0.116092
C60   C     C_R   0.682473 0.888306 0.491734 0.051605
C61   C     C_1   0.628514 0.970664 0.497538 0.034335
C62   C     C_1   0.581043 0.039249 0.502972 0.131745
C63   C     C_R   0.783446 0.729002 0.481613 -0.184765
C64   C     C_3   0.927466 0.785612 0.608417 -0.201989
C65   C     C_3   0.655310 0.360907 0.369971 0.842804
C66   C     C_3   0.571029 0.345649 0.319321 -0.230395
H1    H     H_    0.247148 0.182798 0.439557 -0.073303
H2    H     H_    0.085826 0.196125 0.394073 0.145187
H3    H     H_    0.859634 0.674073 0.578340 -0.043289
H4    H     H_    0.844816 0.788614 0.640031 0.082517
H5    H     H_    0.865785 0.818860 0.578903 0.039679
H6    H     H_    0.039021 0.812808 0.621343 0.128344
H7    H     H_    0.604052 0.418212 0.387603 0.016870
H8    H     H_    0.886801 0.172431 0.672678 0.167647
H9    H     H_    0.617313 0.287513 0.301624 0.153762
H10   H     H_    0.596206 0.389807 0.294573 0.090990
H11   H     H_    0.437782 0.347432 0.323402 0.093792
H12   H     H_    0.560997 0.273823 0.673171 -2.732214
H13   H     H_    0.687100 0.143809 0.679472 0.100701
H14   H     H_    0.389954 0.624550 0.611533 0.068928
H15   H     H_    0.604670 0.592253 0.618348 0.083420
H16   H     H_    0.402345 0.706380 0.691668 0.172473
H17   H     H_    0.474505 0.606501 0.699504 0.099457
H18   H     H_    0.618459 0.676901 0.698086 0.162089
H19   H     H_    0.773045 0.208340 0.727528 0.144375
H20   H     H_    0.317373 0.240324 0.728625 0.129099
H21   H     H_    0.023235 0.666974 0.331528 0.052832
H22   H     H_    0.858710 0.725718 0.364108 -0.028616
H23   H     H_    0.042437 0.770790 0.277060 0.156416
H24   H     H_    0.834729 0.748980 0.277030 0.140722
H25   H     H_    0.894073 0.834825 0.312981 0.129245
H26   H     H_    0.612121 0.727487 0.324517 -0.125491
H27   H     H_    0.470551 0.856282 0.317393 0.070727
H28   H     H_    0.276571 0.820398 0.318708 0.089150
H29   H     H_    0.265916 0.306264 0.651893 0.035656
H30   H     H_    0.135571 0.450808 0.285005 0.125453
H31   H     H_    0.030579 0.313279 0.113918 0.147361
H32   H     H_    0.512670 0.418093 0.753413 0.155952
H33   H     H_    0.274267 0.298201 0.876552 0.164902
H34   H     H_    0.212040 0.302074 0.961698 0.096642
H35   H     H_    0.092980 0.305723 0.028439 0.098738
H36   H     H_    0.688509 0.589094 0.245570 0.120783
H37   H     H_    0.019032 0.702247 0.133067 0.167134
H38   H     H_    0.011782 0.691308 0.965887 0.173461
H39   H     H_    0.332010 0.203698 0.637831 0.030573
H40   H     H_    0.073930 0.684111 0.880304 0.166815
H41   H     H_    0.045636 0.541928 0.715304 0.144039
H42   H     H_    0.362427 0.462951 0.599882 0.089213
H43   H     H_    0.482740 0.857444 0.532336 0.094710
H44   H     H_    0.305674 0.105050 0.547007 0.113365
H45   H     H_    0.902709 0.899844 0.453526 0.097544
H46   H     H_    0.369055 0.340890 0.525826 0.090169
H47   H     H_    0.824045 0.667645 0.478892 0.148793
H48   H     H_    0.178716 0.171027 0.706913 0.126256
H49   H     H_    0.320389 0.318054 0.427863 -0.145554
H50   H     H_    0.117755 0.316781 0.450245 -0.010864
N1    N     N_R   0.955507 0.513945 0.205728 -0.428537
N2    N     N_R   0.240023 0.485594 0.795497 -0.455302
O1    O     O_2   0.910880 0.540430 0.617910 -0.457561
O2    O     O_3   0.637200 0.299032 0.397787 -0.629947
O3    O     O_3   0.088308 0.237827 0.623334 -0.527460
O4    O     O_2   0.278810 0.459550 0.382060 -0.495613
O5    O     O_3   0.046820 0.459570 0.442260 -0.392113
O6    O     O_3   0.514050 0.597710 0.411540 -0.353377
O7    O     O_3   0.135104 0.335974 0.376174 -0.548990
O8    O     O_3   0.627090 0.591350 0.524530 -0.438973
O9    O     O_3   0.103080 0.636600 0.435820 -0.404427
O10   O     O_2   0.219858 0.772645 0.464748 -0.390929
O11   O     O_3   0.092037 0.762020 0.375493 -0.578643
O12   O     O_3   0.142880 0.540370 0.557740 -0.423880
O13   O     O_3   0.562610 0.408580 0.475460 -0.479814
O14   O     O_2   0.365880 0.685750 0.523280 -0.344541
O15   O     O_3   0.546830 0.707689 0.605495 -0.636280
O16   O     O_2   0.441403 0.520764 0.324460 -0.509198
O17   O     O_3   0.401776 0.671812 0.325945 -0.623494
O18   O     O_2   0.965136 0.383425 0.196982 -0.547142
O19   O     O_2   0.302737 0.356293 0.798156 -0.580598
O20   O     O_2   0.960033 0.643706 0.209239 -0.596521
O21   O     O_2   0.173137 0.615241 0.799854 -0.560080
O22   O     O_3   0.675650 0.402220 0.588450 -0.393256
O23   O     O_2   0.752656 0.477684 0.675903 -0.461361
O24   O     O_3   0.061232 0.663593 0.625606 -0.631569
O25   O     O_3   0.776825 0.325825 0.673426 -0.538255
O26   O     O_2   0.823810 0.314230 0.476690 -0.386743
O27   O     O_3   0.086630 0.363340 0.564170 -0.449910
O28   O     O_2   0.984721 0.226348 0.531155 -0.367860
P1    P     P_3+3 0.078810 0.562990 0.610370 1.068710
P2    P     P_3+3 0.645380 0.325580 0.462150 1.137937
P3    P     P_3+3 0.120717 0.262078 0.563653 1.081317
P4    P     P_3+3 0.110900 0.436950 0.389630 1.169366
P5    P     P_3+3 0.074390 0.738343 0.436151 1.169961
P6    P     P_3+3 0.663297 0.408366 0.653201 1.087297
P7    P     P_3+3 0.548139 0.687698 0.540744 1.012390
P8    P     P_3+3 0.524978 0.592133 0.346524 1.062498
F1    F     F_    0.688258 0.241902 0.609763 -0.697046
O29   O     O_3   0.315909 0.188673 0.367425 -0.669919
H51   H     H_    0.427310 0.186965 0.382678 0.315916
F2    F     F_    0.065199 0.699162 0.547415 -0.696373
F3    F     F_    0.817473 0.361662 0.362355 -0.741056
F4    F     F_    0.482628 0.761812 0.386964 -0.739898
O30   O     O_3   0.413032 0.783922 0.256397 -0.727336
H52   H     H_    0.326466 0.749472 0.247088 0.325584
F5    F     F_    0.092784 0.712208 0.044652 -0.692881
F6    F     F_    0.834483 0.555165 0.410785 -0.702131
F7    F     F_    0.745334 0.151190 0.463264 -0.675675
O31   O     O_3   0.073686 0.281665 0.725814 -0.644028
H53   H     H_    0.100188 0.335622 0.724493 0.356549

loop_
_geom_bond_atom_site_label_1
_geom_bond_atom_site_label_2
_ccdc_geom_bond_type
C25   C46   A    
C53   C54   A    
C32   O21   D    
C8    O30   S    
C53   H44   S    
C17   C18   A    
O28   P3    D    
Ba1   O12   S    
C9    N1    Am   
C22   C37   D    
Ba1   O26   S    
C21   F6    S    
C55   C60   A    
C51   C52   A    
Ba2   O14   S    
C4    H17   S    
C11   C16   D    
C12   H29   S    
C3    C4    S    
O2    P2    S    
C9    O18   D    
Ba1   O5    S    
C2    H12   S    
C28   C29   A    
C19   H31   S    
C56   H3    S    
C55   C57   A    
C31   C47   A    
C64   H6    S    
C44   H37   S    
C10   C20   A    
Ba2   O9    S    
O15   P7    S    
C34   C45   S    
C49   C54   A    
C58   P5    S    
C45   H1    S    
Ba1   O22   S    
C43   H35   S    
O8    P7    S    
C33   O19   D    
O26   P2    D    
C7    O17   S    
C25   C42   A    
C56   C64   S    
C64   H4    S    
C60   C61   S    
O30   H52   S    
C14   C15   D    
C1    H13   S    
Ba2   O12   S    
C10   O20   D    
Ba1   P1    S    
C6    H24   S    
C8    H28   S    
C34   H50   S    
C7    C8    S    
C5    O11   S    
C66   H11   S    
C13   C21   S    
O4    P4    D    
C39   N2    S    
C32   N2    Am   
O12   P1    S    
C63   H47   S    
C33   N2    Am   
C59   C60   A    
Ba1   O13   S    
C17   C41   A    
C31   C32   A    
C47   H40   S    
C19   C43   A    
C23   O31   S    
Ba2   P4    S    
O3    P3    S    
C9    C18   A    
Ba2   O13   S    
C4    H16   S    
C6    H25   S    
C1    H19   S    
C65   C66   S    
C49   H46   S    
O11   P5    S    
C17   C20   A    
C22   H42   S    
C23   H48   S    
C37   C38   D    
C57   P7    S    
O23   P6    D    
C5    H22   S    
C23   H20   S    
C49   C50   A    
O17   P8    S    
C58   C59   A    
C54   P3    S    
C40   C43   A    
C35   C36   S    
O27   P3    S    
C41   C42   A    
C45   H2    S    
C27   C28   A    
C34   H49   S    
O5    P4    S    
O7    P4    S    
C10   N1    Am   
C65   F3    S    
C22   C36   S    
C2    F1    S    
C26   C30   A    
C48   F5    S    
C15   C16   S    
Ba1   P2    S    
C14   P4    S    
C6    H23   S    
O22   P6    S    
C11   H36   S    
C1    H8    S    
C13   P8    S    
O25   P6    S    
Ba2   O6    S    
Ba1   O8    S    
C38   C39   S    
C20   C44   A    
C58   C63   A    
C14   C21   D    
C11   C13   S    
C59   H45   S    
O29   H51   S    
C29   C33   A    
Ba1   O27   S    
C34   O7    S    
C65   H7    S    
C40   C41   A    
C36   P6    S    
C1    C2    S    
C65   O2    S    
C12   H39   S    
O16   P8    D    
C5    H21   S    
C50   C51   A    
C24   C40   A    
C66   H10   S    
C15   H30   S    
C42   C48   A    
C66   H9    S    
C3    O15   S    
O14   P7    D    
C44   C48   A    
C52   C53   A    
O31   H53   S    
C12   O3    S    
O24   P1    S    
C29   C30   A    
O13   P2    S    
C7    H26   S    
C3    H15   S    
C38   H41   S    
Ba2   O4    S    
C37   P1    S    
C24   C26   A    
C4    H18   S    
C46   H38   S    
C30   C31   A    
C56   F2    S    
C57   C63   A    
O9    P5    S    
C3    H14   S    
C64   H5    S    
C55   H43   S    
C52   C62   S    
C8    H27   S    
C46   C47   A    
C2    O25   S    
Ba1   Ba2   S    
C28   H33   S    
O1    P1    D    
C27   H34   S    
O10   P5    D    
C12   C23   S    
C35   C39   D    
C7    F4    S    
Ba1   O1    S    
C5    C6    S    
C61   C62   T    
Ba2   O5    S    
C56   O24   S    
C18   C19   A    
C24   C27   A    
C50   P2    S    
C25   C26   A    
C51   F7    S    
C16   N1    S    
C35   H32   S    
O6    P8    S    
C45   O29   S    
Ba2   O8    S    
