data_mof_unit_68127.cif
_audit_creation_date              2013-03-05T15:58:27-0500
_audit_creation_method            fapswitch 2.2
_symmetry_space_group_name_H-M    P1
_symmetry_Int_Tables_number       1
_space_group_crystal_system       triclinic
_cell_length_a                    7.364275
_cell_length_b                    15.23644
_cell_length_c                    15.482628
_cell_angle_alpha                 90.000023
_cell_angle_beta                  90.000489
_cell_angle_gamma                 90.000678
_cell_volume                      1737.23344856

loop_
_atom_site_label
_atom_site_type_symbol
_atom_site_description
_atom_site_fract_x
_atom_site_fract_y
_atom_site_fract_z
_atom_type_partial_charge
O1    O     O_R   0.388780 0.834790 0.412340 -0.575347
O2    O     O_R   0.111220 0.165210 0.912340 -0.575338
O3    O     O_R   0.888780 0.665210 0.587660 -0.575389
O4    O     O_R   0.611220 0.334790 0.087660 -0.575342
O5    O     O_R   0.059040 0.845930 0.587040 -0.599954
O6    O     O_R   0.440960 0.154070 0.087040 -0.599943
O7    O     O_R   0.559040 0.654070 0.412960 -0.599933
O8    O     O_R   0.940960 0.345930 0.912960 -0.599937
C1    C     C_R   0.227143 0.867063 0.615384 0.838715
C2    C     C_R   0.272857 0.132936 0.115383 0.838738
C3    C     C_R   0.727141 0.632936 0.384617 0.838732
C4    C     C_R   0.772858 0.367065 0.884617 0.838743
O9    O     O_R   0.059070 0.845930 0.412970 -0.608402
O10   O     O_R   0.440930 0.154070 0.912970 -0.608402
O11   O     O_R   0.559070 0.654070 0.587030 -0.608408
O12   O     O_R   0.940930 0.345930 0.087030 -0.608399
O13   O     O_R   0.888760 0.665210 0.412340 -0.584950
O14   O     O_R   0.611240 0.334790 0.912340 -0.584942
O15   O     O_R   0.388760 0.834790 0.587660 -0.584927
O16   O     O_R   0.111240 0.165210 0.087660 -0.584929
C5    C     C_R   0.228822 0.867649 0.384691 0.862196
C6    C     C_R   0.271177 0.132353 0.884690 0.862205
C7    C     C_R   0.728820 0.632351 0.615309 0.862158
C8    C     C_R   0.771179 0.367648 0.115310 0.862199
O17   O     O_3   0.222280 0.690700 0.500000 -0.299456
O18   O     O_3   0.277720 0.309300 0.000000 -0.299515
O19   O     O_3   0.722280 0.809300 0.500000 -0.299514
O20   O     O_3   0.777720 0.190700 0.000000 -0.299521
V1    V     V_3+5 0.947430 0.761000 0.500000 1.094079
V2    V     V_3+5 0.552570 0.239000 0.000000 1.094073
V3    V     V_3+5 0.447430 0.739000 0.500000 1.094099
V4    V     V_3+5 0.052570 0.261000 0.000000 1.094078
C9    C     C_3   0.913513 0.575056 0.748420 0.099808
C10   C     C_3   0.586479 0.424945 0.248421 0.099813
C11   C     C_3   0.413514 0.924945 0.251578 0.099819
C12   C     C_3   0.086480 0.075055 0.751576 0.099797
H1    H     H_    0.892599 0.640198 0.779243 0.143644
H2    H     H_    0.607394 0.359805 0.279247 0.143653
H3    H     H_    0.392595 0.859804 0.220753 0.143640
H4    H     H_    0.107397 0.140195 0.720749 0.143642
C13   C     C_3   0.915450 0.507659 0.824947 -0.470423
C14   C     C_3   0.584545 0.492344 0.324946 -0.470425
C15   C     C_3   0.415443 0.992342 0.175052 -0.470442
C16   C     C_3   0.084550 0.007654 0.675053 -0.470425
H5    H     H_    0.898906 0.542949 0.887151 0.165713
H6    H     H_    0.601086 0.457055 0.387151 0.165720
H7    H     H_    0.398892 0.957052 0.112848 0.165730
H8    H     H_    0.101092 0.042941 0.612847 0.165724
H9    H     H_    0.046486 0.473339 0.831684 0.182848
H10   H     H_    0.453510 0.526665 0.331680 0.182845
H11   H     H_    0.546477 0.026664 0.168316 0.182838
H12   H     H_    0.953516 0.973331 0.668318 0.182851
H13   H     H_    0.852634 0.464585 0.597568 0.121909
H14   H     H_    0.647360 0.535414 0.097569 0.121918
H15   H     H_    0.352652 0.035415 0.402431 0.121915
H16   H     H_    0.147325 0.964590 0.902425 0.121908
C17   C     C_3   0.744998 0.464796 0.647399 0.042993
C18   C     C_3   0.754997 0.535203 0.147400 0.042991
C19   C     C_3   0.245012 0.035204 0.352602 0.042983
C20   C     C_3   0.254978 0.964799 0.852603 0.043027
C21   C     C_3   0.579623 0.565868 0.748129 -0.508579
C22   C     C_3   0.920367 0.434132 0.248132 -0.508583
C23   C     C_3   0.079628 0.934133 0.251873 -0.508574
C24   C     C_3   0.420368 0.065868 0.751873 -0.508584
C25   C     C_3   0.743620 0.560468 0.686723 -0.112743
C26   C     C_3   0.756374 0.439532 0.186724 -0.112753
C27   C     C_3   0.243626 0.939532 0.313277 -0.112742
C28   C     C_3   0.256369 0.060469 0.813276 -0.112741
H17   H     H_    0.459500 0.559945 0.708468 0.193728
H18   H     H_    0.040490 0.440046 0.208470 0.193757
H19   H     H_    0.959505 0.940046 0.291536 0.193760
H20   H     H_    0.540490 0.059957 0.791538 0.193756
H21   H     H_    0.573699 0.632486 0.777388 0.162231
H22   H     H_    0.926269 0.367517 0.277398 0.162245
H23   H     H_    0.073722 0.867518 0.222606 0.162222
H24   H     H_    0.426274 0.132483 0.722606 0.162237
C29   C     C_3   0.764976 0.438302 0.813358 -0.110046
C30   C     C_3   0.735021 0.561699 0.313358 -0.110044
C31   C     C_3   0.264976 0.061699 0.186643 -0.110037
C32   C     C_3   0.235025 0.938300 0.686644 -0.110046
C33   C     C_3   0.790910 0.395922 0.720189 0.053997
C34   C     C_3   0.709087 0.604078 0.220189 0.053997
C35   C     C_3   0.290920 0.104079 0.279811 0.053994
C36   C     C_3   0.209086 0.895920 0.779813 0.053969
C37   C     C_3   0.580275 0.490858 0.817295 0.115444
C38   C     C_3   0.919722 0.509144 0.317295 0.115433
C39   C     C_3   0.080271 0.009146 0.182711 0.115456
C40   C     C_3   0.419727 0.990855 0.682711 0.115461
H25   H     H_    0.470080 0.443680 0.800779 0.122539
H26   H     H_    0.029918 0.556321 0.300778 0.122547
H27   H     H_    0.970086 0.056324 0.199235 0.122517
H28   H     H_    0.529919 0.943680 0.699232 0.122548
H29   H     H_    0.694468 0.340052 0.717691 0.123408
H30   H     H_    0.805529 0.659948 0.217690 0.123407
H31   H     H_    0.194480 0.159948 0.282311 0.123411
H32   H     H_    0.305536 0.840055 0.782318 0.123395
C41   C     C_3   0.100479 0.576683 0.702299 -0.346185
C42   C     C_3   0.190035 0.666401 0.707492 -0.864437
H33   H     H_    0.091210 0.717968 0.695819 0.272511
H34   H     H_    0.257574 0.675985 0.770455 0.218829
H35   H     H_    0.291015 0.673577 0.656682 0.296791
H36   H     H_    0.194333 0.530198 0.732737 0.163829
H37   H     H_    0.092023 0.555193 0.634000 0.208466
C43   C     C_3   0.399512 0.423318 0.202297 -0.346177
C44   C     C_3   0.309959 0.333597 0.207468 -0.864544
H38   H     H_    0.408803 0.282029 0.195885 0.272471
H39   H     H_    0.242241 0.324027 0.270374 0.218791
H40   H     H_    0.209144 0.326402 0.156604 0.296895
H41   H     H_    0.305653 0.469797 0.232739 0.163832
H42   H     H_    0.407976 0.444821 0.134004 0.208445
C45   C     C_3   0.600484 0.923321 0.297698 -0.346209
C46   C     C_3   0.690035 0.833600 0.292536 -0.864449
H43   H     H_    0.591172 0.782031 0.304097 0.272451
H44   H     H_    0.757804 0.824036 0.229635 0.218782
H45   H     H_    0.790814 0.826401 0.343422 0.296906
H46   H     H_    0.694346 0.969797 0.267251 0.163853
H47   H     H_    0.592024 0.944829 0.365990 0.208436
C47   C     C_3   0.899511 0.076681 0.797697 -0.346224
C48   C     C_3   0.809966 0.166404 0.792542 -0.864408
H48   H     H_    0.908836 0.217971 0.804100 0.272452
H49   H     H_    0.742179 0.175974 0.729646 0.218763
H50   H     H_    0.709196 0.173600 0.843433 0.296912
H51   H     H_    0.805645 0.030210 0.767246 0.163848
H52   H     H_    0.907972 0.055167 0.865987 0.208422
C49   C     C_3   0.565846 0.439942 0.598669 -0.382806
C50   C     C_3   0.575797 0.353738 0.548130 -0.958369
H53   H     H_    0.694406 0.352768 0.504707 0.258358
H54   H     H_    0.581351 0.296108 0.591718 0.265593
H55   H     H_    0.451779 0.346749 0.508063 0.266531
H56   H     H_    0.450520 0.433037 0.644224 0.190879
H57   H     H_    0.531246 0.492381 0.551783 0.212109
C51   C     C_3   0.934148 0.560055 0.098670 -0.382815
C52   C     C_3   0.924195 0.646255 0.048127 -0.958377
H58   H     H_    0.805585 0.647222 0.004704 0.258360
H59   H     H_    0.918642 0.703887 0.091712 0.265589
H60   H     H_    0.048214 0.653242 0.008061 0.266518
H61   H     H_    0.049474 0.566962 0.144227 0.190881
H62   H     H_    0.968750 0.507614 0.051787 0.212113
C53   C     C_3   0.065867 0.060057 0.401335 -0.382793
C54   C     C_3   0.075827 0.146262 0.451872 -0.958396
H63   H     H_    0.194451 0.147236 0.495284 0.258369
H64   H     H_    0.081356 0.203891 0.408283 0.265589
H65   H     H_    0.951825 0.153247 0.491947 0.266543
H66   H     H_    0.950535 0.066959 0.355782 0.190886
H67   H     H_    0.031274 0.007618 0.448222 0.212104
C55   C     C_3   0.434110 0.939953 0.901350 -0.382806
C56   C     C_3   0.424152 0.853745 0.951881 -0.958352
H68   H     H_    0.305438 0.852734 0.995242 0.258404
H69   H     H_    0.418776 0.796118 0.908281 0.265535
H70   H     H_    0.548093 0.846793 0.992010 0.266531
H71   H     H_    0.549464 0.933063 0.855808 0.190887
H72   H     H_    0.468669 0.992390 0.948246 0.212092
C57   C     C_3   0.986000 0.357867 0.702959 -0.353832
C58   C     C_3   0.997108 0.294761 0.626147 -0.968961
H73   H     H_    0.890968 0.243786 0.628480 0.270566
H74   H     H_    0.983600 0.330746 0.564377 0.273334
H75   H     H_    0.132278 0.262484 0.625565 0.251862
H76   H     H_    0.082332 0.410115 0.687221 0.185665
H77   H     H_    0.046193 0.327359 0.760657 0.190514
C59   C     C_3   0.513997 0.642134 0.202958 -0.353826
C60   C     C_3   0.502888 0.705236 0.126143 -0.968952
H78   H     H_    0.609042 0.756205 0.128470 0.270550
H79   H     H_    0.516374 0.669246 0.064375 0.273332
H80   H     H_    0.367726 0.737521 0.125565 0.251863
H81   H     H_    0.417661 0.589886 0.187224 0.185658
H82   H     H_    0.453808 0.672645 0.260655 0.190513
C61   C     C_3   0.486011 0.142137 0.297038 -0.353833
C62   C     C_3   0.497134 0.205233 0.373857 -0.968974
H83   H     H_    0.390976 0.256195 0.371543 0.270571
H84   H     H_    0.483669 0.169237 0.435620 0.273332
H85   H     H_    0.632289 0.237524 0.374431 0.251862
H86   H     H_    0.582351 0.089889 0.312762 0.185666
H87   H     H_    0.546189 0.172656 0.239342 0.190521
C63   C     C_3   0.014000 0.857855 0.797036 -0.353786
C64   C     C_3   0.002854 0.794792 0.873882 -0.968648
H88   H     H_    0.109135 0.743875 0.871650 0.270510
H89   H     H_    0.016110 0.830831 0.935640 0.273231
H90   H     H_    0.867755 0.762440 0.874407 0.251807
H91   H     H_    0.917633 0.910105 0.812721 0.185625
H92   H     H_    0.953859 0.827308 0.739346 0.190491
C65   C     C_3   0.540669 0.529922 0.908787 -0.301813
C66   C     C_3   0.339457 0.532618 0.930855 -0.968069
H93   H     H_    0.281201 0.465658 0.927634 0.290730
H94   H     H_    0.321499 0.557261 0.997775 0.253065
H95   H     H_    0.266786 0.577206 0.886253 0.265559
H96   H     H_    0.608199 0.491507 0.960059 0.181537
H97   H     H_    0.595015 0.597444 0.914454 0.174432
C67   C     C_3   0.959338 0.470082 0.408787 -0.301836
C68   C     C_3   0.160554 0.467342 0.430834 -0.968152
H98   H     H_    0.218861 0.534293 0.427626 0.290708
H99   H     H_    0.178524 0.442676 0.497744 0.253092
H100  H     H_    0.233170 0.422755 0.386211 0.265600
H101  H     H_    0.891878 0.508517 0.460063 0.181575
H102  H     H_    0.904926 0.402575 0.414465 0.174447
C69   C     C_3   0.040639 0.970086 0.091218 -0.301872
C70   C     C_3   0.839425 0.967402 0.069158 -0.968021
H103  H     H_    0.781164 0.034357 0.072448 0.290703
H104  H     H_    0.821449 0.942829 0.002216 0.253046
H105  H     H_    0.766771 0.922769 0.113723 0.265549
H106  H     H_    0.108159 0.008502 0.039945 0.181562
H107  H     H_    0.094975 0.902566 0.085542 0.174451
C71   C     C_3   0.459347 0.029917 0.591219 -0.301853
C72   C     C_3   0.660554 0.032650 0.569170 -0.968317
H108  H     H_    0.718858 0.965705 0.572378 0.290738
H109  H     H_    0.678504 0.057308 0.502265 0.253120
H110  H     H_    0.733185 0.077234 0.613781 0.265624
H111  H     H_    0.391878 0.991488 0.539942 0.181588
H112  H     H_    0.404953 0.097423 0.585542 0.174469

loop_
_geom_bond_atom_site_label_1
_geom_bond_atom_site_label_2
_geom_bond_distance
_ccdc_geom_bond_type
O17   V3    1.814038 S    
C43   H42   1.108713 S    
C72   H108  1.107803 S    
O1    C5    1.349643 A    
C50   H53   1.102342 S    
C34   H30   1.109297 S    
H15   C19   1.106147 S    
O19   V1    1.814053 S    
O13   V1    2.039315 S    
C47   C48   1.519898 S    
O3    C7    1.349649 A    
C45   C46   1.519891 S    
C10   C14   1.567975 S    
C54   H65   1.109154 S    
C32   C36   1.591935 S    
O15   V3    2.039325 S    
C10   C26   1.589729 S    
C46   H44   1.103962 S    
C60   H78   1.102491 S    
C65   H97   1.107372 S    
C9    C25   1.589718 S    
C64   H89   1.106943 S    
C65   C66   1.521218 S    
O7    C3    1.352324 A    
C44   H39   1.103885 S    
C24   C28   1.539219 S    
O9    V1    2.041095 S    
C56   H69   1.108235 S    
C19   C35   1.576593 S    
C33   H29   1.109297 S    
C69   H106  1.104543 S    
C39   H27   1.113823 S    
C18   C34   1.576590 S    
C17   C49   1.566272 S    
C43   H41   1.096108 S    
O4    C8    1.349639 A    
C13   C29   1.541694 S    
C72   H109  1.109799 S    
C15   C31   1.541689 S    
C42   H33   1.086121 S    
O1    V3    2.039291 S    
C33   C57   1.572097 S    
C22   H18   1.080632 S    
O2    V4    2.039296 S    
C36   H32   1.109295 S    
C13   H9    1.102508 S    
C57   H76   1.093786 S    
O3    V1    2.039289 S    
C49   H57   1.109168 S    
C66   H93   1.107883 S    
C46   H43   1.086036 S    
C56   H68   1.102391 S    
C19   C27   1.579771 S    
C63   C64   1.531531 S    
C49   H56   1.108987 S    
C18   C26   1.579767 S    
C62   H85   1.110312 S    
C53   H67   1.109166 S    
C40   H28   1.113823 S    
C2    O16   1.357430 A    
C51   C52   1.530606 S    
O2    C6    1.349638 A    
C52   H60   1.109171 S    
C37   C65   1.563949 S    
C45   H46   1.096106 S    
O14   V2    2.039320 S    
C59   H82   1.100267 S    
C11   C15   1.567963 S    
C58   H74   1.106855 S    
C41   H36   1.096111 S    
C8    C26   1.560123 S    
C61   H87   1.100261 S    
C16   H12   1.102505 S    
O11   C7    1.365258 A    
C29   C37   1.579578 S    
O12   C8    1.365271 A    
C71   H112  1.107302 S    
C5    C27   1.560117 S    
C20   C55   1.566261 S    
O10   V2    2.041086 S    
C70   H105  1.106705 S    
C36   C63   1.572097 S    
C31   C39   1.579568 S    
C43   C44   1.519891 S    
C60   H79   1.106863 S    
C1    O15   1.357431 A    
C41   C42   1.519879 S    
C64   H90   1.110354 S    
O5    V1    2.041097 S    
C48   H49   1.103962 S    
C53   C54   1.530613 S    
C23   C27   1.539219 S    
O7    V3    2.041121 S    
C71   C72   1.521137 S    
C22   C26   1.539218 S    
O8    V4    2.041111 S    
C72   H110  1.106615 S    
C12   H4    1.112015 S    
C56   H70   1.109195 S    
C54   H63   1.102329 S    
C58   H75   1.110324 S    
C70   H104  1.109917 S    
C19   C53   1.566265 S    
C38   H26   1.113826 S    
C18   C51   1.566265 S    
C61   C62   1.531489 S    
C37   H25   1.113827 S    
O18   V4    1.814037 S    
C69   C70   1.521188 S    
C50   H55   1.109171 S    
C21   H21   1.112390 S    
C51   H61   1.108985 S    
C59   H81   1.093790 S    
C35   C61   1.572095 S    
C10   C43   1.551240 S    
H16   C20   1.106146 S    
C67   C68   1.521194 S    
C66   H95   1.106718 S    
C57   H77   1.100269 S    
C68   H100  1.106710 S    
C11   H3    1.112016 S    
O5    C1    1.352325 A    
C3    C30   1.548763 S    
C34   C59   1.572095 S    
C53   H66   1.108981 S    
C30   C34   1.591931 S    
C64   H88   1.102572 S    
C16   C32   1.541701 S    
O8    C4    1.352324 A    
C35   H31   1.109294 S    
C4    C29   1.548771 S    
C65   H96   1.104572 S    
H14   C18   1.106146 S    
C69   H107  1.107342 S    
C24   H24   1.112380 S    
O9    C5    1.365267 A    
C47   H52   1.108713 S    
C44   H40   1.087827 S    
C48   H48   1.086039 S    
C6    C28   1.560113 S    
C58   H73   1.102488 S    
C41   H37   1.108722 S    
C21   C37   1.566195 S    
C14   H10   1.102507 S    
C55   H72   1.109170 S    
C62   H83   1.102452 S    
O6    V2    2.041108 S    
C23   H19   1.080639 S    
C67   H101  1.104544 S    
C14   C30   1.541692 S    
C15   H7    1.109733 S    
C42   H34   1.104086 S    
C71   H111  1.104512 S    
C14   H6    1.109728 S    
C49   C50   1.530614 S    
C17   C33   1.576590 S    
C12   C16   1.567973 S    
C63   H92   1.100258 S    
C60   H80   1.110327 S    
C11   C45   1.551240 S    
C22   C38   1.566190 S    
C55   C56   1.530608 S    
O16   V4    2.039322 S    
C48   H50   1.087926 S    
C21   H17   1.080624 S    
C3    O13   1.357427 A    
C50   H54   1.108203 S    
C66   H94   1.109935 S    
C23   C39   1.566188 S    
C10   H2    1.112013 S    
C17   C25   1.579774 S    
C70   H103  1.107882 S    
H13   C17   1.106153 S    
O6    C2    1.352326 A    
C2    C31   1.548770 S    
C12   C28   1.589720 S    
O11   V3    2.041098 S    
C61   H86   1.093777 S    
C54   H64   1.108197 S    
O12   V4    2.041106 S    
C42   H35   1.088031 S    
C44   H38   1.085995 S    
C45   H47   1.108711 S    
C9    C13   1.567973 S    
C59   C60   1.531500 S    
C7    C25   1.560113 S    
O20   V2    1.814054 S    
C39   C69   1.563957 S    
C32   C40   1.579567 S    
C31   C35   1.591931 S    
C20   C36   1.576594 S    
O10   C6    1.365269 A    
C52   H58   1.102345 S    
C23   H23   1.112379 S    
C15   H11   1.102492 S    
C62   H84   1.106823 S    
C24   C40   1.566193 S    
C9    C41   1.551231 S    
C47   H51   1.096103 S    
C24   H20   1.080638 S    
C68   H98   1.107888 S    
C29   C33   1.591938 S    
C9    H1    1.112022 S    
C11   C27   1.589722 S    
C67   H102  1.107341 S    
C55   H71   1.108988 S    
C21   C25   1.539239 S    
C20   C28   1.579759 S    
C30   C38   1.579575 S    
C4    O14   1.357429 A    
C52   H59   1.108203 S    
C13   H5    1.109727 S    
C22   H22   1.112378 S    
C12   C47   1.551243 S    
C40   C71   1.563947 S    
C57   C58   1.531504 S    
C51   H62   1.109167 S    
C63   H91   1.093802 S    
C1    C32   1.548768 S    
C46   H45   1.087914 S    
O4    V2    2.039282 S    
C38   C67   1.563945 S    
C16   H8    1.109727 S    
C68   H99   1.109922 S    
