data_mof_unit_14470.cif
_audit_creation_date              2013-03-05T15:42:46-0500
_audit_creation_method            fapswitch 2.2
_symmetry_space_group_name_H-M    P1
_symmetry_Int_Tables_number       1
_space_group_crystal_system       triclinic
_cell_length_a                    9.752128
_cell_length_b                    10.920411
_cell_length_c                    13.538537
_cell_angle_alpha                 91.604347
_cell_angle_beta                  73.296003
_cell_angle_gamma                 90.012896
_cell_volume                      1380.38833423

loop_
_atom_site_label
_atom_site_type_symbol
_atom_site_description
_atom_site_fract_x
_atom_site_fract_y
_atom_site_fract_z
_atom_type_partial_charge
O1    O     O_R   0.382960 0.678040 0.499980 -0.603586
O2    O     O_R   0.617100 0.678080 0.500020 -0.518288
C1    C     C_R   0.499264 0.734526 0.501049 0.870943
O3    O     O_R   0.325800 0.499940 0.650950 -0.601155
O4    O     O_R   0.559930 0.499980 0.650990 -0.585087
C2    C     C_R   0.423469 0.501065 0.699835 0.780879
Cu1   Cu    Cu3+1 0.361370 0.499980 0.499980 0.944097
Cu2   Cu    Cu3+1 0.638630 0.500020 0.500020 1.056285
O5    O     O_R   0.382900 0.321920 0.499980 -0.582708
O6    O     O_R   0.617040 0.321960 0.500020 -0.609107
O7    O     O_R   0.440070 0.500020 0.349010 -0.571534
O8    O     O_R   0.674200 0.500060 0.349050 -0.507128
C3    C     C_R   0.500320 0.265410 0.498352 0.837851
C4    C     C_R   0.576423 0.503986 0.300995 0.834712
C5    C     C_R   0.767241 0.624533 0.040044 0.254315
C6    C     C_R   0.619184 0.522752 0.189537 -0.244461
C7    C     C_R   0.260767 0.415354 0.856808 -0.244103
C8    C     C_R   0.240924 0.367639 0.953635 -0.144509
C9    C     C_R   0.339979 0.389568 0.008810 0.473288
C10   C     C_R   0.451714 0.477347 0.973405 0.006424
C11   C     C_R   0.469949 0.525373 0.874126 -0.051521
C12   C     C_R   0.547679 0.517422 0.030657 -0.007742
C13   C     C_R   0.668864 0.591280 0.983792 -0.146350
C14   C     C_R   0.684529 0.633676 0.883836 0.453084
C15   C     C_R   0.578161 0.610481 0.836417 -0.215016
C16   C     C_R   0.521157 0.493391 0.135446 -0.213252
C17   C     C_R   0.745871 0.584031 0.140383 0.248873
C18   C     C_R   0.380374 0.486972 0.813077 -0.063919
H1    H     H_    0.419421 0.459065 0.179271 0.250467
H2    H     H_    0.188964 0.387197 0.812582 0.162203
H3    H     H_    0.153321 0.305181 0.983090 0.171365
H4    H     H_    0.580725 0.659922 0.768573 0.220405
C19   C     C_2   0.610426 0.066080 0.499381 -0.164523
C20   C     C_2   0.500229 0.133076 0.490383 -0.326084
H5    H     H_    0.703405 0.108944 0.513437 0.158002
H6    H     H_    0.408643 0.091184 0.473036 0.160535
C21   C     C_2   0.613207 0.932855 0.487820 -0.051149
C22   C     C_2   0.493606 0.866800 0.508049 -0.319185
H7    H     H_    0.716964 0.888479 0.464121 0.242961
H8    H     H_    0.388241 0.909155 0.533345 0.151974
C23   C     C_2   0.085942 0.592840 0.477775 -0.025191
N1    N     N_2   0.152660 0.501340 0.501130 -0.301329
H9    H     H_    0.147135 0.671873 0.444023 0.185718
H10   H     H_    0.088470 0.440407 0.549914 0.192892
C24   C     C_2   0.923719 0.598662 0.507726 0.506324
N2    N     N_2   0.846520 0.501370 0.501160 -0.077520
N3    N     N_R   0.844597 0.620221 0.196113 0.171542
O9    O     O_R   0.833629 0.728084 0.241096 -0.323638
O10   O     O_R   0.949376 0.547401 0.197845 -0.285468
N4    N     N_R   0.860887 0.716777 0.541417 0.083621
O11   O     O_R   0.931712 0.814338 0.504349 -0.424427
O12   O     O_R   0.758032 0.728426 0.626590 -0.383149
O13   O     O_3   0.926518 0.422319 0.427695 -0.476027
C25   C     C_3   0.906937 0.300650 0.460782 0.185574
H11   H     H_    0.844336 0.253458 0.414875 0.186846
H12   H     H_    0.854408 0.293205 0.545219 0.119003
C26   C     C_3   0.049765 0.231467 0.431694 -0.834620
H13   H     H_    0.115649 0.255956 0.353295 0.290607
H14   H     H_    0.110425 0.250791 0.487938 0.237411
H15   H     H_    0.029930 0.131264 0.431823 0.225264
O14   O     O_3   0.796911 0.707205 0.834084 -0.509474
C27   C     C_3   0.912675 0.631657 0.778587 0.130293
H16   H     H_    0.884278 0.578085 0.716409 0.113132
H17   H     H_    0.944766 0.565579 0.829271 0.132283
C28   C     C_3   0.040461 0.712492 0.730985 -0.658810
H18   H     H_    0.078579 0.758054 0.792403 0.271057
H19   H     H_    0.128797 0.656471 0.680512 0.204286
H20   H     H_    0.010350 0.783926 0.684224 0.275402
N5    N     N_R   0.882570 0.707869 0.000757 0.159869
O15   O     O_R   0.013802 0.673234 0.990302 -0.338711
O16   O     O_R   0.854427 0.823995 0.998078 -0.295740
O17   O     O_3   0.325756 0.320758 0.095143 -0.593860
C29   C     C_3   0.417896 0.217881 0.067586 0.030619
H21   H     H_    0.531011 0.245590 0.032014 0.150696
H22   H     H_    0.383358 0.155765 0.012712 0.165079
C30   C     C_3   0.411992 0.147705 0.164222 -0.712331
H23   H     H_    0.301019 0.116491 0.200777 0.255309
H24   H     H_    0.484131 0.066466 0.143765 0.222920
H25   H     H_    0.446784 0.207487 0.220163 0.236292

loop_
_geom_bond_atom_site_label_1
_geom_bond_atom_site_label_2
_geom_bond_distance
_ccdc_geom_bond_type
C14   O14   1.380254 S    
C29   H22   1.114012 S    
C29   H21   1.114878 S    
C9    C10   1.435620 A    
C30   H25   1.111246 S    
Cu1   Cu2   2.704031 S    
N3    O10   1.300855 A    
O13   C25   1.409444 S    
Cu1   O7    1.965937 S    
C21   C22   1.335216 D    
C30   H24   1.110498 S    
O4    C2    1.304653 A    
O7    C4    1.302794 A    
C26   H14   1.106436 S    
C8    C9    1.397557 A    
C23   N1    1.287631 D    
Cu1   N1    2.031000 S    
N5    O16   1.301261 A    
O5    C3    1.295222 A    
C27   H17   1.113908 S    
C2    C18   1.481078 S    
C1    C22   1.444965 S    
C28   H19   1.105336 S    
N4    O12   1.295735 A    
C13   C14   1.408972 A    
C15   H4    1.072551 S    
C5    C13   1.427107 A    
C7    H2    1.083501 S    
C23   H9    1.083939 S    
C9    O17   1.380578 S    
N5    O15   1.301554 A    
N1    H10   1.028397 S    
O3    Cu1   1.972406 S    
N4    O11   1.301676 A    
C6    C16   1.393603 A    
C5    N5    1.434865 S    
C25   H12   1.115516 S    
C30   H23   1.110731 S    
O3    C2    1.306633 A    
C26   H15   1.111141 S    
C24   N2    1.317708 D    
C19   C21   1.458327 S    
O1    C1    1.294518 A    
C27   H16   1.110832 S    
C5    C17   1.398321 A    
N3    O9    1.300859 A    
Cu2   O8    1.972406 S    
C28   H20   1.109135 S    
C7    C8    1.385569 A    
C14   C15   1.387774 A    
C11   C18   1.420404 A    
C10   C12   1.437356 A    
C29   C30   1.521548 S    
C4    C6    1.465760 S    
C17   N3    1.432888 S    
Cu1   O5    1.955839 S    
C11   C15   1.398040 A    
C25   H11   1.106630 S    
C27   C28   1.522247 S    
O1    Cu1   1.955807 S    
C7    C18   1.396887 A    
O2    Cu2   1.955837 S    
O8    C4    1.300974 A    
O17   C29   1.411746 S    
O6    C3    1.300472 A    
O4    Cu2   1.965935 S    
O2    C1    1.300517 A    
C3    C20   1.446161 S    
C21   H7    1.080058 S    
C22   H8    1.084484 S    
C26   H13   1.111173 S    
C24   N4    1.433177 S    
C6    C17   1.403207 A    
N2    O13   1.359888 S    
C19   H5    1.082371 S    
C19   C20   1.336253 D    
C20   H6    1.084689 S    
O14   C27   1.413435 S    
Cu2   N2    2.031907 S    
C10   C11   1.419609 A    
C16   H1    1.072750 S    
Cu2   O6    1.955807 S    
C28   H18   1.109762 S    
C12   C16   1.399399 A    
C23   C24   1.516931 S    
C12   C13   1.430727 A    
C8    H3    1.083150 S    
C25   C26   1.527898 S    
