data_mof_unit_9150.cif
_audit_creation_date              2012-12-10T17:14:11-0500
_audit_creation_method            fapswitch 2.2
_symmetry_space_group_name_H-M    P1
_symmetry_Int_Tables_number       1
_space_group_crystal_system       triclinic
_cell_length_a                    15.864027
_cell_length_b                    12.995533
_cell_length_c                    11.796005
_cell_angle_alpha                 100.518819
_cell_angle_beta                  91.647558
_cell_angle_gamma                 91.221598
_cell_volume                      2389.15220762

loop_
_atom_site_label
_atom_site_type_symbol
_atom_type_description
_atom_site_fract_x
_atom_site_fract_y
_atom_site_fract_z
_atom_type_partial_charge
C1    C     C_R   0.497980 0.299440 0.478178 0.784179
C2    C     C_3   0.950407 0.474952 0.606781 -0.348996
C3    C     C_3   0.916672 0.503870 0.492069 -0.034936
C4    C     C_3   0.955324 0.614910 0.481746 0.121697
C5    C     C_3   0.053729 0.618645 0.509630 0.208836
C6    C     C_1   0.824319 0.503081 0.491475 0.050596
C7    C     C_1   0.175939 0.500684 0.505277 0.039720
C8    C     C_1   0.251375 0.499455 0.505661 -0.093646
C9    C     C_R   0.503084 0.816046 0.537128 -0.365108
C10   C     C_R   0.492359 0.186147 0.466497 -0.068864
C11   C     C_R   0.439235 0.017404 0.368266 -0.029406
C12   C     C_R   0.340604 0.498763 0.501883 0.854464
C13   C     C_R   0.450988 0.124125 0.371285 -0.201732
C14   C     C_R   0.525320 0.140647 0.555668 -0.079415
C15   C     C_R   0.513525 0.033723 0.555096 -0.074167
C16   C     C_R   0.467900 0.971412 0.461222 0.002337
C17   C     C_R   0.452345 0.864936 0.462655 0.326527
C18   C     C_R   0.555014 0.878282 0.625427 0.281032
C19   C     C_R   0.547877 0.987873 0.645007 0.290718
C20   C     C_R   0.395120 0.444686 0.034523 0.053920
C21   C     C_R   0.409159 0.447751 0.154422 0.062816
C22   C     C_R   0.550163 0.509439 0.144305 0.306130
C23   C     C_R   0.501668 0.701077 0.522141 0.978961
C24   C     C_R   0.535260 0.520841 0.027418 0.023180
C25   C     C_R   0.459041 0.482898 0.969771 0.023417
C26   C     C_R   0.451348 0.482131 0.848604 0.063225
C27   C     C_R   0.586315 0.562649 0.847466 0.173268
C28   C     C_R   0.596918 0.565612 0.965106 -0.282495
C29   C     C_R   0.659451 0.499699 0.497878 0.870599
C30   C     C_3   0.046440 0.457408 0.602501 -0.343633
C31   C     C_3   0.047421 0.435703 0.383466 -0.129339
C32   C     C_3   0.948304 0.422200 0.387179 0.222641
C33   C     C_1   0.748822 0.501475 0.493579 -0.072319
C34   C     C_3   0.083696 0.502456 0.500963 0.038673
Cu1   Cu    Cu3+1 0.506190 0.507730 0.615930 1.024552
Cu2   Cu    Cu3+1 0.493810 0.492270 0.384070 1.001337
H1    H     H_    0.917168 0.404836 0.626768 0.232223
H2    H     H_    0.077431 0.494267 0.686180 0.222999
H3    H     H_    0.937065 0.538636 0.679685 0.231699
H4    H     H_    0.949086 0.619843 0.388618 0.056822
H5    H     H_    0.409144 0.971339 0.291656 0.201642
H6    H     H_    0.426329 0.158346 0.300432 0.159342
H7    H     H_    0.562377 0.189739 0.623732 0.213610
H8    H     H_    0.395302 0.450069 0.799709 0.132940
H9    H     H_    0.057874 0.372430 0.592353 0.209985
H10   H     H_    0.635904 0.593972 0.801774 0.174766
H11   H     H_    0.654559 0.602508 0.004953 0.158993
H12   H     H_    0.359293 0.419934 0.202387 0.133080
H13   H     H_    0.055886 0.488628 0.319788 0.076869
H14   H     H_    0.921780 0.444952 0.307065 0.050255
H15   H     H_    0.084432 0.651823 0.439996 0.089638
N1    N     N_R   0.515490 0.519350 0.790130 -0.197059
N2    N     N_R   0.484510 0.480650 0.209890 -0.199694
O1    O     O_R   0.504390 0.354460 0.582000 -0.586737
O2    O     O_R   0.493940 0.341410 0.386200 -0.588213
O3    O     O_R   0.384660 0.506540 0.597940 -0.589370
O4    O     O_R   0.374210 0.493480 0.402140 -0.576826
O5    O     O_R   0.506060 0.658590 0.613800 -0.525611
O6    O     O_R   0.495610 0.645540 0.418000 -0.538622
O7    O     O_R   0.625790 0.506520 0.597860 -0.577239
O8    O     O_R   0.615340 0.493460 0.402060 -0.604247
S1    S     S_3+6 0.364415 0.797541 0.381188 0.015712
O9    O     O_2   0.392952 0.745520 0.264695 -0.290934
O10   O     O_2   0.328001 0.716423 0.442958 -0.285560
O11   O     O_3   0.287873 0.881641 0.364122 -0.526397
H16   H     H_    0.243090 0.838392 0.316468 0.383343
S2    S     S_3+6 0.635884 0.821964 0.700739 0.067926
O12   O     O_2   0.599360 0.788349 0.804694 -0.297639
O13   O     O_2   0.670594 0.728650 0.623945 -0.320328
O14   O     O_3   0.716124 0.908295 0.743117 -0.389476
H17   H     H_    0.752839 0.874359 0.793965 0.397262
S3    S     S_3+6 0.575824 0.067011 0.782256 0.066766
O15   O     O_2   0.661678 0.116688 0.776866 -0.191036
O16   O     O_2   0.513214 0.152396 0.811193 -0.339363
O17   O     O_3   0.576948 0.997317 0.889066 -0.422881
H18   H     H_    0.517253 0.975969 0.895847 0.355665
C35   C     C_3   0.311045 0.401556 0.980090 -0.458432
C36   C     C_3   0.318272 0.288728 0.916837 -0.735788
H19   H     H_    0.364380 0.283394 0.847171 0.268418
H20   H     H_    0.338691 0.238040 0.978307 0.262275
H21   H     H_    0.255869 0.259277 0.877703 0.247696
H22   H     H_    0.263113 0.402539 0.047220 0.205838
H23   H     H_    0.286311 0.451638 0.920543 0.216549
C37   C     C_3   0.642368 0.507652 0.182834 -0.392488
C38   C     C_3   0.676361 0.614268 0.248050 -0.666162
H24   H     H_    0.682664 0.671247 0.189295 0.231347
H25   H     H_    0.634288 0.648897 0.317209 0.279515
H26   H     H_    0.739753 0.604629 0.286349 0.244123
H27   H     H_    0.654121 0.440229 0.225288 0.220935
H28   H     H_    0.683233 0.483942 0.108264 0.172013
C39   C     C_3   0.099222 0.340347 0.325300 -0.307641
C40   C     C_3   0.123908 0.259115 0.398682 -0.666364
H29   H     H_    0.165029 0.293996 0.473903 0.207737
H30   H     H_    0.068648 0.220439 0.428653 0.313478
H31   H     H_    0.160280 0.197229 0.345215 0.229803
H32   H     H_    0.066355 0.300987 0.244358 0.240559
H33   H     H_    0.159249 0.371154 0.296088 0.167584
S4    S     S_3+6 0.904614 0.289803 0.379561 0.032288
O18   O     O_2   0.935933 0.216535 0.276803 -0.261516
O19   O     O_2   0.925914 0.246873 0.486406 -0.245170
O20   O     O_3   0.798931 0.290690 0.364343 -0.494860
H34   H     H_    0.787952 0.314367 0.290208 0.337091
S5    S     S_3+6 0.091409 0.704736 0.642950 0.077955
O21   O     O_2   0.180807 0.681091 0.672563 -0.284124
O22   O     O_2   0.090594 0.816680 0.626773 -0.179141
O23   O     O_3   0.032451 0.691239 0.755588 -0.506310
H35   H     H_    0.055408 0.744743 0.820486 0.387949
S6    S     S_3+6 0.895425 0.727314 0.545725 0.110060
O24   O     O_2   0.941012 0.827080 0.534234 -0.143705
O25   O     O_2   0.812434 0.725023 0.480505 -0.282082
O26   O     O_3   0.876829 0.728344 0.685523 -0.443724
H36   H     H_    0.829460 0.677502 0.685473 0.351218

loop_
_geom_bond_atom_site_label_1
_geom_bond_atom_site_label_2
_ccdc_geom_bond_type
C23   O5    A    
C5    S5    S    
C28   H11   S    
O20   H34   S    
C30   H9    S    
Cu1   Cu2   S    
C2    H1    S    
O17   H18   S    
C3    C6    S    
C26   H8    S    
C7    C8    T    
C35   C36   S    
C23   O6    A    
C4    S6    S    
C20   C35   S    
Cu1   O5    S    
C36   H20   S    
C20   C25   A    
C35   H23   S    
C15   C16   A    
C29   C33   S    
S6    O24   D    
C30   H2    S    
C18   C19   A    
S1    O10   D    
Cu2   N2    S    
C39   H32   S    
C2    H3    S    
C4    H4    S    
C32   S4    S    
C16   C17   A    
O14   H17   S    
S1    O11   S    
C21   H12   S    
Cu2   O6    S    
Cu1   O1    S    
C19   S3    S    
C37   H28   S    
C31   H13   S    
S3    O17   S    
C13   H6    S    
C22   N2    A    
C38   H25   S    
C29   O8    A    
C30   C34   S    
S2    O12   D    
C24   C25   A    
S3    O16   D    
Cu2   O4    S    
C10   C14   A    
C39   C40   S    
C36   H19   S    
C9    C23   S    
C18   S2    S    
C38   H24   S    
C40   H31   S    
C39   H33   S    
Cu1   O7    S    
S2    O13   D    
C22   C37   S    
C15   C19   A    
C1    O1    A    
S1    O9    D    
C26   N1    A    
C17   S1    S    
C11   C16   A    
C31   C32   S    
C29   O7    A    
C8    C12   S    
C5    C34   S    
C40   H30   S    
C31   C34   S    
S5    O22   D    
C37   C38   S    
C32   H14   S    
C12   O3    A    
C12   O4    A    
C27   H10   S    
C9    C17   A    
S4    O18   D    
C31   C39   S    
C7    C34   S    
C22   C24   A    
C37   H27   S    
Cu2   O8    S    
S5    O21   D    
C27   N1    A    
C38   H26   S    
O26   H36   S    
Cu1   O3    S    
C1    C10   S    
C24   C28   A    
S3    O15   D    
C10   C13   A    
S6    O26   S    
S4    O20   S    
S4    O19   D    
C6    C33   T    
C2    C30   S    
S2    O14   S    
C2    C3    S    
C25   C26   A    
Cu2   O2    S    
C21   N2    A    
C11   C13   A    
C36   H21   S    
C35   H22   S    
C40   H29   S    
S6    O25   D    
C11   H5    S    
S5    O23   S    
C1    O2    A    
C3    C32   S    
C9    C18   A    
C4    C5    S    
C20   C21   A    
O11   H16   S    
O23   H35   S    
Cu1   N1    S    
C14   C15   A    
C5    H15   S    
C3    C4    S    
C14   H7    S    
C27   C28   A    
