data_mof_unit_5662.cif
_audit_creation_date              2012-12-11T15:41:30-0500
_audit_creation_method            fapswitch 2.2
_symmetry_space_group_name_H-M    P1
_symmetry_Int_Tables_number       1
_space_group_crystal_system       triclinic
_cell_length_a                    19.11895
_cell_length_b                    11.030448
_cell_length_c                    18.801689
_cell_angle_alpha                 90.004912
_cell_angle_beta                  90.414538
_cell_angle_gamma                 90.183743
_cell_volume                      3964.97497918

loop_
_atom_site_label
_atom_site_type_symbol
_atom_type_description
_atom_site_fract_x
_atom_site_fract_y
_atom_site_fract_z
_atom_type_partial_charge
C1    C     C_R   0.724189 0.962887 0.856362 0.540903
C2    C     C_R   0.272788 0.956644 0.146592 0.542577
C3    C     C_R   0.224189 0.462886 0.856362 0.540903
C4    C     C_R   0.772788 0.456643 0.146592 0.542578
C5    C     C_R   0.700008 0.475037 0.037596 0.013104
C6    C     C_R   0.298063 0.473321 0.964808 0.007059
C7    C     C_R   0.200010 0.975045 0.037596 0.013106
C8    C     C_R   0.798062 0.973325 0.964808 0.007063
C9    C     C_R   0.694739 0.456799 0.964975 0.015738
C10   C     C_R   0.306126 0.460718 0.037649 0.009855
C11   C     C_R   0.194740 0.956806 0.964974 0.015736
C12   C     C_R   0.806125 0.960722 0.037650 0.009856
C13   C     C_R   0.779732 0.296522 0.974292 -0.148150
C14   C     C_R   0.182819 0.420042 0.049155 -0.160055
C15   C     C_R   0.279729 0.796517 0.974293 -0.148148
C16   C     C_R   0.682819 0.920040 0.049155 -0.160054
C17   C     C_R   0.783450 0.312250 0.047552 -0.159780
C18   C     C_R   0.175498 0.427631 0.975599 -0.147593
C19   C     C_R   0.283447 0.812247 0.047552 -0.159779
C20   C     C_R   0.675498 0.927629 0.975599 -0.147594
C21   C     C_3   0.690778 0.608995 0.029474 -0.244391
C22   C     C_3   0.368146 0.421300 0.949834 -0.292759
C23   C     C_3   0.190789 0.109008 0.029471 -0.244380
C24   C     C_3   0.868146 0.921310 0.949835 -0.292759
C25   C     C_3   0.684289 0.588295 0.950020 -0.280299
C26   C     C_3   0.376980 0.405569 0.029490 -0.257999
C27   C     C_3   0.184298 0.088306 0.950018 -0.280293
C28   C     C_3   0.876980 0.905579 0.029491 -0.258001
C29   C     C_R   0.739615 0.375987 0.931661 0.021872
C30   C     C_R   0.249727 0.424941 0.080151 0.011052
C31   C     C_R   0.239615 0.875985 0.931661 0.021872
C32   C     C_R   0.749726 0.924942 0.080151 0.011053
C33   C     C_R   0.513894 0.169387 0.418675 -0.050995
C34   C     C_R   0.517542 0.166619 0.566774 -0.045040
C35   C     C_R   0.013894 0.669387 0.418675 -0.050996
C36   C     C_R   0.017542 0.666619 0.566774 -0.045040
C37   C     C_R   0.525319 0.276339 0.457091 0.004470
C38   C     C_R   0.527300 0.273520 0.529374 0.019249
C39   C     C_R   0.025319 0.776339 0.457091 0.004470
C40   C     C_R   0.027300 0.773520 0.529374 0.019249
C41   C     C_R   0.518812 0.054564 0.529016 0.006674
C42   C     C_R   0.524206 0.056854 0.453223 -0.013448
C43   C     C_R   0.018812 0.554563 0.529016 0.006673
C44   C     C_R   0.024207 0.556854 0.453223 -0.013447
C45   C     C_R   0.530104 0.177882 0.850657 0.549986
C46   C     C_R   0.469616 0.177493 0.149121 0.540323
C47   C     C_R   0.030104 0.677882 0.850657 0.549985
C48   C     C_R   0.969616 0.677493 0.149120 0.540324
C49   C     C_3   0.487421 0.395796 0.458229 -0.254496
C50   C     C_3   0.489659 0.390424 0.538109 -0.267364
C51   C     C_3   0.987421 0.895796 0.458230 -0.254496
C52   C     C_3   0.989659 0.890424 0.538109 -0.267363
C53   C     C_R   0.757793 0.419613 0.424592 0.012880
C54   C     C_R   0.247127 0.413566 0.577357 -0.005142
C55   C     C_R   0.257793 0.919612 0.424592 0.012880
C56   C     C_R   0.747127 0.913566 0.577357 -0.005143
C57   C     C_R   0.816303 0.396314 0.467015 0.031968
C58   C     C_R   0.196356 0.349397 0.540160 0.108452
C59   C     C_R   0.316302 0.896313 0.467015 0.031968
C60   C     C_R   0.696357 0.849397 0.540160 0.108455
C61   C     C_R   0.811142 0.386427 0.539865 -0.009103
C62   C     C_R   0.197838 0.342910 0.466798 0.078155
C63   C     C_R   0.311142 0.886427 0.539865 -0.009103
C64   C     C_R   0.697838 0.842910 0.466798 0.078156
C65   C     C_R   0.687882 0.429749 0.530875 -0.156356
C66   C     C_R   0.301702 0.466120 0.464927 -0.179955
C67   C     C_R   0.187882 0.929749 0.530875 -0.156356
C68   C     C_R   0.801702 0.966121 0.464927 -0.179955
C69   C     C_R   0.692848 0.436103 0.456733 -0.173478
C70   C     C_R   0.301730 0.468030 0.539526 -0.184922
C71   C     C_R   0.192847 0.936103 0.456733 -0.173478
C72   C     C_R   0.801730 0.968030 0.539526 -0.184923
C73   C     C_3   0.860700 0.286611 0.460897 -0.255724
C74   C     C_3   0.183469 0.217038 0.548157 -0.262821
C75   C     C_3   0.360699 0.786611 0.460897 -0.255725
C76   C     C_3   0.683469 0.717037 0.548156 -0.262821
C77   C     C_3   0.853107 0.272607 0.539733 -0.263809
C78   C     C_3   0.184359 0.209923 0.468450 -0.231795
C79   C     C_3   0.353108 0.772607 0.539733 -0.263809
C80   C     C_3   0.684359 0.709923 0.468450 -0.231796
C81   C     C_R   0.747087 0.402970 0.573088 0.005814
C82   C     C_R   0.250211 0.400704 0.427655 -0.004669
C83   C     C_R   0.247087 0.902969 0.573088 0.005814
C84   C     C_R   0.750211 0.900704 0.427655 -0.004668
C85   C     C_R   0.736003 0.354752 0.855693 0.546996
C86   C     C_R   0.261708 0.364902 0.147853 0.536282
C87   C     C_R   0.236003 0.854751 0.855693 0.546997
C88   C     C_R   0.761707 0.864902 0.147853 0.536282
C89   C     C_R   0.728326 0.954226 0.648161 0.545706
C90   C     C_R   0.272157 0.954491 0.351956 0.537045
C91   C     C_R   0.228326 0.454226 0.648161 0.545705
C92   C     C_R   0.772158 0.454492 0.351956 0.537045
C93   C     C_R   0.532455 0.175759 0.642612 0.528167
C94   C     C_R   0.472643 0.176644 0.353485 0.530403
C95   C     C_R   0.032455 0.675758 0.642612 0.528166
C96   C     C_R   0.972643 0.676644 0.353485 0.530403
C97   C     C_R   0.738222 0.358905 0.645200 0.548050
C98   C     C_R   0.261109 0.360096 0.354631 0.536823
C99   C     C_R   0.238222 0.858905 0.645200 0.548050
C100  C     C_R   0.761109 0.860096 0.354631 0.536823
C101  C     C_2   0.498015 0.171287 0.920850 -0.116972
C102  C     C_2   0.500818 0.166925 0.078539 -0.122971
C103  C     C_2   0.998015 0.671287 0.920850 -0.116971
C104  C     C_2   0.000817 0.666925 0.078539 -0.122971
C105  C     C_2   0.485005 0.071265 0.036657 -0.170404
C106  C     C_2   0.499706 0.069793 0.959940 -0.166264
C107  C     C_2   0.985004 0.571265 0.036657 -0.170403
C108  C     C_2   0.999705 0.569793 0.959940 -0.166264
C109  C     C_R   0.748325 0.409436 0.078908 0.015046
C110  C     C_R   0.234392 0.445382 0.932220 0.020167
C111  C     C_R   0.248325 0.909438 0.078908 0.015045
C112  C     C_R   0.734392 0.945383 0.932221 0.020167
Cr1   Cr    Cr6+3 0.769260 0.163750 0.750730 1.010397
Cr2   Cr    Cr6+3 0.230740 0.163750 0.249270 1.013390
Cr3   Cr    Cr6+3 0.269260 0.663750 0.750730 1.010397
Cr4   Cr    Cr6+3 0.730740 0.663750 0.249270 1.013389
Cr5   Cr    Cr6+3 0.612640 0.009910 0.748780 1.033865
Cr6   Cr    Cr6+3 0.387360 0.009910 0.251220 1.016803
Cr7   Cr    Cr6+3 0.112640 0.509910 0.748780 1.033862
Cr8   Cr    Cr6+3 0.887360 0.509910 0.251220 1.016804
Cr9   Cr    Cr6+3 0.614190 0.322400 0.747710 1.017514
Cr10  Cr    Cr6+3 0.385810 0.322400 0.252290 1.010516
Cr11  Cr    Cr6+3 0.114190 0.822400 0.747710 1.017515
Cr12  Cr    Cr6+3 0.885810 0.822400 0.252290 1.010516
H1    H     H_    0.458950 0.991992 0.058397 0.159010
H2    H     H_    0.511619 0.983346 0.935429 0.141129
H3    H     H_    0.958949 0.491992 0.058397 0.159010
H4    H     H_    0.011618 0.483346 0.935429 0.141128
H5    H     H_    0.933286 0.889239 0.438112 0.176035
H6    H     H_    0.021828 0.963377 0.562561 0.147260
H7    H     H_    0.433287 0.389239 0.438112 0.176036
H8    H     H_    0.521828 0.463377 0.562561 0.147260
H9    H     H_    0.518975 0.471296 0.435848 0.139778
H10   H     H_    0.437676 0.376943 0.562808 0.137118
H11   H     H_    0.018975 0.971296 0.435848 0.139778
H12   H     H_    0.937677 0.876943 0.562808 0.137118
H13   H     H_    0.637511 0.441331 0.555051 0.144277
H14   H     H_    0.343659 0.509801 0.436624 0.123897
H15   H     H_    0.137511 0.941331 0.555051 0.144277
H16   H     H_    0.843659 0.009802 0.436624 0.123897
H17   H     H_    0.647141 0.457845 0.425021 0.125444
H18   H     H_    0.343974 0.511978 0.567978 0.124307
H19   H     H_    0.147141 0.957846 0.425021 0.125444
H20   H     H_    0.843974 0.011978 0.567978 0.124308
H21   H     H_    0.914287 0.309418 0.444234 0.215858
H22   H     H_    0.131800 0.194999 0.571334 0.197286
H23   H     H_    0.414286 0.809417 0.444233 0.215856
H24   H     H_    0.631801 0.694999 0.571334 0.197286
H25   H     H_    0.834935 0.214110 0.429236 0.133981
H26   H     H_    0.228219 0.169606 0.573942 0.115332
H27   H     H_    0.334935 0.714109 0.429236 0.133981
H28   H     H_    0.728220 0.669606 0.573941 0.115332
H29   H     H_    0.819073 0.196364 0.554155 0.168410
H30   H     H_    0.230357 0.160067 0.448247 0.148396
H31   H     H_    0.319074 0.696364 0.554156 0.168411
H32   H     H_    0.730357 0.660068 0.448246 0.148397
H33   H     H_    0.902693 0.277848 0.570078 0.163890
H34   H     H_    0.133162 0.184386 0.444464 0.196017
H35   H     H_    0.402694 0.777849 0.570078 0.163888
H36   H     H_    0.633162 0.684386 0.444464 0.196016
H37   H     H_    0.528093 0.245277 0.057221 0.112472
H38   H     H_    0.482129 0.256155 0.944846 0.109985
H39   H     H_    0.028093 0.745277 0.057221 0.112472
H40   H     H_    0.982128 0.756155 0.944845 0.109984
H41   H     H_    0.810810 0.225245 0.950926 0.150869
H42   H     H_    0.137328 0.397002 0.080486 0.136382
H43   H     H_    0.310805 0.725236 0.950927 0.150868
H44   H     H_    0.637328 0.896998 0.080485 0.136384
H45   H     H_    0.819053 0.256193 0.078168 0.138429
H46   H     H_    0.124071 0.414849 0.952668 0.137101
H47   H     H_    0.319049 0.756187 0.078169 0.138428
H48   H     H_    0.624071 0.914845 0.952668 0.137102
H49   H     H_    0.238677 0.160841 0.044302 0.155377
H50   H     H_    0.904421 0.989644 0.926937 0.142193
H51   H     H_    0.738662 0.660837 0.044306 0.155387
H52   H     H_    0.404423 0.489631 0.926936 0.142192
H53   H     H_    0.641550 0.641545 0.053977 0.145623
H54   H     H_    0.364716 0.334156 0.920234 0.131613
H55   H     H_    0.141562 0.141570 0.053974 0.145626
H56   H     H_    0.864718 0.834167 0.920234 0.131614
H57   H     H_    0.631056 0.607440 0.928774 0.142837
H58   H     H_    0.378168 0.308810 0.045880 0.151914
H59   H     H_    0.131066 0.107462 0.928772 0.142836
H60   H     H_    0.878170 0.808820 0.045880 0.151917
H61   H     H_    0.727892 0.629111 0.919214 0.135628
H62   H     H_    0.419104 0.463444 0.052529 0.145895
H63   H     H_    0.227906 0.129113 0.919212 0.135624
H64   H     H_    0.919102 0.963456 0.052531 0.145894
O1    O     O_R   0.784290 0.290360 0.830540 -0.527768
O2    O     O_R   0.215710 0.290360 0.169460 -0.530289
O3    O     O_R   0.284290 0.790360 0.830540 -0.527767
O4    O     O_R   0.715710 0.790360 0.169460 -0.530290
O5    O     O_R   0.554690 0.080440 0.673480 -0.500065
O6    O     O_R   0.445310 0.080440 0.326520 -0.509303
O7    O     O_R   0.054690 0.580440 0.673480 -0.500068
O8    O     O_R   0.945310 0.580440 0.326520 -0.509302
O9    O     O_R   0.543980 0.282110 0.666770 -0.515365
O10   O     O_R   0.456020 0.282110 0.333230 -0.519216
O11   O     O_R   0.043980 0.782110 0.666770 -0.515364
O12   O     O_R   0.956020 0.782110 0.333230 -0.519216
O13   O     O_R   0.679070 0.374030 0.674430 -0.507776
O14   O     O_R   0.320930 0.374030 0.325570 -0.507782
O15   O     O_R   0.179070 0.874030 0.674430 -0.507776
O16   O     O_R   0.820930 0.874030 0.325570 -0.507782
O17   O     O_3   0.665360 0.165350 0.749070 -0.256031
O18   O     O_3   0.334640 0.165350 0.250930 -0.250088
O19   O     O_3   0.165360 0.665350 0.749070 -0.256031
O20   O     O_3   0.834640 0.665350 0.250930 -0.250088
O21   O     O_R   0.762610 0.041070 0.825230 -0.502458
O22   O     O_R   0.237390 0.041070 0.174770 -0.501416
O23   O     O_R   0.262610 0.541070 0.825230 -0.502458
O24   O     O_R   0.737390 0.541070 0.174770 -0.501417
O25   O     O_R   0.667390 0.924160 0.829970 -0.531100
O26   O     O_R   0.332610 0.924160 0.170030 -0.525828
O27   O     O_R   0.167390 0.424160 0.829970 -0.531100
O28   O     O_R   0.832610 0.424160 0.170030 -0.525829
O29   O     O_R   0.553980 0.081420 0.821780 -0.501888
O30   O     O_R   0.446020 0.081420 0.178220 -0.500020
O31   O     O_R   0.053980 0.581420 0.821780 -0.501888
O32   O     O_R   0.946020 0.581420 0.178220 -0.500020
O33   O     O_R   0.543210 0.283170 0.826740 -0.516880
O34   O     O_R   0.456790 0.283170 0.173260 -0.520779
O35   O     O_R   0.043210 0.783170 0.826740 -0.516879
O36   O     O_R   0.956790 0.783170 0.173260 -0.520779
O37   O     O_R   0.678350 0.375000 0.822720 -0.495325
O38   O     O_R   0.321650 0.375000 0.177280 -0.498647
O39   O     O_R   0.178350 0.875000 0.822720 -0.495325
O40   O     O_R   0.821650 0.875000 0.177280 -0.498646
O41   O     O_R   0.785060 0.289300 0.670580 -0.522139
O42   O     O_R   0.214940 0.289300 0.329420 -0.513396
O43   O     O_R   0.285060 0.789300 0.670580 -0.522139
O44   O     O_R   0.714940 0.789300 0.329420 -0.513396
O45   O     O_R   0.763330 0.040090 0.676940 -0.511893
O46   O     O_R   0.236670 0.040090 0.323060 -0.511513
O47   O     O_R   0.263330 0.540090 0.676940 -0.511893
O48   O     O_R   0.736670 0.540090 0.323060 -0.511513
O49   O     O_R   0.668160 0.923110 0.670000 -0.484902
O50   O     O_R   0.331840 0.923110 0.330000 -0.511093
O51   O     O_R   0.168160 0.423110 0.670000 -0.484905
O52   O     O_R   0.831840 0.423110 0.330000 -0.511093
C113  C     C_2   0.504277 0.941997 0.569162 0.290268
H65   H     H_    0.464052 0.943554 0.609581 0.082148
O53   O     O_2   0.539572 0.851230 0.562705 -0.489062
C114  C     C_2   0.540236 0.949543 0.407799 0.259605
H66   H     H_    0.556300 0.963940 0.353179 0.110638
O54   O     O_2   0.537033 0.845623 0.429115 -0.514938
C115  C     C_2   0.004277 0.441997 0.569162 0.290264
H67   H     H_    0.964054 0.443555 0.609583 0.082151
O55   O     O_2   0.039570 0.351227 0.562703 -0.489065
C116  C     C_2   0.040237 0.449545 0.407798 0.259609
H68   H     H_    0.056302 0.463943 0.353178 0.110635
O56   O     O_2   0.037033 0.345623 0.429113 -0.514935

loop_
_geom_bond_atom_site_label_1
_geom_bond_atom_site_label_2
_ccdc_geom_bond_type
C58   C62   A    
C39   C51   S    
C4    C109  S    
C67   C83   A    
Cr2   O2    S    
Cr3   O19   S    
C6    C110  A    
C41   C42   A    
C14   C18   A    
C93   O9    A    
C34   C93   S    
Cr9   O17   S    
C22   H54   S    
C53   C69   A    
C33   C94   S    
C104  H39   S    
Cr3   O47   S    
C51   H5    S    
C68   C84   A    
C9    C25   S    
Cr2   O46   S    
C63   C79   S    
C35   C96   S    
C45   O33   A    
Cr7   O27   S    
C49   H7    S    
C103  H40   S    
Cr8   O8    S    
C89   O45   A    
Cr3   O43   S    
C12   C28   S    
C46   O30   A    
C33   C42   A    
C13   C29   A    
C101  H38   S    
Cr6   O18   S    
C19   H47   S    
C55   C90   S    
Cr5   O17   S    
C28   H64   S    
C1    C112  S    
C79   H35   S    
C25   H61   S    
C17   H45   S    
C80   H36   S    
C67   C71   A    
Cr11  O39   S    
C76   H28   S    
C3    C110  S    
C116  O56   D    
C48   C104  S    
C91   O47   A    
C65   C69   A    
Cr9   O37   S    
C114  H66   S    
C90   O46   A    
C102  C105  D    
C72   H20   S    
C113  H65   S    
C96   O8    A    
C57   C73   S    
C49   C50   S    
C95   O11   A    
Cr10  O18   S    
C64   C84   A    
C36   C40   A    
C49   H9    S    
C88   O40   A    
C81   C97   S    
C77   H29   S    
C15   C19   A    
C51   H11   S    
C78   H34   S    
C97   O41   A    
Cr8   O28   S    
Cr12  O36   S    
C75   H27   S    
C21   H51   S    
C66   H14   S    
C73   H21   S    
Cr6   O30   S    
C107  C108  S    
Cr5   O29   S    
C103  C108  D    
C23   C27   S    
C30   C86   S    
C67   H15   S    
C23   H55   S    
C7    C23   S    
Cr2   O22   S    
C8    C12   A    
Cr3   O3    S    
Cr6   O50   S    
C21   H53   S    
C62   C82   A    
C11   C31   A    
C73   H25   S    
C98   O42   A    
Cr12  O20   S    
Cr7   O31   S    
C64   C80   S    
C47   C103  S    
C15   H43   S    
C34   C41   A    
C14   C30   A    
Cr1   O41   S    
C100  O16   A    
C7    C111  A    
C34   C38   A    
Cr12  O40   S    
C25   H57   S    
C80   H32   S    
C3    O27   A    
C115  O55   D    
C77   H33   S    
C3    O23   A    
C62   C78   S    
C2    C111  S    
C2    O22   A    
C86   O2    A    
C90   O50   A    
C1    O21   A    
C51   C52   S    
Cr8   O20   S    
C89   O49   A    
C100  O44   A    
C31   C87   S    
Cr10  O38   S    
C20   C112  A    
C50   H10   S    
C43   C115  S    
C39   C40   A    
C53   C57   A    
Cr1   O21   S    
C78   H30   S    
C48   O36   A    
C56   C72   A    
C116  H68   S    
C40   C52   S    
C47   O31   A    
C92   O48   A    
Cr7   O51   S    
Cr10  O10   S    
Cr2   O18   S    
C76   H24   S    
C63   C83   A    
C68   C72   A    
C94   O10   A    
Cr1   O17   S    
C55   C71   A    
C35   C39   A    
C43   C44   A    
C6    C10   A    
C37   C38   A    
C86   O38   A    
C66   C82   A    
C37   C49   S    
C10   C30   A    
C87   O3    A    
C65   C81   A    
C54   C70   A    
C11   C27   S    
Cr8   O32   S    
C16   C20   A    
Cr4   O48   S    
C53   C92   S    
C85   O37   A    
Cr11  O19   S    
Cr6   O26   S    
C27   H63   S    
C13   H41   S    
C108  H4    S    
Cr12  O12   S    
C15   C31   A    
C35   C44   A    
Cr9   O9    S    
Cr4   O20   S    
C50   H8    S    
Cr8   O52   S    
C23   H49   S    
C26   H58   S    
C44   C116  S    
C56   C89   S    
C20   H48   S    
Cr12  O16   S    
Cr4   O44   S    
C2    O26   A    
C85   O1    A    
C60   C76   S    
C45   C101  S    
Cr10  O34   S    
C52   H12   S    
C82   C98   S    
C59   C63   A    
C68   H16   S    
C32   C88   S    
Cr7   O19   S    
C91   O51   A    
Cr5   O5    S    
C59   C75   S    
C55   C59   A    
C58   C74   S    
C24   C28   S    
C71   H19   S    
C54   C58   A    
Cr11  O11   S    
C101  C106  D    
C96   O12   A    
C61   C77   S    
C21   C25   S    
C52   H6    S    
C92   O52   A    
C95   O7    A    
C99   O15   A    
C24   H50   S    
C94   O6    A    
C29   C85   S    
C74   H22   S    
C93   O5    A    
C76   C80   S    
C97   O13   A    
C17   C109  A    
Cr2   O42   S    
C70   H18   S    
C99   O43   A    
C115  H67   S    
C57   C61   A    
C38   C50   S    
C19   C111  A    
C88   O4    A    
C16   C32   A    
C79   H31   S    
Cr1   O1    S    
C105  C106  S    
C106  H2    S    
C87   O39   A    
C4    O24   A    
Cr3   O23   S    
C107  H3    S    
C60   C64   A    
C75   H23   S    
C105  H1    S    
C8    C112  A    
C28   H60   S    
C74   H26   S    
C65   H13   S    
C54   C91   S    
Cr4   O24   S    
C61   C81   A    
C1    O25   A    
C9    C29   A    
Cr9   O13   S    
C36   C95   S    
C10   C26   S    
Cr1   O45   S    
Cr11  O35   S    
C16   H44   S    
C102  H37   S    
C98   O14   A    
C24   H56   S    
C69   H17   S    
C42   C114  S    
C8    C24   S    
C114  O54   D    
C33   C37   A    
Cr7   O7    S    
Cr4   O4    S    
C46   O34   A    
Cr6   O6    S    
C27   H59   S    
C22   H52   S    
C84   C100  S    
Cr5   O49   S    
C13   C17   A    
C56   C60   A    
Cr10  O14   S    
Cr5   O25   S    
C5    C21   S    
C66   C70   A    
C47   O35   A    
C73   C77   S    
C18   C110  A    
C14   H42   S    
C22   C26   S    
C18   H46   S    
C41   C113  S    
C4    O28   A    
Cr9   O33   S    
C26   H62   S    
C36   C43   A    
C74   C78   S    
C5    C9    A    
C5    C109  A    
Cr11  O15   S    
C113  O53   D    
C75   C79   S    
C104  C107  D    
C12   C32   A    
C45   O29   A    
C48   O32   A    
C7    C11   A    
C83   C99   S    
C46   C102  S    
C6    C22   S    
