data_mof_unit_53689.cif
_audit_creation_date              2012-12-10T18:43:07-0500
_audit_creation_method            fapswitch 2.2
_symmetry_space_group_name_H-M    P1
_symmetry_Int_Tables_number       1
_space_group_crystal_system       triclinic
_cell_length_a                    10.632386
_cell_length_b                    9.855498
_cell_length_c                    10.747702
_cell_angle_alpha                 89.968732
_cell_angle_beta                  90.096772
_cell_angle_gamma                 90.122272
_cell_volume                      1126.22004584

loop_
_atom_site_label
_atom_site_type_symbol
_atom_type_description
_atom_site_fract_x
_atom_site_fract_y
_atom_site_fract_z
_atom_type_partial_charge
C1    C     C_R   0.260323 0.499776 0.503039 0.842469
C2    C     C_R   0.739607 0.500135 0.503877 0.849561
C3    C     C_R   0.497341 0.499862 0.262568 0.940242
C4    C     C_R   0.503200 0.499836 0.737395 0.896542
C5    C     C_2   0.498283 0.385375 0.933096 -0.145538
C6    C     C_2   0.505425 0.385589 0.066989 -0.151860
C7    C     C_2   0.515749 0.499735 0.868815 -0.309036
C8    C     C_2   0.486124 0.499662 0.131005 -0.321158
C9    C     C_R   0.063648 0.429522 0.418800 -0.165226
C10   C     C_R   0.935327 0.432122 0.417538 -0.157758
C11   C     C_R   0.871995 0.500547 0.511421 -0.113080
C12   C     C_R   0.127924 0.498876 0.511811 -0.116830
C13   C     C_R   0.934463 0.563850 0.611820 -0.034230
C14   C     C_R   0.066328 0.567424 0.609384 -0.048272
C15   C     C_R   0.577790 0.072043 0.577712 -0.060057
C16   C     C_R   0.422150 0.071779 0.422344 -0.063293
C17   C     C_R   0.577809 0.928248 0.577694 -0.054044
C18   C     C_R   0.422126 0.927979 0.422372 -0.049895
H1    H     H_    0.479326 0.289102 0.887423 0.176181
H2    H     H_    0.525254 0.289710 0.112942 0.174487
H3    H     H_    0.542574 0.595179 0.911445 0.159349
H4    H     H_    0.458682 0.594664 0.088075 0.154026
H5    H     H_    0.113216 0.377305 0.344875 0.147468
H6    H     H_    0.885033 0.381723 0.342736 0.153247
H7    H     H_    0.640010 0.126547 0.639903 0.136679
H8    H     H_    0.359879 0.126077 0.360205 0.130260
H9    H     H_    0.640057 0.874006 0.639859 0.125500
H10   H     H_    0.359816 0.873484 0.360273 0.134938
N1    N     N_R   0.500000 0.857200 0.500000 -0.083892
N2    N     N_R   0.500000 0.142810 0.500000 -0.085528
O1    O     O_R   0.316770 0.614620 0.499990 -0.621484
O2    O     O_R   0.683230 0.614620 0.500010 -0.629131
O3    O     O_R   0.316800 0.385290 0.500000 -0.610872
O4    O     O_R   0.683200 0.385290 0.500000 -0.610882
O5    O     O_R   0.500000 0.614630 0.319080 -0.614027
O6    O     O_R   0.500000 0.614630 0.680920 -0.632372
O7    O     O_R   0.500030 0.385300 0.319080 -0.621737
O8    O     O_R   0.499970 0.385300 0.680920 -0.616068
Zn1   Zn    Zn3+2 0.500000 0.653120 0.500000 0.957546
Zn2   Zn    Zn3+2 0.500000 0.346880 0.500000 0.955782
C19   C     C_2   0.861760 0.614140 0.721160 0.439193
H11   H     H_    0.769311 0.658175 0.709346 0.061090
O9    O     O_2   0.902189 0.600975 0.826872 -0.538919
C20   C     C_2   0.140727 0.641424 0.705549 0.520156
H12   H     H_    0.231176 0.602468 0.735582 0.036088
O10   O     O_2   0.104235 0.749201 0.748103 -0.535616

loop_
_geom_bond_atom_site_label_1
_geom_bond_atom_site_label_2
_ccdc_geom_bond_type
O5    Zn1   S    
C4    O6    A    
C15   C17   A    
C5    H1    S    
C11   C13   A    
C9    C10   A    
C8    H4    S    
C3    O5    A    
C2    O4    A    
C13   C19   S    
C12   C14   A    
C1    O3    A    
C18   N1    A    
C13   C14   A    
O8    Zn2   S    
C19   O9    D    
N1    Zn1   S    
C1    C12   S    
C6    H2    S    
C4    C7    S    
O4    Zn2   S    
C2    C11   S    
C2    O2    A    
O1    Zn1   S    
O7    Zn2   S    
O6    Zn1   S    
C16   H8    S    
C5    C6    S    
C9    C12   A    
C15   H7    S    
O3    Zn2   S    
C10   C11   A    
N2    Zn2   S    
C17   H9    S    
C17   N1    A    
C1    O1    A    
C18   H10   S    
C20   H12   S    
C3    O7    A    
C15   N2    A    
C14   C20   S    
C3    C8    S    
C19   H11   S    
O2    Zn1   S    
C5    C7    D    
C9    H5    S    
C6    C8    D    
C20   O10   D    
C10   H6    S    
C7    H3    S    
C16   N2    A    
C16   C18   A    
C4    O8    A    
