data_mof_unit_10696.cif
_audit_creation_date              2012-12-10T18:43:41-0500
_audit_creation_method            fapswitch 2.2
_symmetry_space_group_name_H-M    P1
_symmetry_Int_Tables_number       1
_space_group_crystal_system       triclinic
_cell_length_a                    11.007601
_cell_length_b                    10.642993
_cell_length_c                    9.891884
_cell_angle_alpha                 89.02652
_cell_angle_beta                  100.490159
_cell_angle_gamma                 92.80299
_cell_volume                      1138.10094441

loop_
_atom_site_label
_atom_site_type_symbol
_atom_type_description
_atom_site_fract_x
_atom_site_fract_y
_atom_site_fract_z
_atom_type_partial_charge
C1    C     C_R   0.509935 0.259458 0.503630 0.925530
C2    C     C_R   0.481667 0.737986 0.495604 0.911802
C3    C     C_R   0.261926 0.498175 0.446448 0.919870
C4    C     C_R   0.739988 0.500564 0.552547 0.942177
C5    C     C_R   0.579973 0.580062 0.085991 0.188827
C6    C     C_R   0.412990 0.428753 0.912936 0.135652
C7    C     C_R   0.587341 0.571194 0.943896 0.222114
C8    C     C_R   0.418490 0.422808 0.058327 0.234473
C9    C     C_2   0.131837 0.474793 0.426827 -0.194292
C10   C     C_2   0.874174 0.519334 0.568633 -0.171624
C11   C     C_2   0.060096 0.561660 0.467362 -0.111888
C12   C     C_2   0.929408 0.531210 0.454775 -0.110312
C13   C     C_R   0.521045 0.059985 0.386303 -0.154251
C14   C     C_R   0.447821 0.932094 0.613101 -0.070101
C15   C     C_R   0.466293 0.938998 0.369459 0.101221
C16   C     C_R   0.491674 0.056706 0.626743 0.164169
C17   C     C_R   0.454236 0.870256 0.489603 -0.118645
C18   C     C_R   0.516666 0.123464 0.509084 -0.142966
N1    N     N_R   0.499970 0.499970 0.857200 -0.153778
N2    N     N_R   0.500030 0.500030 0.142800 -0.145687
O1    O     O_R   0.499990 0.316750 0.614620 -0.665696
O2    O     O_R   0.500010 0.683250 0.385380 -0.610813
O3    O     O_R   0.499990 0.316780 0.385290 -0.559150
O4    O     O_R   0.500010 0.683220 0.614710 -0.653826
O5    O     O_R   0.317810 0.500000 0.571850 -0.621986
O6    O     O_R   0.682190 0.500000 0.428150 -0.617592
O7    O     O_R   0.317810 0.500030 0.342520 -0.647811
O8    O     O_R   0.682190 0.499970 0.657480 -0.559049
Zn1   Zn    Zn3+2 0.500000 0.499980 0.653120 0.949115
Zn2   Zn    Zn3+2 0.500000 0.500020 0.346880 0.990498
C19   C     C_2   0.871020 0.509411 0.307735 0.516936
H1    H     H_    0.890831 0.576883 0.230197 0.019820
O9    O     O_2   0.812755 0.411639 0.270686 -0.462947
C20   C     C_2   0.099568 0.695307 0.500406 0.308439
H2    H     H_    0.037004 0.755574 0.538996 0.079594
O10   O     O_2   0.198018 0.741318 0.480051 -0.639772
N3    N     N_2   0.662537 0.666375 0.170706 -0.315355
H3    H     H_    0.670115 0.654286 0.273886 0.280034
C21   C     C_3   0.662559 0.798531 0.133881 -0.796784
H4    H     H_    0.655373 0.855524 0.224617 0.237483
H5    H     H_    0.584610 0.819850 0.049908 0.273411
H6    H     H_    0.752438 0.827870 0.105420 0.244561
N4    N     N_2   0.316974 0.359110 0.826351 -0.312965
H7    H     H_    0.337790 0.331160 0.735235 0.273497
C22   C     C_3   0.197776 0.413825 0.808400 -0.694583
H8    H     H_    0.130637 0.358620 0.731853 0.266742
H9    H     H_    0.205373 0.512436 0.771667 0.236205
H10   H     H_    0.162156 0.412753 0.906069 0.245515
C23   C     C_2   0.944346 0.541405 0.709898 0.348612
H11   H     H_    0.023003 0.607763 0.728105 0.052543
O11   O     O_2   0.914141 0.485332 0.808170 -0.558328
C24   C     C_2   0.091503 0.341413 0.392264 0.396807
H12   H     H_    0.141582 0.288702 0.328924 0.051941
O12   O     O_2   0.008818 0.286890 0.440602 -0.494364
N5    N     N_2   0.697959 0.615634 0.898897 -0.224957
H13   H     H_    0.777895 0.598203 0.967575 0.252208
C25   C     C_3   0.701584 0.738535 0.833830 -0.656354
H14   H     H_    0.614384 0.786834 0.830147 0.243369
H15   H     H_    0.720487 0.729103 0.728363 0.235100
H16   H     H_    0.779023 0.798759 0.889709 0.190762
N6    N     N_2   0.336797 0.340308 0.117939 -0.261255
H17   H     H_    0.253556 0.376570 0.126531 0.221027
C26   C     C_3   0.330217 0.208315 0.082837 -0.723671
H18   H     H_    0.247118 0.186472 0.003326 0.255453
H19   H     H_    0.322167 0.151067 0.175767 0.229646
H20   H     H_    0.413992 0.181824 0.044140 0.236013
C27   C     C_2   0.599618 0.111497 0.288183 0.461722
H21   H     H_    0.586251 0.081821 0.182402 0.034307
O13   O     O_2   0.687461 0.184302 0.328178 -0.472134
C28   C     C_2   0.389165 0.868406 0.723491 0.432976
H22   H     H_    0.340684 0.777574 0.705664 0.135989
O14   O     O_2   0.390851 0.917105 0.834725 -0.616859
N7    N     N_2   0.425954 0.886206 0.235175 -0.295924
H23   H     H_    0.444042 0.941028 0.154118 0.228376
C29   C     C_3   0.299530 0.835435 0.205720 -0.630314
H24   H     H_    0.234833 0.907126 0.225344 0.229623
H25   H     H_    0.288022 0.749922 0.267815 0.283716
H26   H     H_    0.275473 0.807579 0.095980 0.224395
N8    N     N_2   0.521973 0.108392 0.761371 -0.260799
H27   H     H_    0.461423 0.169147 0.789286 0.252368
C30   C     C_3   0.651949 0.133641 0.815130 -0.659725
H28   H     H_    0.663914 0.161223 0.924692 0.234725
H29   H     H_    0.690303 0.211253 0.756782 0.259747
H30   H     H_    0.704038 0.047710 0.809028 0.227447

loop_
_geom_bond_atom_site_label_1
_geom_bond_atom_site_label_2
_ccdc_geom_bond_type
N5    H13   S    
C26   H19   S    
C1    O1    A    
C5    N3    S    
N7    C29   S    
N7    H23   S    
C7    N5    S    
N4    H7    S    
C30   H28   S    
C21   H5    S    
C5    N2    A    
N2    Zn2   S    
C22   H8    S    
C6    N1    A    
C1    C18   S    
C8    N2    A    
C13   C18   A    
O8    Zn1   S    
C25   H15   S    
C20   H2    S    
N6    C26   S    
O4    Zn1   S    
C30   H29   S    
C23   O11   D    
C2    O2    A    
C19   O9    D    
C28   H22   S    
C8    N6    S    
C26   H20   S    
C2    C17   S    
C14   C28   S    
C14   C17   A    
C9    C24   S    
C4    O8    A    
C24   O12   D    
C21   H6    S    
C22   H9    S    
O5    Zn1   S    
C27   H21   S    
O3    Zn2   S    
C3    O5    A    
C21   H4    S    
C5    C7    A    
C25   H16   S    
C6    C8    A    
O1    Zn1   S    
C26   H18   S    
C27   O13   D    
C29   H24   S    
N3    H3    S    
C3    C9    S    
C29   H25   S    
C19   H1    S    
N4    C22   S    
C9    C11   D    
C10   C12   D    
C15   N7    S    
C1    O3    A    
C7    N1    A    
C6    N4    S    
N5    C25   S    
C12   C19   S    
C2    O4    A    
C14   C16   A    
C4    C10   S    
N1    Zn1   S    
C30   H30   S    
C24   H12   S    
N8    C30   S    
C13   C27   S    
C22   H10   S    
C15   C17   A    
O2    Zn2   S    
C11   C20   S    
C4    O6    A    
C11   C12   S    
O6    Zn2   S    
C16   N8    S    
C13   C15   A    
N3    C21   S    
C25   H14   S    
C3    O7    A    
C20   O10   D    
N6    H17   S    
C29   H26   S    
N8    H27   S    
C16   C18   A    
C23   H11   S    
C28   O14   D    
C10   C23   S    
O7    Zn2   S    
