data_mof_unit_19061.cif
_audit_creation_date              2012-12-10T19:25:47-0500
_audit_creation_method            fapswitch 2.2
_symmetry_space_group_name_H-M    P1
_symmetry_Int_Tables_number       1
_space_group_crystal_system       triclinic
_cell_length_a                    9.738367
_cell_length_b                    10.476722
_cell_length_c                    16.332959
_cell_angle_alpha                 89.920124
_cell_angle_beta                  82.868089
_cell_angle_gamma                 90.670567
_cell_volume                      1653.37615477

loop_
_atom_site_label
_atom_site_type_symbol
_atom_type_description
_atom_site_fract_x
_atom_site_fract_y
_atom_site_fract_z
_atom_type_partial_charge
C1    C     C_R   0.501343 0.742332 0.497642 0.898202
C2    C     C_3   0.624170 0.964284 0.466415 0.584541
C3    C     C_3   0.954657 0.614491 0.491291 -0.090780
C4    C     C_3   0.045333 0.385514 0.508680 -0.089307
C5    C     C_3   0.063495 0.545909 0.431592 -0.065912
C6    C     C_3   0.936514 0.454115 0.568391 -0.061744
C7    C     C_3   0.037063 0.568630 0.559743 -0.073278
C8    C     C_3   0.962941 0.431410 0.440236 -0.073613
C9    C     C_R   0.477536 0.504220 0.654426 0.880791
C10   C     C_R   0.522016 0.503302 0.345999 0.864382
C11   C     C_R   0.453982 0.532419 0.742544 -0.102621
C12   C     C_R   0.498713 0.257568 0.502256 0.915776
C13   C     C_R   0.540457 0.551590 0.262668 -0.084031
C14   C     C_R   0.558032 0.515015 0.792900 -0.209848
C15   C     C_R   0.538562 0.469817 0.195861 -0.217282
C16   C     C_R   0.536069 0.552376 0.875053 -0.202874
C17   C     C_R   0.536028 0.521283 0.117707 -0.164028
C18   C     C_R   0.411368 0.611026 0.907215 0.059619
C19   C     C_R   0.530818 0.654617 0.106704 0.053505
C20   C     C_R   0.306048 0.626657 0.856988 0.409139
C21   C     C_R   0.543833 0.736509 0.173294 0.385736
C22   C     C_R   0.327686 0.587162 0.775285 -0.247172
C23   C     C_3   0.402760 0.957222 0.453374 -0.316743
C24   C     C_R   0.548542 0.684214 0.251244 -0.239302
C25   C     C_2   0.390050 0.647085 0.994752 0.301570
C26   C     C_2   0.496926 0.704276 0.027577 0.311590
C27   C     C_3   0.542531 0.884724 0.946222 0.145444
C28   C     C_3   0.605500 0.903283 0.856332 -0.350164
C29   C     C_3   0.546866 0.020774 0.818168 -0.956457
C30   C     C_3   0.206363 0.671932 0.097243 0.124520
C31   C     C_3   0.068104 0.609689 0.131209 -0.285797
C32   C     C_3   0.983269 0.696331 0.192747 -0.934346
C33   C     C_3   0.153383 0.978562 0.585510 0.065581
C34   C     C_3   0.597692 0.042358 0.546268 -0.325995
C35   C     C_3   0.020150 0.026182 0.634624 -0.326963
C36   C     C_3   0.912286 0.919072 0.649831 -0.956785
C37   C     C_3   0.847953 0.018861 0.414714 0.077055
C38   C     C_3   0.980112 0.970173 0.364935 -0.339247
C39   C     C_3   0.090283 0.075431 0.350716 -0.950498
C40   C     C_3   0.526510 0.045983 0.421791 -0.308337
C41   C     C_3   0.473921 0.953613 0.577861 -0.326121
C42   C     C_3   0.497612 0.122661 0.502177 -0.105440
C43   C     C_3   0.502689 0.877049 0.497505 -0.096901
C44   C     C_3   0.376186 0.035234 0.533235 0.586251
Cl1   Cl    Cl    0.148355 0.700342 0.892673 -0.656596
Cl2   Cl    Cl    0.539360 0.903618 0.163379 -0.680172
H1    H     H_    0.655846 0.472941 0.768828 0.165280
H2    H     H_    0.616967 0.535871 0.913606 0.178973
H3    H     H_    0.549018 0.088158 0.359081 0.177302
H4    H     H_    0.451545 0.911065 0.640485 0.159301
H5    H     H_    0.324521 0.917353 0.416175 0.167760
H6    H     H_    0.676223 0.081825 0.583415 0.159587
H7    H     H_    0.121913 0.584873 0.374107 0.127485
H8    H     H_    0.878099 0.415158 0.625874 0.123334
H9    H     H_    0.570498 0.968610 0.982545 0.204629
H10   H     H_    0.427394 0.882961 0.948792 0.124885
H11   H     H_    0.719695 0.914309 0.853260 0.250679
H12   H     H_    0.533624 0.367267 0.204644 0.156938
H13   H     H_    0.582857 0.817963 0.819765 0.234380
H14   H     H_    0.433063 0.010212 0.818938 0.280791
H15   H     H_    0.594240 0.031871 0.753131 0.261323
H16   H     H_    0.569981 0.108032 0.852767 0.273094
H17   H     H_    0.185363 0.761801 0.064510 0.176090
H18   H     H_    0.263415 0.695673 0.150112 0.136729
H19   H     H_    0.007716 0.587936 0.079363 0.263495
H20   H     H_    0.087574 0.518561 0.162540 0.221665
H21   H     H_    0.040379 0.716494 0.246185 0.246549
H22   H     H_    0.883551 0.648380 0.215717 0.281465
H23   H     H_    0.911208 0.710569 0.483861 0.158120
H24   H     H_    0.960915 0.787659 0.162696 0.287594
H25   H     H_    0.196698 0.902633 0.622374 0.148179
H26   H     H_    0.127986 0.937129 0.526478 0.143149
H27   H     H_    0.043631 0.064129 0.694932 0.241129
H28   H     H_    0.976903 0.104802 0.600383 0.204067
H29   H     H_    0.883371 0.882945 0.590359 0.272488
H30   H     H_    0.818039 0.955913 0.686938 0.267111
H31   H     H_    0.953104 0.839268 0.684195 0.276364
H32   H     H_    0.874255 0.058448 0.474018 0.140922
H33   H     H_    0.805632 0.096306 0.378609 0.145855
H34   H     H_    0.088666 0.289319 0.515975 0.158328
H35   H     H_    0.021874 0.889628 0.398182 0.205454
H36   H     H_    0.955504 0.934787 0.304277 0.244732
H37   H     H_    0.051146 0.156939 0.317116 0.265067
H38   H     H_    0.183866 0.037593 0.313244 0.281573
H39   H     H_    0.119754 0.109567 0.410531 0.272986
H40   H     H_    0.073585 0.626589 0.609827 0.119015
H41   H     H_    0.926460 0.373506 0.390117 0.119562
H42   H     H_    0.551090 0.747050 0.303763 0.174376
H43   H     H_    0.246596 0.603226 0.736757 0.181079
H44   H     H_    0.529425 0.457010 0.066400 0.164516
N1    N     N_3   0.136700 0.499970 0.500060 -0.069241
N2    N     N_3   0.863300 0.500030 0.499940 -0.068702
O1    O     O_R   0.383390 0.686040 0.500000 -0.641870
O2    O     O_3   0.282443 0.584663 0.043791 -0.626615
O3    O     O_3   0.247470 0.081815 0.569579 -0.646080
O4    O     O_3   0.752357 0.916697 0.429978 -0.643902
O5    O     O_R   0.616610 0.313960 0.500000 -0.639456
O6    O     O_R   0.616650 0.686050 0.499970 -0.582930
O7    O     O_R   0.383350 0.313950 0.500030 -0.581215
O8    O     O_R   0.369590 0.500020 0.615820 -0.612460
O9    O     O_R   0.630410 0.499980 0.384180 -0.606036
O10   O     O_R   0.602840 0.500020 0.615790 -0.616904
O11   O     O_R   0.397160 0.499980 0.384210 -0.608305
O12   O     O_3   0.598860 0.774082 0.978905 -0.619678
Zn1   Zn    Zn3+2 0.344250 0.499990 0.500020 0.947866
Zn2   Zn    Zn3+2 0.655750 0.500010 0.499980 0.946780

loop_
_geom_bond_atom_site_label_1
_geom_bond_atom_site_label_2
_ccdc_geom_bond_type
C31   H20   S    
C35   H28   S    
C30   H18   S    
N1    Zn1   S    
C35   C36   S    
C34   C42   S    
C4    C8    S    
C16   H2    S    
C28   H11   S    
C37   H33   S    
O8    Zn1   S    
C5    H7    S    
C28   C29   S    
C19   C21   A    
C39   H38   S    
C4    H34   S    
C3    C7    S    
C36   H31   S    
C30   C31   S    
C11   C14   A    
C27   H9    S    
C7    H40   S    
C40   H3    S    
C27   O12   S    
C23   C43   S    
C15   C17   A    
C19   C26   S    
C12   O7    A    
C12   C42   S    
C36   H30   S    
C33   H26   S    
O1    Zn1   S    
C14   H1    S    
C1    C43   S    
C9    O10   A    
C8    N2    S    
C20   Cl1   S    
C32   H22   S    
C4    N1    S    
C26   O12   S    
C2    C34   S    
C40   C42   S    
C25   O2    S    
C30   H17   S    
C38   H36   S    
C41   C43   S    
C18   C25   S    
C42   C44   S    
C6    H8    S    
C33   O3    S    
O7    Zn1   S    
C29   H15   S    
C4    C6    S    
C27   H10   S    
C17   C19   A    
C32   H24   S    
C25   C26   D    
C1    O1    A    
C23   C44   S    
C13   C24   A    
C3    N2    S    
C34   C41   S    
C37   C38   S    
C36   H29   S    
C15   H12   S    
C9    C11   S    
C23   H5    S    
C31   C32   S    
C29   H14   S    
C2    C43   S    
C7    N1    S    
O11   Zn1   S    
C24   H42   S    
C10   O11   A    
C12   O5    A    
C5    N1    S    
C32   H21   S    
O5    Zn2   S    
N2    Zn2   S    
C20   C22   A    
C9    O8    A    
C13   C15   A    
C38   H35   S    
C41   C44   S    
C14   C16   A    
C39   H39   S    
C41   H4    S    
C21   Cl2   S    
C28   H13   S    
O9    Zn2   S    
C31   H19   S    
C29   H16   S    
C35   H27   S    
C3    H23   S    
C10   O9    A    
C17   H44   S    
C3    C5    S    
C10   C13   S    
C1    O6    A    
C5    C8    S    
C6    C7    S    
C37   H32   S    
C11   C22   A    
C34   H6    S    
O6    Zn2   S    
C8    H41   S    
C2    O4    S    
C39   H37   S    
C30   O2    S    
C44   O3    S    
C38   C39   S    
C6    N2    S    
C33   C35   S    
C22   H43   S    
O10   Zn2   S    
C18   C20   A    
C33   H25   S    
C2    C40   S    
C37   O4    S    
C16   C18   A    
C21   C24   A    
C27   C28   S    
C23   C40   S    
