data_mof_unit_52317.cif
_audit_creation_date              2012-12-11T17:06:32-0500
_audit_creation_method            fapswitch 2.2
_symmetry_space_group_name_H-M    P1
_symmetry_Int_Tables_number       1
_space_group_crystal_system       triclinic
_cell_length_a                    6.962978
_cell_length_b                    14.545576
_cell_length_c                    15.94223
_cell_angle_alpha                 90.441983
_cell_angle_beta                  89.944739
_cell_angle_gamma                 89.984194
_cell_volume                      1614.58857859

loop_
_atom_site_label
_atom_site_type_symbol
_atom_type_description
_atom_site_fract_x
_atom_site_fract_y
_atom_site_fract_z
_atom_type_partial_charge
O1    O     O_R   0.494400 0.415450 0.412630 -0.536719
O2    O     O_R   0.823940 0.405730 0.586760 -0.542624
O3    O     O_R   0.994240 0.584550 0.587370 -0.538353
C1    C     C_R   0.655146 0.382792 0.614609 0.702197
O4    O     O_R   0.824110 0.404430 0.413240 -0.544048
O5    O     O_R   0.994420 0.583240 0.412620 -0.539106
C2    C     C_R   0.655389 0.382247 0.384234 0.691690
O6    O     O_R   0.494230 0.416760 0.587380 -0.539351
O7    O     O_3   0.660800 0.558670 0.500000 -0.369581
V1    V     V_3+5 0.935650 0.489120 0.500000 1.386342
O8    O     O_R   0.324140 0.594270 0.413240 -0.538486
C3    C     C_R   0.155141 0.615873 0.384082 0.696057
O9    O     O_R   0.323960 0.595570 0.586760 -0.543836
C4    C     C_R   0.154875 0.616878 0.616207 0.682860
V2    V     V_3+5 0.435660 0.510880 0.500000 1.388207
O10   O     O_3   0.160640 0.441330 0.500000 -0.371301
C5    C     C_3   0.045516 0.671289 0.772274 0.045032
C6    C     C_3   0.219619 0.715278 0.817445 -0.169627
H1    H     H_    0.294485 0.689842 0.874142 0.103378
C7    C     C_3   0.121933 0.809820 0.809928 -0.015500
C8    C     C_3   0.947292 0.766277 0.765922 -0.145882
C9    C     C_3   0.045432 0.781134 0.679710 -0.161634
C10   C     C_3   0.219654 0.826014 0.724577 -0.128575
C11   C     C_3   0.317216 0.730584 0.730994 -0.122429
C12   C     C_3   0.142654 0.686172 0.686722 -0.045520
H2    H     H_    0.794485 0.781317 0.780602 0.111681
H3    H     H_    0.973528 0.808201 0.622902 0.106521
H4    H     H_    0.292007 0.890517 0.705358 0.099303
H5    H     H_    0.470163 0.717753 0.715966 0.105020
C13   C     C_R   0.273051 0.814858 0.239102 0.098888
C14   C     C_R   0.118498 0.814994 0.182843 -0.112792
C15   C     C_R   0.966878 0.753403 0.198676 -0.178869
H6    H     H_    0.844368 0.750996 0.157204 0.134987
C16   C     C_R   0.977991 0.689746 0.264724 -0.179247
H7    H     H_    0.863060 0.640527 0.272302 0.127976
C17   C     C_R   0.141414 0.685467 0.316758 -0.112710
C18   C     C_R   0.284507 0.751592 0.304208 0.101668
C19   C     C_3   0.494944 0.738811 0.291874 -0.409139
C20   C     C_3   0.482603 0.808110 0.221279 -0.398450
H8    H     H_    0.530409 0.668156 0.269795 0.166431
H9    H     H_    0.579548 0.763911 0.346522 0.174894
H10   H     H_    0.511709 0.777882 0.158282 0.171312
H11   H     H_    0.559338 0.873457 0.235263 0.167262
C21   C     C_R   0.488639 0.252487 0.687661 0.098498
C22   C     C_R   0.647636 0.310455 0.679306 -0.113665
C23   C     C_R   0.803024 0.296354 0.734069 -0.156353
H12   H     H_    0.927150 0.340548 0.730739 0.147076
C24   C     C_R   0.791460 0.231625 0.799082 -0.190113
H13   H     H_    0.908467 0.226766 0.843293 0.134523
C25   C     C_R   0.624239 0.178933 0.811003 -0.115965
C26   C     C_R   0.477104 0.188285 0.751960 0.101095
C27   C     C_3   0.269627 0.207602 0.765977 -0.419851
C28   C     C_3   0.282240 0.277207 0.695705 -0.401866
H14   H     H_    0.242667 0.239590 0.828458 0.169609
H15   H     H_    0.178117 0.147292 0.750238 0.172084
H16   H     H_    0.261992 0.349438 0.717379 0.165748
H17   H     H_    0.198425 0.257125 0.639155 0.173707
C29   C     C_R   0.493434 0.315680 0.256439 0.098950
C30   C     C_R   0.647543 0.316313 0.312934 -0.111464
C31   C     C_R   0.799039 0.254350 0.297171 -0.180495
H18   H     H_    0.921425 0.252459 0.338715 0.132937
C32   C     C_R   0.787828 0.189637 0.231136 -0.179226
H19   H     H_    0.902541 0.140124 0.223645 0.127449
C33   C     C_R   0.624483 0.184717 0.179056 -0.110990
C34   C     C_R   0.481920 0.251401 0.191315 0.098171
C35   C     C_3   0.271149 0.239519 0.203119 -0.409034
C36   C     C_3   0.283563 0.309948 0.273775 -0.397165
H20   H     H_    0.234477 0.169349 0.225078 0.166748
H21   H     H_    0.187570 0.264006 0.148275 0.172531
H22   H     H_    0.253287 0.280872 0.336693 0.170451
H23   H     H_    0.207900 0.375323 0.259626 0.166576
O11   O     O_R   0.771650 0.079500 0.908680 -0.539866
O12   O     O_R   0.441690 0.091800 0.082800 -0.539784
O13   O     O_R   0.271460 0.912980 0.083410 -0.536702
C37   C     C_R   0.610667 0.113953 0.111879 0.691631
O14   O     O_R   0.441930 0.090510 0.909280 -0.540294
O15   O     O_R   0.271690 0.911670 0.908660 -0.537356
C38   C     C_R   0.611063 0.112690 0.880780 0.696288
O16   O     O_R   0.771410 0.080810 0.083440 -0.540314
O17   O     O_3   0.605100 0.937580 0.996050 -0.368711
V3    V     V_3+5 0.330220 0.007110 0.996030 1.392589
O18   O     O_R   0.941980 0.900620 0.909250 -0.541422
C39   C     C_R   0.110887 0.879203 0.880056 0.687274
O19   O     O_R   0.941740 0.901920 0.082770 -0.543389
C40   C     C_R   0.110515 0.880051 0.111691 0.692598
V4    V     V_3+5 0.830220 0.985300 0.996000 1.391968
O20   O     O_3   0.105210 0.054870 0.996020 -0.371355
C41   C     C_R   0.931943 0.589392 0.801354 0.069474
C42   C     C_R   0.990945 0.538169 0.871112 -0.148584
C43   C     C_R   0.870861 0.470363 0.904197 -0.127870
C44   C     C_R   0.690549 0.454073 0.868635 -0.089194
C45   C     C_R   0.632702 0.503374 0.798177 -0.133480
C46   C     C_R   0.754309 0.569572 0.763750 -0.122665
H24   H     H_    0.127589 0.551472 0.901025 0.101666
H25   H     H_    0.916388 0.431393 0.958221 0.104568
H26   H     H_    0.596811 0.402346 0.894887 0.108068
H27   H     H_    0.493791 0.490176 0.770120 0.104363
H28   H     H_    0.707949 0.607182 0.709145 0.112605

loop_
_geom_bond_atom_site_label_1
_geom_bond_atom_site_label_2
_ccdc_geom_bond_type
C35   H20   S    
C8    H2    S    
C14   C40   S    
C5    C41   S    
C1    O6    A    
C43   H25   S    
C22   C23   A    
C21   C22   A    
C32   H19   S    
C6    C11   S    
C17   C18   A    
O19   V4    S    
C16   H7    S    
O5    C3    A    
C19   C20   S    
C35   H21   S    
O15   C39   A    
V2    O10   S    
C31   C32   A    
C6    H1    S    
O12   V3    S    
C42   H24   S    
C11   H5    S    
O17   V4    S    
C44   H26   S    
C23   H12   S    
O8    V2    S    
C21   C28   S    
C9    C12   S    
C32   C33   A    
C10   C11   S    
O1    V2    S    
C3    C17   S    
O7    V1    S    
C6    C7    S    
C27   H15   S    
C24   C25   A    
C35   C36   S    
C30   C31   A    
O13   C40   A    
C8    C9    S    
O12   C37   A    
C25   C38   S    
C2    C30   S    
C27   H14   S    
C45   H27   S    
C25   C26   A    
C20   H10   S    
C1    C22   S    
C23   C24   A    
C26   C27   S    
C11   C12   S    
C19   H9    S    
C44   C45   A    
O4    C2    A    
C28   H17   S    
V4    O20   S    
C20   H11   S    
C29   C30   A    
O18   V4    S    
C5    C8    S    
C13   C18   A    
C31   H18   S    
C15   C16   A    
O2    C1    A    
C18   C19   S    
C29   C34   A    
C14   C15   A    
C7    C10   S    
O15   V3    S    
C7    C8    S    
C5    C6    S    
C10   H4    S    
O19   C40   A    
V3    O20   S    
O3    C4    A    
C21   C26   A    
C24   H13   S    
O18   C39   A    
O6    V2    S    
C9    H3    S    
O9    V2    S    
O13   V3    S    
O2    V1    S    
C27   C28   S    
C28   H16   S    
C41   C46   A    
O1    C2    A    
O14   C38   A    
O17   V3    S    
O14   V3    S    
O5    V1    S    
O11   V4    S    
O8    C3    A    
C36   H22   S    
C5    C12   S    
C15   H6    S    
O7    V2    S    
O4    V1    S    
O3    V1    S    
V1    O10   S    
C33   C34   A    
C19   H8    S    
C43   C44   A    
C13   C14   A    
C45   C46   A    
C33   C37   S    
C13   C20   S    
C36   H23   S    
C4    C12   S    
C29   C36   S    
C41   C42   A    
C16   C17   A    
C34   C35   S    
C7    C39   S    
O11   C38   A    
C9    C10   S    
C42   C43   A    
O9    C4    A    
C37   O16   A    
C46   H28   S    
O16   V4    S    
