data_mof_unit_51651.cif
_audit_creation_date              2012-12-11T16:33:20-0500
_audit_creation_method            fapswitch 2.2
_symmetry_space_group_name_H-M    P1
_symmetry_Int_Tables_number       1
_space_group_crystal_system       triclinic
_cell_length_a                    6.952334
_cell_length_b                    18.411102
_cell_length_c                    20.112023
_cell_angle_alpha                 68.305887
_cell_angle_beta                  90.199477
_cell_angle_gamma                 90.944636
_cell_volume                      2391.6678395

loop_
_atom_site_label
_atom_site_type_symbol
_atom_type_description
_atom_site_fract_x
_atom_site_fract_y
_atom_site_fract_z
_atom_type_partial_charge
O1    O     O_R   0.488960 0.443750 0.941980 -0.513471
O2    O     O_R   0.823890 0.406510 0.087590 -0.555722
O3    O     O_R   0.999680 0.556250 0.058020 -0.541436
C1    C     C_R   0.652447 0.380801 0.112887 0.763911
O4    O     O_R   0.818360 0.434410 0.944340 -0.548456
O5    O     O_R   0.994110 0.584350 0.913750 -0.532650
C2    C     C_R   0.649783 0.421650 0.923029 0.795624
O6    O     O_R   0.494530 0.415650 0.086250 -0.538109
O7    O     O_3   0.662590 0.549160 0.990130 -0.384881
V1    V     V_3+5 0.935320 0.490880 0.001830 1.427810
O8    O     O_R   0.324180 0.593490 0.912410 -0.534740
C3    C     C_R   0.155481 0.617138 0.885292 0.913472
O9    O     O_R   0.329720 0.565590 0.055660 -0.540171
C4    C     C_R   0.162206 0.578037 0.077461 0.771289
V2    V     V_3+5 0.435990 0.509120 0.998170 1.472587
O10   O     O_3   0.158850 0.450840 0.009870 -0.384864
C5    C     C_3   0.061003 0.699896 0.318133 0.376389
C6    C     C_3   0.250839 0.682560 0.286057 -0.354490
H1    H     H_    0.349670 0.633260 0.311362 0.150735
C7    C     C_1   0.156498 0.621443 0.124746 -0.154352
C8    C     C_1   0.109179 0.873710 0.379015 -0.149487
C9    C     C_3   0.957298 0.718082 0.245945 0.222902
C10   C     C_3   0.144444 0.701759 0.212965 -0.058880
C11   C     C_3   0.015512 0.804803 0.223134 0.197918
C12   C     C_3   0.118427 0.787376 0.295765 -0.041459
C13   C     C_3   0.202521 0.789043 0.190303 0.365160
C14   C     C_3   0.304912 0.770589 0.262676 0.230551
C15   C     C_1   0.151906 0.657270 0.164758 0.127929
C16   C     C_1   0.112374 0.834746 0.341625 0.145696
C17   C     C_R   0.135738 0.777231 0.879636 0.336381
C18   C     C_R   0.187310 0.850459 0.880214 0.226988
C19   C     C_R   0.206581 0.914316 0.815309 0.242825
C20   C     C_R   0.179839 0.904268 0.749619 0.203778
C21   C     C_R   0.146429 0.827538 0.748534 -0.076034
C22   C     C_R   0.140836 0.762379 0.814949 -0.176445
C23   C     C_R   0.117374 0.814280 0.683394 -0.068557
C24   C     C_R   0.110609 0.736188 0.684295 -0.161420
C25   C     C_R   0.140865 0.671503 0.749770 -0.080961
C26   C     C_R   0.144589 0.684579 0.815645 -0.078243
C27   C     C_R   0.080123 0.720544 0.620648 0.269215
C28   C     C_R   0.128669 0.648178 0.617939 0.309078
C29   C     C_R   0.167221 0.584860 0.681257 0.180336
C30   C     C_R   0.163176 0.595087 0.747426 0.245755
C31   C     C_R   0.624990 0.093078 0.250028 0.254473
C32   C     C_R   0.617818 0.081776 0.184276 0.180595
C33   C     C_R   0.575522 0.144949 0.121062 0.305222
C34   C     C_R   0.557784 0.220004 0.122205 0.313846
C35   C     C_R   0.604714 0.235259 0.184748 -0.160486
C36   C     C_R   0.619340 0.170577 0.251189 -0.087993
C37   C     C_R   0.633838 0.313003 0.182336 -0.086740
C38   C     C_R   0.648236 0.326926 0.246778 0.019156
C39   C     C_R   0.653689 0.263475 0.314088 -0.110146
C40   C     C_R   0.630100 0.185096 0.316463 -0.110132
C41   C     C_R   0.653785 0.404540 0.244839 -0.210191
C42   C     C_R   0.664454 0.420211 0.306984 -0.290111
C43   C     C_R   0.682186 0.359263 0.373144 0.339153
C44   C     C_R   0.687949 0.281492 0.376668 0.384380
H2    H     H_    0.645167 0.454556 0.195177 0.133668
H3    H     H_    0.663541 0.480442 0.303231 0.140494
O11   O     O_R   0.770540 0.084530 0.414050 -0.519836
O12   O     O_R   0.445710 0.065660 0.555720 -0.533389
O13   O     O_R   0.270420 0.915650 0.586190 -0.533318
C45   C     C_R   0.614103 0.078358 0.577461 0.777969
O14   O     O_R   0.441140 0.093540 0.412470 -0.550926
O15   O     O_R   0.265820 0.943740 0.441930 -0.542762
C46   C     C_R   0.612224 0.118533 0.386531 0.887312
O16   O     O_R   0.775150 0.056440 0.558310 -0.537426
O17   O     O_3   0.602370 0.950960 0.510050 -0.382672
V3    V     V_3+5 0.329450 0.009140 0.498150 1.473545
O18   O     O_R   0.935790 0.934280 0.444060 -0.521782
C47   C     C_R   0.103612 0.920457 0.423512 0.777528
O19   O     O_R   0.940370 0.906390 0.587310 -0.536512
C48   C     C_R   0.108787 0.881978 0.613903 0.894150
V4    V     V_3+5 0.828810 0.990710 0.501460 1.500871
O20   O     O_3   0.105780 0.049100 0.489960 -0.385584
C49   C     C_3   0.690515 0.324708 0.708649 -0.321991
C50   C     C_3   0.505589 0.282054 0.696570 0.372316
H4    H     H_    0.746393 0.383537 0.674670 0.169426
C51   C     C_1   0.619397 0.122225 0.624325 -0.160116
C52   C     C_1   0.644205 0.378280 0.876127 -0.166846
C53   C     C_3   0.797972 0.247021 0.723087 0.295365
C54   C     C_3   0.614477 0.205446 0.710077 -0.182067
C55   C     C_3   0.753317 0.219506 0.803919 0.304626
C56   C     C_3   0.643131 0.295696 0.790299 -0.174151
C57   C     C_3   0.569566 0.178453 0.791016 0.299436
C58   C     C_3   0.458502 0.254974 0.777072 0.415059
C59   C     C_1   0.616732 0.158998 0.663519 0.050153
C60   C     C_1   0.645586 0.341868 0.836812 0.022126
O21   O     O_3   0.249917 0.987564 0.815702 -0.550452
C61   C     C_3   0.077222 0.023544 0.821313 -0.207829
H5    H     H_    0.111913 0.080704 0.825318 0.248539
H6    H     H_    0.996762 0.987805 0.870507 0.119376
H7    H     H_    0.986852 0.034723 0.772917 0.114411
O22   O     O_3   0.187597 0.968971 0.686441 -0.648532
H8    H     H_    0.237760 0.015715 0.694330 0.327518
O23   O     O_3   0.003416 0.775495 0.559681 -0.560858
C62   C     C_3   0.804552 0.758983 0.558102 -0.135765
H9    H     H_    0.728917 0.763153 0.605252 0.102964
H10   H     H_    0.777473 0.700525 0.555131 0.148508
H11   H     H_    0.741152 0.802760 0.509408 0.160801
O24   O     O_3   0.123745 0.638160 0.553052 -0.535439
C63   C     C_3   0.298831 0.666967 0.516888 -0.147138
H12   H     H_    0.299670 0.655955 0.466292 0.186853
H13   H     H_    0.424306 0.636289 0.549051 0.096689
H14   H     H_    0.314797 0.731200 0.502653 0.141913
O25   O     O_3   0.190157 0.531119 0.809868 -0.646969
H15   H     H_    0.157681 0.482297 0.802237 0.310299
O26   O     O_3   0.700548 0.373739 0.435510 -0.655890
H16   H     H_    0.692612 0.430800 0.424198 0.264398
O27   O     O_3   0.650553 0.029345 0.312893 -0.639151
H17   H     H_    0.626888 0.979775 0.305378 0.345819
O28   O     O_3   0.650817 0.007965 0.183964 -0.623636
H18   H     H_    0.656242 0.009754 0.134219 0.331165
O29   O     O_3   0.568780 0.135186 0.056125 -0.562299
C64   C     C_3   0.381246 0.113008 0.043170 -0.259773
H19   H     H_    0.299781 0.078089 0.092669 0.117519
H20   H     H_    0.392610 0.076883 0.009872 0.164828
H21   H     H_    0.299459 0.165508 0.011025 0.187797
O30   O     O_3   0.480897 0.276704 0.062483 -0.551204
C65   C     C_3   0.279636 0.277486 0.072911 -0.130567
H22   H     H_    0.245364 0.307976 0.109723 0.141714
H23   H     H_    0.212161 0.218040 0.094841 0.075565
H24   H     H_    0.211212 0.308894 0.020437 0.159053
O31   O     O_3   0.978333 0.657237 0.385612 -0.531444
C66   C     C_3   0.981971 0.576737 0.398355 -0.189635
H25   H     H_    0.131439 0.554814 0.408126 0.130777
H26   H     H_    0.915839 0.563081 0.353767 0.122626
H27   H     H_    0.897148 0.544952 0.447442 0.166566
O32   O     O_3   0.734285 0.224191 0.441528 -0.573383
C67   C     C_3   0.936219 0.225781 0.450063 -0.148461
H28   H     H_    0.990765 0.283629 0.448256 0.147208
H29   H     H_    0.011221 0.209442 0.408931 0.115462
H30   H     H_    0.974625 0.182862 0.503444 0.171667
O33   O     O_3   0.363072 0.312731 0.643967 -0.530337
C68   C     C_3   0.450868 0.348668 0.576538 -0.132049
H31   H     H_    0.529346 0.403023 0.573119 0.122491
H32   H     H_    0.336947 0.365410 0.535093 0.156777
H33   H     H_    0.548671 0.308240 0.564054 0.186076
O34   O     O_3   0.276886 0.253966 0.808678 -0.515050
C69   C     C_3   0.200503 0.329831 0.784079 -0.030827
H34   H     H_    0.149095 0.347359 0.728241 0.213208
H35   H     H_    0.304045 0.374374 0.787903 0.115491
H36   H     H_    0.075312 0.329992 0.817967 0.142725
O35   O     O_3   0.484291 0.107471 0.836360 -0.520097
C70   C     C_3   0.616622 0.046791 0.851163 -0.151482
H37   H     H_    0.547540 0.991608 0.886909 0.173310
H38   H     H_    0.741192 0.056482 0.881238 0.127570
H39   H     H_    0.660659 0.038510 0.801457 0.130281
O36   O     O_3   0.900314 0.186176 0.853974 -0.545037
C71   C     C_3   0.839481 0.177605 0.923139 -0.144786
H40   H     H_    0.685025 0.160449 0.932689 0.189867
H41   H     H_    0.869038 0.232260 0.932831 0.149099
H42   H     H_    0.924186 0.130665 0.962637 0.146108
O37   O     O_3   0.977883 0.243083 0.693930 -0.589141
H43   H     H_    0.009902 0.186897 0.712125 0.312398
O38   O     O_3   0.485026 0.799710 0.272700 -0.617347
H44   H     H_    0.557574 0.808272 0.228177 0.354438
O39   O     O_3   0.283928 0.830435 0.122382 -0.528095
C72   C     C_3   0.295696 0.910678 0.110207 -0.185709
H45   H     H_    0.344676 0.922593 0.157991 0.164748
H46   H     H_    0.155006 0.938509 0.091502 0.155836
H47   H     H_    0.402530 0.938118 0.067043 0.147179
O40   O     O_3   0.894311 0.867935 0.191073 -0.618750
H48   H     H_    0.847409 0.862022 0.146715 0.308057
O41   O     O_3   0.776495 0.689543 0.235570 -0.639899
H49   H     H_    0.705622 0.677520 0.281114 0.319317
O42   O     O_3   0.209730 0.511925 0.680654 -0.664362
H50   H     H_    0.205908 0.512688 0.631207 0.330615
O43   O     O_3   0.075323 0.720909 0.943537 -0.552077
C73   C     C_3   0.877382 0.731912 0.951925 -0.118896
H51   H     H_    0.790716 0.721926 0.909337 0.107848
H52   H     H_    0.849091 0.791045 0.952464 0.138484
H53   H     H_    0.827642 0.689025 0.004160 0.166461
O44   O     O_3   0.209200 0.857490 0.945994 -0.606891
H54   H     H_    0.260961 0.910065 0.939460 0.323642

loop_
_geom_bond_atom_site_label_1
_geom_bond_atom_site_label_2
_ccdc_geom_bond_type
C31   C36   A    
C68   H33   S    
C42   C43   A    
O41   H49   S    
C42   H3    S    
C28   C29   A    
C41   C42   A    
C22   C26   A    
O40   H48   S    
C69   H36   S    
C1    O6    A    
C20   O22   S    
C49   C56   S    
C51   C59   T    
C62   H9    S    
C32   O28   S    
C68   H31   S    
C45   C51   S    
C57   C58   S    
C65   H22   S    
C13   C14   S    
O24   C63   S    
C17   C22   A    
C8    C47   S    
C55   C56   S    
O25   H15   S    
C49   H4    S    
C44   O32   S    
O38   H44   S    
C69   H35   S    
C6    H1    S    
C24   C27   A    
O5    C3    A    
C17   C18   A    
C36   C40   A    
C73   H51   S    
O17   V4    S    
C54   C59   S    
O26   H16   S    
C63   H14   S    
C21   C22   A    
O43   C73   S    
C10   C13   S    
O11   V4    S    
O12   C45   A    
O44   H54   S    
C43   O26   S    
C70   H38   S    
O27   H17   S    
C9    O41   S    
O8    V2    S    
C34   C35   A    
C28   O24   S    
O17   V3    S    
C64   H20   S    
C71   H42   S    
O18   V4    S    
C66   H27   S    
C72   H46   S    
O13   C48   A    
C13   O39   S    
O18   C47   A    
O1    V2    S    
O7    V1    S    
C43   C44   A    
C65   H24   S    
C35   C37   A    
C11   C12   S    
O11   C46   A    
O9    C4    A    
O22   H8    S    
C27   O23   S    
C57   O35   S    
O28   H18   S    
C53   C55   S    
C65   H23   S    
C70   H37   S    
C12   C16   S    
O34   C69   S    
C45   O16   A    
V4    O20   S    
C33   O29   S    
C38   C39   A    
C4    C7    S    
C69   H34   S    
O19   V4    S    
C62   H10   S    
O42   H50   S    
O4    C2    A    
O19   C48   A    
C7    C15   T    
C37   C38   A    
O15   C47   A    
C8    C16   T    
C53   C54   S    
C53   O37   S    
C6    C10   S    
O13   V3    S    
C1    C37   S    
C30   O25   S    
O14   C46   A    
O39   C72   S    
C67   H29   S    
C17   O43   S    
C24   C25   A    
C5    O31   S    
C61   H6    S    
C72   H45   S    
O30   C65   S    
C64   H21   S    
O23   C62   S    
C5    C6    S    
C72   H47   S    
O16   V4    S    
O14   V3    S    
C49   C50   S    
C63   H13   S    
C40   C46   S    
O37   H43   S    
O3    C4    A    
C58   O34   S    
C27   C28   A    
C55   C57   S    
C50   C58   S    
O6    V2    S    
O9    V2    S    
C19   O21   S    
C66   H25   S    
C71   H41   S    
C67   H30   S    
C10   C15   S    
C50   O33   S    
O2    V1    S    
C70   H39   S    
C2    C52   S    
C31   C32   A    
C61   H7    S    
O32   C67   S    
C41   H2    S    
O12   V3    S    
C14   O38   S    
C68   H32   S    
C33   C34   A    
C35   C36   A    
C62   H11   S    
O1    C2    A    
C18   C19   A    
C6    C14   S    
C56   C60   S    
C11   C13   S    
O35   C70   S    
C49   C53   S    
O5    V1    S    
O8    C3    A    
O29   C64   S    
O33   C68   S    
C12   C14   S    
C54   C57   S    
C5    C9    S    
C71   H40   S    
C38   C41   A    
C5    C12   S    
C19   C20   A    
C3    C26   S    
C67   H28   S    
O7    V2    S    
O4    V1    S    
C52   C60   T    
O3    V1    S    
V1    O10   S    
O36   C71   S    
C61   H5    S    
C25   C26   A    
C73   H52   S    
C50   C54   S    
O15   V3    S    
O2    C1    A    
C34   O30   S    
C21   C23   A    
C20   C21   A    
V3    O20   S    
C9    C11   S    
C63   H12   S    
C39   C44   A    
C11   O40   S    
C32   C33   A    
C29   O42   S    
C25   C30   A    
C23   C24   A    
C29   C30   A    
C66   H26   S    
C9    C10   S    
C56   C58   S    
C64   H19   S    
O21   C61   S    
C23   C48   S    
C18   O44   S    
V2    O10   S    
C39   C40   A    
O31   C66   S    
C55   O36   S    
C73   H53   S    
C31   O27   S    
