data_mof_unit_38695.cif
_audit_creation_date              2012-12-10T18:23:59-0500
_audit_creation_method            fapswitch 2.2
_symmetry_space_group_name_H-M    P1
_symmetry_Int_Tables_number       1
_space_group_crystal_system       triclinic
_cell_length_a                    15.715573
_cell_length_b                    14.922006
_cell_length_c                    14.027858
_cell_angle_alpha                 89.349889
_cell_angle_beta                  89.910575
_cell_angle_gamma                 89.54362
_cell_volume                      3289.32349731

loop_
_atom_site_label
_atom_site_type_symbol
_atom_type_description
_atom_site_fract_x
_atom_site_fract_y
_atom_site_fract_z
_atom_type_partial_charge
C1    C     C_R   0.500874 0.327010 0.500575 0.938927
C2    C     C_R   0.497949 0.046886 0.506267 0.017487
C3    C     C_R   0.419677 0.908801 0.483661 0.019120
C4    C     C_R   0.574197 0.091425 0.529564 0.018496
C5    C     C_R   0.645909 0.948687 0.551763 -0.217245
C6    C     C_R   0.347192 0.051655 0.465016 -0.212731
C7    C     C_R   0.647236 0.041609 0.554024 -0.191565
C8    C     C_R   0.344990 0.958693 0.466479 -0.199701
C9    C     C_R   0.448424 0.558632 0.797334 -0.037621
C10   C     C_R   0.552471 0.442163 0.202587 -0.028259
C11   C     C_R   0.551944 0.441899 0.798742 -0.016425
C12   C     C_R   0.497253 0.673052 0.499613 0.953146
C13   C     C_R   0.447495 0.557202 0.200895 -0.023738
C14   C     C_R   0.553539 0.440948 0.899256 -0.022244
C15   C     C_R   0.447253 0.559546 0.100426 -0.025304
C16   C     C_R   0.337767 0.500188 0.500058 0.925756
C17   C     C_R   0.662265 0.500617 0.499923 0.911781
C18   C     C_R   0.500949 0.501118 0.949278 0.020286
C19   C     C_R   0.501022 0.500630 0.050438 0.016324
C20   C     C_R   0.447882 0.561291 0.898105 -0.094503
C21   C     C_R   0.554220 0.440708 0.101699 -0.075671
C22   C     C_R   0.606179 0.381201 0.950472 -0.304720
C23   C     C_R   0.495575 0.768444 0.499316 -0.156567
C24   C     C_R   0.394622 0.619383 0.049276 -0.301362
C25   C     C_R   0.607811 0.381532 0.050956 0.469696
C26   C     C_R   0.395927 0.622227 0.948962 0.498954
C27   C     C_3   0.972089 0.439587 0.555078 -0.168932
C28   C     C_3   0.028191 0.574726 0.443975 -0.169442
C29   C     C_3   0.028617 0.428623 0.465614 -0.163369
C30   C     C_3   0.971457 0.585732 0.533470 -0.166391
C31   C     C_1   0.248821 0.502211 0.500235 -0.178614
C32   C     C_1   0.751223 0.503676 0.499614 -0.192920
C33   C     C_3   0.027838 0.517795 0.589250 -0.155719
C34   C     C_R   0.501290 0.231818 0.502150 -0.152806
C35   C     C_3   0.972316 0.496477 0.409836 -0.155040
C36   C     C_3   0.082640 0.506763 0.499790 0.211184
C37   C     C_3   0.917474 0.507434 0.499312 0.214272
C38   C     C_1   0.173500 0.504527 0.500147 -0.087227
C39   C     C_1   0.826546 0.506113 0.499367 -0.089844
C40   C     C_R   0.419710 0.815159 0.479667 0.382263
C41   C     C_R   0.575651 0.185030 0.527082 0.394113
C42   C     C_3   0.741522 0.353819 0.104609 0.054334
C43   C     C_3   0.796632 0.287875 0.161690 -0.310895
C44   C     C_3   0.887304 0.322174 0.172463 -0.982568
C45   C     C_R   0.570234 0.812022 0.523287 -0.341756
C46   C     C_3   0.387205 0.758583 0.872725 0.069899
C47   C     C_3   0.379301 0.831851 0.947916 -0.363146
C48   C     C_3   0.419938 0.918964 0.913461 -0.926307
C49   C     C_3   0.327736 0.760659 0.369234 0.054468
C50   C     C_3   0.236118 0.729480 0.356475 -0.320697
C51   C     C_3   0.216066 0.710706 0.252263 -0.976896
C52   C     C_3   0.700752 0.243942 0.473280 0.047945
C53   C     C_3   0.792050 0.256810 0.507467 -0.317592
C54   C     C_3   0.853048 0.270341 0.424074 -0.984380
C55   C     C_R   0.425977 0.188426 0.480471 -0.333403
C56   C     C_R   0.571239 0.904523 0.526771 0.137744
C57   C     C_R   0.423343 0.095834 0.483565 0.138661
C58   C     C_R   0.496283 0.953380 0.505442 0.019272
H1    H     H_    0.054479 0.364594 0.437759 0.132498
H2    H     H_    0.369310 0.227149 0.462603 0.155572
H3    H     H_    0.703308 0.911336 0.569374 0.144434
H4    H     H_    0.289357 0.089022 0.449374 0.144996
H5    H     H_    0.705860 0.074063 0.573747 0.176655
H6    H     H_    0.284931 0.926350 0.452585 0.177275
H7    H     H_    0.407927 0.603278 0.756014 0.167152
H8    H     H_    0.592944 0.397349 0.243802 0.162913
H9    H     H_    0.592074 0.396252 0.759035 0.147399
H10   H     H_    0.405735 0.600893 0.240113 0.115445
H11   H     H_    0.741631 0.419748 0.141366 0.134594
H12   H     H_    0.945869 0.649941 0.561163 0.134105
H13   H     H_    0.769506 0.361838 0.031964 0.144023
H14   H     H_    0.768021 0.277722 0.233437 0.222524
H15   H     H_    0.798396 0.222233 0.125021 0.229320
H16   H     H_    0.917387 0.331387 0.101353 0.268824
H17   H     H_    0.925671 0.272873 0.214251 0.271365
H18   H     H_    0.887063 0.387030 0.210501 0.260213
H19   H     H_    0.358030 0.783674 0.805331 0.179890
H20   H     H_    0.455688 0.745175 0.856292 0.121281
H21   H     H_    0.310963 0.844457 0.963834 0.235780
H22   H     H_    0.411343 0.809482 0.014678 0.211757
H23   H     H_    0.646284 0.333998 0.912700 0.161400
H24   H     H_    0.488653 0.908120 0.898409 0.265741
H25   H     H_    0.413516 0.970543 0.969508 0.266598
H26   H     H_    0.387845 0.944037 0.847766 0.267921
H27   H     H_    0.371775 0.710515 0.338514 0.162553
H28   H     H_    0.335596 0.825211 0.329453 0.128595
H29   H     H_    0.225747 0.667454 0.399139 0.237020
H30   H     H_    0.191819 0.782076 0.382974 0.215021
H31   H     H_    0.228469 0.770948 0.207223 0.264145
H32   H     H_    0.147971 0.692598 0.245354 0.266228
H33   H     H_    0.255422 0.653752 0.226627 0.263613
H34   H     H_    0.352856 0.664904 0.087047 0.156307
H35   H     H_    0.679412 0.304861 0.433323 0.152693
H36   H     H_    0.700272 0.185730 0.423868 0.134124
H37   H     H_    0.794871 0.315746 0.554994 0.229795
H38   H     H_    0.812709 0.196701 0.549090 0.215686
H39   H     H_    0.849701 0.212898 0.374611 0.265510
H40   H     H_    0.919086 0.274435 0.451218 0.265850
H41   H     H_    0.837225 0.333441 0.385074 0.278782
H42   H     H_    0.947113 0.384365 0.600555 0.135804
H43   H     H_    0.053379 0.629926 0.398621 0.135505
H44   H     H_    0.947435 0.487858 0.336554 0.129850
H45   H     H_    0.052749 0.526496 0.662551 0.141805
H46   H     H_    0.627394 0.773446 0.539470 0.155409
N1    N     N_R   0.500040 0.500070 0.750030 -0.115010
N2    N     N_R   0.499960 0.499930 0.249970 -0.111602
O1    O     O_R   0.500020 0.367860 0.580280 -0.599913
O2    O     O_3   0.341838 0.681231 0.901657 -0.649145
O3    O     O_3   0.344391 0.769059 0.467612 -0.656457
O4    O     O_3   0.647887 0.230940 0.553830 -0.653500
O5    O     O_R   0.499980 0.632140 0.419720 -0.637833
O6    O     O_R   0.500020 0.367840 0.419730 -0.636436
O7    O     O_R   0.499980 0.632160 0.580270 -0.623906
O8    O     O_R   0.376770 0.500000 0.580260 -0.613849
O9    O     O_R   0.623230 0.500000 0.419740 -0.629414
O10   O     O_R   0.376780 0.499980 0.419710 -0.620565
O11   O     O_R   0.623220 0.500020 0.580290 -0.613148
O12   O     O_3   0.658144 0.319837 0.099248 -0.649251
Zn1   Zn    Zn3+2 0.499990 0.500020 0.607200 0.966432
Zn2   Zn    Zn3+2 0.500010 0.499980 0.392800 0.941102

loop_
_geom_bond_atom_site_label_1
_geom_bond_atom_site_label_2
_ccdc_geom_bond_type
C43   H15   S    
C43   H14   S    
C23   C45   A    
C27   C29   S    
C14   C18   A    
C5    C56   A    
C47   H21   S    
C35   H44   S    
C25   O12   S    
C2    C57   A    
O6    Zn2   S    
C53   C54   S    
C27   C33   S    
C16   C31   S    
C15   C19   A    
C29   C36   S    
C49   O3    S    
C35   C37   S    
C24   C26   A    
O11   Zn1   S    
C51   H32   S    
C11   C14   A    
C53   H37   S    
C4    C41   A    
C9    N1    A    
C23   C40   A    
C24   H34   S    
C33   C36   S    
C18   C19   A    
C32   C39   T    
C44   H18   S    
C51   H33   S    
O7    Zn1   S    
C28   H43   S    
C29   H1    S    
C28   C35   S    
C48   H24   S    
C22   C25   A    
C46   O2    S    
C11   N1    A    
C54   H39   S    
C52   H36   S    
O8    Zn1   S    
C17   O11   A    
C34   C55   A    
C55   H2    S    
C53   H38   S    
C6    C57   A    
C34   C41   A    
C47   H22   S    
C4    C7    A    
C16   O10   A    
O1    Zn1   S    
C30   H12   S    
C11   H9    S    
C1    C34   S    
C10   H8    S    
C10   C21   A    
C27   H42   S    
C22   H23   S    
C49   H27   S    
C45   C56   A    
C3    C8    A    
C26   O2    S    
C46   H20   S    
C42   O12   S    
C6    C8    A    
C42   H11   S    
C48   H26   S    
C30   C37   S    
O5    Zn2   S    
C44   H17   S    
C2    C4    A    
C43   C44   S    
C45   H46   S    
C9    C20   A    
C47   C48   S    
C12   C23   S    
C52   O4    S    
C50   C51   S    
C5    H3    S    
C52   H35   S    
C44   H16   S    
C7    H5    S    
C50   H29   S    
C8    H6    S    
C15   C24   A    
C1    O1    A    
C3    C40   A    
O9    Zn2   S    
C41   O4    S    
C55   C57   A    
C54   H41   S    
C10   N2    A    
C42   C43   S    
C52   C53   S    
C17   O9    A    
C5    C7    A    
C12   O7    A    
C21   C25   A    
C46   C47   S    
C30   C33   S    
N2    Zn2   S    
C33   H45   S    
C49   H28   S    
N1    Zn1   S    
C13   N2    A    
C16   O8    A    
C46   H19   S    
C2    C58   A    
C40   O3    S    
C50   H30   S    
C29   C35   S    
C31   C38   T    
C6    H4    S    
C13   C15   A    
C28   C30   S    
C1    O6    A    
C51   H31   S    
C14   C22   A    
C20   C26   A    
C27   C37   S    
C36   C38   S    
C42   H13   S    
C56   C58   A    
C18   C20   A    
C9    H7    S    
C3    C58   A    
O10   Zn2   S    
C28   C36   S    
C37   C39   S    
C49   C50   S    
C17   C32   S    
C48   H25   S    
C54   H40   S    
C12   O5    A    
C19   C21   A    
C13   H10   S    
