data_mof_unit_39773.cif
_audit_creation_date              2012-12-10T19:16:19-0500
_audit_creation_method            fapswitch 2.2
_symmetry_space_group_name_H-M    P1
_symmetry_Int_Tables_number       1
_space_group_crystal_system       triclinic
_cell_length_a                    10.623411
_cell_length_b                    9.728436
_cell_length_c                    27.634355
_cell_angle_alpha                 89.882647
_cell_angle_beta                  90.744082
_cell_angle_gamma                 89.753208
_cell_volume                      2855.71411606

loop_
_atom_site_label
_atom_site_type_symbol
_atom_type_description
_atom_site_fract_x
_atom_site_fract_y
_atom_site_fract_z
_atom_type_partial_charge
C1    C     C_R   0.257714 0.499867 0.501221 0.834903
C2    C     C_R   0.517865 0.632683 0.278370 -0.118419
C3    C     C_R   0.499148 0.512128 0.252056 0.334294
C4    C     C_R   0.481819 0.548870 0.101199 -0.089431
C5    C     C_R   0.370997 0.567801 0.128296 -0.095044
C6    C     C_R   0.256747 0.602665 0.104001 0.249465
C7    C     C_R   0.596222 0.513865 0.124714 0.000306
C8    C     C_R   0.504267 0.502668 0.352882 -0.045766
C9    C     C_R   0.491495 0.504030 0.646531 -0.129947
C10   C     C_R   0.358378 0.565809 0.974942 0.034095
C11   C     C_R   0.588943 0.585221 0.973928 -0.007158
C12   C     C_R   0.501591 0.500325 0.405852 0.875218
C13   C     C_R   0.471972 0.572900 0.949000 0.057916
C14   C     C_R   0.245249 0.541677 0.949342 -0.237612
C15   C     C_R   0.242564 0.525237 0.899280 0.248516
C16   C     C_R   0.355423 0.536900 0.872789 -0.089983
C17   C     C_R   0.469090 0.566632 0.897982 -0.086355
C18   C     C_R   0.580861 0.588706 0.872295 -0.057157
C19   C     C_R   0.578446 0.580195 0.821966 0.555074
C20   C     C_R   0.360990 0.518746 0.822244 0.578903
C21   C     C_R   0.409023 0.622108 0.716633 0.238574
C22   C     C_R   0.416944 0.607954 0.666805 -0.284527
C23   C     C_R   0.742400 0.499502 0.501396 0.846939
C24   C     C_R   0.558812 0.412592 0.676860 0.133242
C25   C     C_R   0.546702 0.423684 0.726803 -0.123626
C26   C     C_R   0.473033 0.528339 0.746837 0.201277
C27   C     C_R   0.362182 0.578454 0.025948 0.016869
C28   C     C_R   0.478648 0.562948 0.050385 0.078261
C29   C     C_R   0.592015 0.557539 0.024077 0.073127
C30   C     C_R   0.253624 0.604535 0.053170 -0.243025
C31   C     C_R   0.704563 0.491352 0.097592 -0.149972
C32   C     C_R   0.696771 0.623733 0.947392 0.128903
C33   C     C_R   0.691854 0.622997 0.897120 -0.114488
C34   C     C_R   0.500787 0.500205 0.593983 0.917850
C35   C     C_R   0.702362 0.512543 0.047949 -0.176933
C36   C     C_3   0.073391 0.591998 0.543609 -0.397980
C37   C     C_3   0.072232 0.350381 0.510875 -0.396848
C38   C     C_3   0.928745 0.591799 0.543609 -0.381597
C39   C     C_3   0.929180 0.349999 0.510705 -0.392077
C40   C     C_3   0.069628 0.552906 0.453153 -0.401068
C41   C     C_3   0.121197 0.498782 0.502232 0.172371
C42   C     C_3   0.878626 0.498292 0.502263 0.170038
C43   C     C_3   0.925541 0.551841 0.452995 -0.401834
C44   C     C_3   0.388844 0.082733 0.471465 0.154630
C45   C     C_3   0.388645 0.918614 0.471584 0.146681
C46   C     C_3   0.616471 0.080579 0.477609 -0.276639
C47   C     C_3   0.616994 0.918787 0.478000 -0.278560
C48   C     C_3   0.492654 0.080627 0.548741 -0.300849
C49   C     C_3   0.492289 0.918429 0.548790 -0.308859
C50   C     C_R   0.379256 0.550332 0.178961 0.510996
C51   C     C_R   0.599136 0.499631 0.174922 0.504901
C52   C     C_R   0.486123 0.386105 0.275750 -0.100527
C53   C     C_R   0.489199 0.381270 0.326080 -0.231272
C54   C     C_R   0.521073 0.627997 0.328534 -0.213909
H1    H     H_    0.537009 0.722441 0.348071 0.147221
H2    H     H_    0.472604 0.292603 0.255171 0.133601
H3    H     H_    0.791239 0.456199 0.114602 0.188409
H4    H     H_    0.775444 0.651289 0.877477 0.226797
H5    H     H_    0.598796 0.354296 0.750406 0.185275
H6    H     H_    0.786035 0.486159 0.028176 0.177202
H7    H     H_    0.107167 0.699286 0.538777 0.173481
H8    H     H_    0.105138 0.279809 0.482083 0.175448
H9    H     H_    0.110262 0.554336 0.579151 0.174656
H10   H     H_    0.108431 0.309973 0.546164 0.180246
H11   H     H_    0.894747 0.554151 0.579179 0.186438
H12   H     H_    0.895302 0.308937 0.545846 0.195299
H13   H     H_    0.529276 0.729950 0.259838 0.129526
H14   H     H_    0.893727 0.699041 0.538758 0.174674
H15   H     H_    0.894996 0.280067 0.481527 0.169858
H16   H     H_    0.101987 0.659652 0.447219 0.179140
H17   H     H_    0.104812 0.488909 0.422838 0.159603
H18   H     H_    0.889437 0.657771 0.445955 0.169846
H19   H     H_    0.890263 0.484948 0.423152 0.166722
H20   H     H_    0.302529 0.116452 0.490775 0.102978
H21   H     H_    0.302713 0.885672 0.491157 0.100689
H22   H     H_    0.629317 0.119705 0.440258 0.146797
H23   H     H_    0.632410 0.878383 0.441053 0.140176
H24   H     H_    0.574208 0.116854 0.570545 0.210910
H25   H     H_    0.572904 0.879763 0.571122 0.194014
H26   H     H_    0.406983 0.119876 0.566976 0.165044
H27   H     H_    0.405840 0.880612 0.566718 0.155523
H28   H     H_    0.699906 0.117495 0.498456 0.165655
H29   H     H_    0.699880 0.882459 0.499554 0.164026
H30   H     H_    0.366476 0.680375 0.643778 0.172324
H31   H     H_    0.157496 0.528046 0.967982 0.173337
H32   H     H_    0.167276 0.634086 0.035019 0.176979
H33   H     H_    0.478835 0.283200 0.343783 0.159477
N1    N     N_R   0.492064 0.518987 0.200649 -0.358453
N2    N     N_R   0.470385 0.543459 0.798243 -0.350722
N3    N     N_3   0.499750 0.138610 0.498940 -0.065257
N4    N     N_3   0.499750 0.861390 0.498940 -0.065727
O1    O     O_R   0.314910 0.616040 0.499990 -0.619156
O2    O     O_R   0.314910 0.383960 0.499990 -0.628854
O3    O     O_R   0.500140 0.616020 0.428740 -0.603067
O4    O     O_R   0.500140 0.383980 0.428740 -0.597802
O5    O     O_R   0.685320 0.616040 0.499970 -0.636751
O6    O     O_R   0.685320 0.383960 0.499970 -0.629618
O7    O     O_R   0.500090 0.616050 0.571230 -0.630112
O8    O     O_R   0.500090 0.383950 0.571230 -0.604436
O9    O     O_2   0.276120 0.562472 0.206626 -0.540874
O10   O     O_2   0.259805 0.475076 0.796903 -0.489392
O11   O     O_2   0.708119 0.467778 0.198089 -0.558417
O12   O     O_2   0.683509 0.607345 0.796724 -0.518263
Zn1   Zn    Zn3+2 0.500150 0.654960 0.499980 0.925719
Zn2   Zn    Zn3+2 0.500150 0.345040 0.499980 0.934780
I1    I     I_    0.860234 0.719950 0.977519 -0.399921
I2    I     I_    0.694145 0.270103 0.651336 -0.377149
N5    N     N_2   0.383246 0.140172 0.422714 -0.252085
H34   H     H_    0.447540 0.106407 0.397823 0.202224
C55   C     C_3   0.262943 0.187167 0.403558 -0.780645
H35   H     H_    0.262573 0.181762 0.363419 0.228661
H36   H     H_    0.247709 0.295706 0.413940 0.252486
H37   H     H_    0.184490 0.123435 0.417157 0.218664
N6    N     N_2   0.381587 0.859719 0.423129 -0.249249
H38   H     H_    0.454813 0.878633 0.400146 0.205880
C56   C     C_3   0.260085 0.846079 0.399305 -0.776904
H39   H     H_    0.254556 0.915392 0.367399 0.241142
H40   H     H_    0.181336 0.871201 0.423816 0.211002
H41   H     H_    0.249473 0.738933 0.386239 0.249440
N7    N     N_2   0.148177 0.641624 0.130918 -0.250256
H42   H     H_    0.159301 0.730424 0.150819 0.253466
C57   C     C_3   0.023764 0.624214 0.109958 -0.724009
H43   H     H_    0.952939 0.630786 0.139047 0.262047
H44   H     H_    0.015501 0.521918 0.092415 0.241700
H45   H     H_    0.003396 0.707251 0.083347 0.246357
I3    I     I_    0.307376 0.792746 0.743940 -0.243579
I4    I     I_    0.058967 0.489190 0.869657 -0.176129

loop_
_geom_bond_atom_site_label_1
_geom_bond_atom_site_label_2
_ccdc_geom_bond_type
C10   C27   A    
C43   H19   S    
C21   C26   A    
C43   H18   S    
C40   H17   S    
C32   I1    S    
C54   H1    S    
N4    Zn1   S    
C46   H22   S    
N6    H38   S    
C23   O5    A    
C51   O11   S    
C33   H4    S    
C23   C42   S    
C40   H16   S    
C28   C29   A    
C38   C42   S    
C5    C6    A    
C9    C22   A    
C48   H24   S    
C15   C16   A    
N5    H34   S    
C18   C19   A    
C49   H27   S    
C55   H35   S    
O4    Zn2   S    
O2    Zn2   S    
C46   H28   S    
C19   O12   S    
C45   N6    S    
C40   C43   S    
N5    C55   S    
C16   C17   A    
C12   O4    A    
C47   H29   S    
C30   H32   S    
C36   H9    S    
C8    C12   S    
O6    Zn2   S    
O3    Zn1   S    
C15   I4    S    
C21   C22   A    
C27   C30   A    
C12   O3    A    
C36   C41   S    
C49   N4    S    
C4    C7    A    
C6    N7    S    
C4    C28   A    
N7    C57   S    
C17   C18   A    
C39   C42   S    
C44   N5    S    
O8    Zn2   S    
C7    C31   A    
C24   C25   A    
C14   H31   S    
C2    H13   S    
C2    C54   A    
C8    C54   A    
C20   O10   S    
C25   C26   A    
C49   H25   S    
C35   H6    S    
C26   N2    S    
C22   H30   S    
C8    C53   A    
C19   N2    A    
C38   H11   S    
C16   C20   A    
C34   O8    A    
C39   H15   S    
C53   H33   S    
C24   I2    S    
C52   C53   A    
C44   H20   S    
C55   H37   S    
C1    C41   S    
C48   C49   S    
C6    C30   A    
C38   H14   S    
C11   C32   A    
C1    O1    A    
O5    Zn1   S    
C10   C14   A    
C9    C34   S    
C39   H12   S    
C31   C35   A    
C5    C50   A    
C42   C43   S    
C47   H23   S    
C57   H44   S    
C36   H7    S    
C37   H10   S    
C44   N3    S    
N7    H42   S    
C46   C47   S    
C40   C41   S    
C23   O6    A    
C3    N1    S    
C47   N4    S    
C44   C45   S    
N3    Zn2   S    
C4    C5    A    
C10   C13   A    
C51   N1    A    
N6    C56   S    
C3    C52   A    
C9    C24   A    
C46   N3    S    
C50   N1    A    
C20   N2    A    
C29   C35   A    
C50   O9    S    
C56   H41   S    
C13   C17   A    
C45   H21   S    
C32   C33   A    
C48   H26   S    
C57   H45   S    
C36   C38   S    
C2    C3    A    
C57   H43   S    
C7    C51   A    
C37   C39   S    
C11   C13   A    
C31   H3    S    
O7    Zn1   S    
C34   O7    A    
C56   H40   S    
C56   H39   S    
C37   C41   S    
C45   N4    S    
C18   C33   A    
C55   H36   S    
O1    Zn1   S    
C11   C29   A    
C1    O2    A    
C27   C28   A    
C37   H8    S    
C14   C15   A    
C48   N3    S    
C25   H5    S    
C21   I3    S    
C52   H2    S    
