data_mof_unit_26326.cif
_audit_creation_date              2012-12-10T20:03:54-0500
_audit_creation_method            fapswitch 2.2
_symmetry_space_group_name_H-M    P1
_symmetry_Int_Tables_number       1
_space_group_crystal_system       triclinic
_cell_length_a                    19.261464
_cell_length_b                    18.479213
_cell_length_c                    10.609213
_cell_angle_alpha                 91.058448
_cell_angle_beta                  91.709607
_cell_angle_gamma                 90.064979
_cell_volume                      3773.87791806

loop_
_atom_site_label
_atom_site_type_symbol
_atom_type_description
_atom_site_fract_x
_atom_site_fract_y
_atom_site_fract_z
_atom_type_partial_charge
C1    C     C_R   0.365831 0.500082 0.507189 0.879765
C2    C     C_R   0.634329 0.500135 0.497862 0.929479
C3    C     C_R   0.709840 0.500433 0.501937 -0.175198
C4    C     C_R   0.291217 0.499144 0.527989 -0.173770
C5    C     C_R   0.964703 0.485568 0.432289 -0.281194
C6    C     C_R   0.036264 0.483288 0.435879 -0.108850
C7    C     C_R   0.072469 0.487739 0.551697 0.016017
C8    C     C_R   0.928979 0.495413 0.544053 0.001952
C9    C     C_R   0.037061 0.491397 0.665610 0.327228
C10   C     C_R   0.964794 0.498819 0.661596 0.462494
C11   C     C_R   0.558356 0.727934 0.540338 0.419681
C12   C     C_R   0.441730 0.727069 0.459486 0.419091
C13   C     C_R   0.561146 0.804111 0.529759 0.307823
C14   C     C_R   0.439032 0.803447 0.470322 0.304630
C15   C     C_R   0.500103 0.842687 0.500122 -0.285623
C16   C     C_R   0.523947 0.961053 0.396818 -0.205623
C17   C     C_R   0.475941 0.962932 0.604068 -0.199736
C18   C     C_R   0.524581 0.037459 0.395383 -0.069752
C19   C     C_R   0.474811 0.039307 0.605724 -0.069328
C20   C     C_R   0.499628 0.077772 0.500601 -0.091327
C21   C     C_R   0.498687 0.499214 0.261758 1.003040
C22   C     C_R   0.494273 0.500770 0.737346 0.985451
C23   C     C_R   0.500073 0.923542 0.500395 0.205625
C24   C     C_R   0.544981 0.198870 0.581421 -0.173962
C25   C     C_R   0.454215 0.197108 0.419710 -0.200487
C26   C     C_R   0.544346 0.274848 0.579642 0.051382
C27   C     C_R   0.455370 0.273132 0.420756 0.012313
C28   C     C_R   0.499522 0.159007 0.500677 0.225241
C29   C     C_2   0.451720 0.447285 0.928470 0.435065
C30   C     C_2   0.449501 0.452447 0.065586 0.425273
C31   C     C_2   0.475134 0.504498 0.866117 -0.521016
C32   C     C_2   0.494499 0.496952 0.128366 -0.520231
C33   C     C_R   0.742948 0.445981 0.570629 -0.321432
C34   C     C_R   0.255006 0.436181 0.491826 -0.341137
C35   C     C_R   0.814434 0.445236 0.585765 0.543782
C36   C     C_R   0.183785 0.431241 0.505325 0.472778
C37   C     C_R   0.853610 0.501136 0.535444 -0.046265
C38   C     C_R   0.147869 0.491620 0.550895 -0.010942
C39   C     C_R   0.821481 0.557028 0.465335 -0.170653
C40   C     C_R   0.183234 0.555092 0.592958 -0.117028
C41   C     C_R   0.748631 0.556054 0.446549 -0.119068
C42   C     C_R   0.256149 0.558115 0.585037 -0.150579
H1    H     H_    0.543151 0.930194 0.317313 0.184539
H2    H     H_    0.456825 0.933455 0.683334 0.191571
H3    H     H_    0.580665 0.171332 0.645037 0.132277
H4    H     H_    0.418384 0.168196 0.356289 0.133980
H5    H     H_    0.579363 0.305392 0.642021 0.130069
H6    H     H_    0.420460 0.302349 0.358340 0.154306
H7    H     H_    0.477878 0.557952 0.910416 0.127846
H8    H     H_    0.530486 0.532281 0.082425 0.135482
H9    H     H_    0.713186 0.404019 0.614579 0.175092
H10   H     H_    0.282031 0.390794 0.450487 0.171052
H11   H     H_    0.936990 0.481661 0.342001 0.171704
H12   H     H_    0.063659 0.479349 0.348256 0.175611
N1    N     N_R   0.500000 0.689440 0.500000 -0.246317
N2    N     N_R   0.500000 0.310560 0.500000 -0.108639
O1    O     O_R   0.398180 0.560840 0.499970 -0.575102
O2    O     O_R   0.601820 0.560840 0.500030 -0.578879
O3    O     O_R   0.398180 0.439210 0.499910 -0.643050
O4    O     O_R   0.601820 0.439210 0.500090 -0.631071
O5    O     O_R   0.500000 0.560800 0.319070 -0.650973
O6    O     O_R   0.500000 0.560800 0.680930 -0.645224
O7    O     O_R   0.499990 0.439170 0.319010 -0.560291
O8    O     O_R   0.500010 0.439170 0.680990 -0.578668
Zn1   Zn    Zn3+2 0.500000 0.581210 0.500000 0.975233
Zn2   Zn    Zn3+2 0.500000 0.418790 0.500000 0.976860
O9    O     O_3   0.437650 0.381152 0.869241 -0.553386
C43   C     C_3   0.369204 0.382549 0.817612 0.132821
H13   H     H_    0.361767 0.427866 0.750939 0.142521
H14   H     H_    0.330789 0.388112 0.893149 0.133278
C44   C     C_3   0.354532 0.311944 0.746037 -0.714433
H15   H     H_    0.359419 0.265729 0.811110 0.278938
H16   H     H_    0.301074 0.312717 0.704317 0.164416
H17   H     H_    0.391802 0.304810 0.669134 0.270099
O10   O     O_3   0.407255 0.404909 0.127812 -0.569691
C45   C     C_3   0.343326 0.439348 0.151340 0.076369
H18   H     H_    0.324382 0.473201 0.071295 0.112831
H19   H     H_    0.348864 0.474338 0.237334 0.133323
C46   C     C_3   0.288414 0.382006 0.173141 -0.798282
H20   H     H_    0.306507 0.344942 0.248330 0.247158
H21   H     H_    0.239333 0.408299 0.201593 0.226201
H22   H     H_    0.278108 0.349702 0.085328 0.243650
O11   O     O_3   0.624971 0.839079 0.534581 -0.541466
C47   C     C_3   0.637568 0.873542 0.653237 0.164766
H23   H     H_    0.678015 0.842514 0.704945 0.176292
H24   H     H_    0.591060 0.878218 0.713198 0.112714
C48   C     C_3   0.667500 0.948795 0.634656 -0.797205
H25   H     H_    0.629208 0.983790 0.585415 0.257496
H26   H     H_    0.681241 0.974147 0.727802 0.213660
H27   H     H_    0.715035 0.945087 0.578164 0.267715
O12   O     O_3   0.375228 0.838225 0.465935 -0.540061
C49   C     C_3   0.362516 0.870387 0.347521 0.169672
H28   H     H_    0.321988 0.838306 0.295817 0.177493
H29   H     H_    0.408947 0.873981 0.287388 0.109216
C50   C     C_3   0.332601 0.945932 0.366626 -0.806423
H30   H     H_    0.370952 0.982010 0.415794 0.256325
H31   H     H_    0.318692 0.969415 0.273663 0.210795
H32   H     H_    0.285170 0.943213 0.423383 0.269110
C51   C     C_2   0.553361 0.073068 0.283463 0.919430
O13   O     O_2   0.549792 0.042412 0.180261 -0.617916
O14   O     O_R   0.586206 0.140467 0.295642 -0.801275
H33   H     H_    0.603593 0.158466 0.212563 0.352631
C52   C     C_2   0.445653 0.076393 0.718102 0.919999
O15   O     O_2   0.418698 0.136023 0.709386 -0.647280
O16   O     O_R   0.447405 0.041812 0.834352 -0.791278
H34   H     H_    0.425727 0.071972 0.903587 0.357125
O17   O     O_3   0.846090 0.391289 0.655349 -0.581427
C53   C     C_3   0.857469 0.330940 0.575187 0.079923
H35   H     H_    0.884400 0.346558 0.488082 0.139885
H36   H     H_    0.807261 0.304089 0.548371 0.149668
C54   C     C_3   0.903450 0.277046 0.644801 -0.793280
H37   H     H_    0.877347 0.258289 0.730263 0.262597
H38   H     H_    0.913737 0.229616 0.582360 0.209769
H39   H     H_    0.953673 0.303009 0.673480 0.240281
O18   O     O_3   0.147099 0.370326 0.463185 -0.620467
C55   C     C_3   0.170255 0.308598 0.528793 0.084264
H40   H     H_    0.179810 0.320378 0.631311 0.124127
H41   H     H_    0.218560 0.287159 0.487219 0.150614
C56   C     C_3   0.114703 0.250187 0.516371 -0.805328
H42   H     H_    0.104719 0.235698 0.415382 0.262897
H43   H     H_    0.132228 0.201158 0.567168 0.213366
H44   H     H_    0.065781 0.270012 0.557632 0.245159
C57   C     C_2   0.864617 0.614764 0.410089 0.971202
O19   O     O_2   0.855942 0.630785 0.299391 -0.617555
O20   O     O_R   0.916272 0.649473 0.484339 -0.805348
H45   H     H_    0.942773 0.686806 0.435982 0.362999
C58   C     C_2   0.143659 0.617674 0.644366 1.003839
O21   O     O_2   0.160315 0.644511 0.747108 -0.595955
O22   O     O_R   0.086622 0.644914 0.575883 -0.796469
H46   H     H_    0.063196 0.686479 0.621483 0.348665
C59   C     C_2   0.713312 0.611866 0.368279 1.038369
O23   O     O_2   0.725129 0.676140 0.388600 -0.558236
O24   O     O_R   0.666160 0.590568 0.271818 -0.815756
H47   H     H_    0.644838 0.633252 0.226210 0.335153
C60   C     C_2   0.295083 0.621582 0.638648 1.038640
O25   O     O_2   0.279578 0.682775 0.606158 -0.555464
O26   O     O_R   0.349035 0.611061 0.727469 -0.821459
H48   H     H_    0.372049 0.658115 0.756391 0.336265
O27   O     O_3   0.073607 0.494209 0.779733 -0.601386
C61   C     C_3   0.077844 0.423597 0.827743 0.128552
H49   H     H_    0.094931 0.383538 0.755245 0.118868
H50   H     H_    0.026520 0.406662 0.862785 0.184208
C62   C     C_3   0.130791 0.422956 0.937046 -0.817974
H51   H     H_    0.114962 0.461401 0.012569 0.270154
H52   H     H_    0.134343 0.367757 0.976340 0.204903
H53   H     H_    0.182702 0.438906 0.903839 0.248815
O28   O     O_3   0.929169 0.505906 0.772355 -0.585414
C63   C     C_3   0.924468 0.580143 0.804421 0.104218
H54   H     H_    0.895562 0.610156 0.729471 0.174338
H55   H     H_    0.977056 0.604539 0.819779 0.183668
C64   C     C_3   0.885161 0.588592 0.926012 -0.725606
H56   H     H_    0.832039 0.565656 0.912979 0.256332
H57   H     H_    0.881059 0.646835 0.952357 0.220052
H58   H     H_    0.913006 0.559894 0.003433 0.267659
O29   O     O_3   0.616893 0.693205 0.587433 -0.544209
C65   C     C_3   0.606674 0.670948 0.713007 0.179314
H59   H     H_    0.616841 0.612021 0.717203 0.179719
H60   H     H_    0.553463 0.681038 0.748628 0.111664
C66   C     C_3   0.659203 0.706658 0.804521 -0.907940
H61   H     H_    0.639578 0.760027 0.836619 0.223800
H62   H     H_    0.666270 0.672838 0.889444 0.229444
H63   H     H_    0.710288 0.712701 0.759910 0.289734
O30   O     O_3   0.383028 0.691374 0.412663 -0.539685
C67   C     C_3   0.392511 0.667233 0.286465 0.173227
H64   H     H_    0.383127 0.608083 0.281947 0.166562
H65   H     H_    0.445208 0.677800 0.249450 0.114369
C68   C     C_3   0.338674 0.700254 0.196730 -0.893247
H66   H     H_    0.357666 0.752839 0.162799 0.221670
H67   H     H_    0.330591 0.664150 0.112629 0.228663
H68   H     H_    0.288227 0.707253 0.243511 0.294918

loop_
_geom_bond_atom_site_label_1
_geom_bond_atom_site_label_2
_ccdc_geom_bond_type
C27   H6    S    
C62   H53   S    
C30   C32   D    
C48   H25   S    
O14   H33   S    
C50   H30   S    
C11   C13   A    
O28   C63   S    
C65   C66   S    
C47   C48   S    
C50   H32   S    
C57   O19   D    
C39   C41   A    
C55   H40   S    
C25   C28   A    
C17   C23   A    
C24   H3    S    
C5    H11   S    
C67   H64   S    
C35   C37   A    
C45   H19   S    
C1    O3    A    
O3    Zn2   S    
C5    C6    A    
C2    O4    A    
C57   O20   S    
C3    C33   A    
C62   H51   S    
C39   C57   S    
C53   H35   S    
C18   C20   A    
C62   H52   S    
C64   H58   S    
C52   O15   D    
C44   H17   S    
C17   C19   A    
C29   O9    S    
C19   C52   S    
C52   O16   S    
C51   O13   D    
C53   H36   S    
C43   H13   S    
C64   H56   S    
C66   H62   S    
C9    C10   A    
C21   O5    A    
O6    Zn1   S    
C11   O29   S    
C10   O28   S    
C15   C23   S    
O7    Zn2   S    
O4    Zn2   S    
C60   O26   S    
C66   H61   S    
C31   H7    S    
N1    Zn1   S    
C68   H68   S    
C56   H43   S    
C61   H49   S    
C37   C39   A    
C21   C32   S    
C4    C34   A    
C22   C31   S    
O9    C43   S    
C12   N1    A    
C55   C56   S    
C60   O25   D    
C63   C64   S    
C45   H18   S    
C68   H67   S    
C68   H66   S    
C41   C59   S    
C27   N2    A    
C20   C28   S    
C40   C58   S    
C49   C50   S    
C42   C60   S    
O8    Zn2   S    
O10   C45   S    
C58   O22   S    
C29   C30   S    
C1    O1    A    
C22   O6    A    
O2    Zn1   S    
O11   C47   S    
O17   C53   S    
C49   H29   S    
C66   H63   S    
C54   H38   S    
C16   C18   A    
C47   H23   S    
C61   C62   S    
C16   H1    S    
C32   H8    S    
C26   H5    S    
C63   H55   S    
C43   H14   S    
C51   O14   S    
C12   C14   A    
C6    H12   S    
C16   C23   A    
C13   C15   A    
O24   H47   S    
C5    C8    A    
C33   H9    S    
C8    C37   S    
C58   O21   D    
O12   C49   S    
C11   N1    A    
O27   C61   S    
C44   H16   S    
O22   H46   S    
O16   H34   S    
C56   H44   S    
C7    C9    A    
C3    C41   A    
C54   H37   S    
C67   C68   S    
C24   C28   A    
O1    Zn1   S    
C40   C42   A    
C59   O24   S    
C26   N2    A    
C46   H22   S    
C56   H42   S    
C50   H31   S    
C6    C7    A    
C61   H50   S    
C25   C27   A    
O26   H48   S    
C13   O11   S    
C34   H10   S    
C53   C54   S    
C1    C4    S    
C19   C20   A    
C67   H65   S    
C2    C3    S    
C17   H2    S    
C44   H15   S    
C29   C31   D    
C36   C38   A    
C38   C40   A    
C30   O10   S    
C9    O27   S    
C24   C26   A    
O18   C55   S    
O20   H45   S    
C4    C42   A    
C43   C44   S    
N2    Zn2   S    
C65   H60   S    
C49   H28   S    
C33   C35   A    
C7    C38   S    
C55   H41   S    
C54   H39   S    
C34   C36   A    
C63   H54   S    
C64   H57   S    
C46   H21   S    
C2    O2    A    
C14   O12   S    
C21   O7    A    
O30   C67   S    
C35   O17   S    
C22   O8    A    
C46   H20   S    
O5    Zn1   S    
C45   C46   S    
C65   H59   S    
C8    C10   A    
C18   C51   S    
C48   H27   S    
O29   C65   S    
C48   H26   S    
C14   C15   A    
C47   H24   S    
C36   O18   S    
C25   H4    S    
C59   O23   D    
C12   O30   S    
