data_mof_unit_58833.cif
_audit_creation_date              2012-12-11T14:13:23-0500
_audit_creation_method            fapswitch 2.2
_symmetry_space_group_name_H-M    P1
_symmetry_Int_Tables_number       1
_space_group_crystal_system       triclinic
_cell_length_a                    17.361749
_cell_length_b                    17.393758
_cell_length_c                    17.644111
_cell_angle_alpha                 90.184697
_cell_angle_beta                  89.940056
_cell_angle_gamma                 90.123203
_cell_volume                      5328.23269297

loop_
_atom_site_label
_atom_site_type_symbol
_atom_type_description
_atom_site_fract_x
_atom_site_fract_y
_atom_site_fract_z
_atom_type_partial_charge
C1    C     C_R   0.605982 0.303756 0.100418 0.202464
C2    C     C_R   0.197332 0.107465 0.596564 0.198332
C3    C     C_3   0.316740 0.123278 0.514376 -0.889200
C4    C     C_3   0.919607 0.270979 0.608276 -0.425053
C5    C     C_3   0.851510 0.313002 0.572443 -0.899142
C6    C     C_3   0.724505 0.926263 0.582647 -0.402576
C7    C     C_3   0.673728 0.874305 0.532952 -0.907276
C8    C     C_3   0.081230 0.271314 0.392704 -0.430057
C9    C     C_3   0.149314 0.314042 0.428324 -0.892728
C10   C     C_3   0.272452 0.917420 0.395273 -0.442408
C11   C     C_3   0.310887 0.854309 0.441811 -0.888722
C12   C     C_3   0.925704 0.724803 0.418966 -0.401726
C13   C     C_R   0.901579 0.187481 0.621754 0.218804
C14   C     C_3   0.872621 0.674209 0.467481 -0.908454
C15   C     C_3   0.727318 0.082369 0.396352 -0.434114
C16   C     C_3   0.686952 0.147094 0.439647 -0.893958
C17   C     C_R   0.803271 0.893464 0.599601 0.196660
C18   C     C_R   0.099198 0.187694 0.379003 0.212475
C19   C     C_R   0.188905 0.899231 0.381037 0.214886
C20   C     C_R   0.893249 0.803309 0.400728 0.196452
C21   C     C_R   0.810670 0.101041 0.381929 0.219101
C22   C     C_R   0.589481 0.681978 0.130124 -0.206069
C23   C     C_R   0.306773 0.603235 0.109462 -0.185625
C24   C     C_R   0.396548 0.305246 0.105870 -0.200130
C25   C     C_R   0.687527 0.599180 0.121547 0.219361
C26   C     C_R   0.693506 0.396913 0.108442 -0.184526
C27   C     C_R   0.604654 0.305410 0.894716 -0.186976
C28   C     C_R   0.324715 0.415104 0.862816 -0.212586
C29   C     C_R   0.396809 0.694099 0.892989 -0.185451
C30   C     C_R   0.681489 0.588971 0.869247 -0.205991
C31   C     C_R   0.105312 0.195360 0.603379 -0.195827
C32   C     C_R   0.818669 0.089360 0.630890 -0.207972
C33   C     C_R   0.895914 0.805979 0.606726 -0.182563
C34   C     C_R   0.180767 0.912051 0.631512 -0.208917
C35   C     C_R   0.091152 0.815851 0.372772 -0.206080
C36   C     C_R   0.394013 0.696395 0.100391 0.196807
C37   C     C_R   0.805856 0.896017 0.393030 -0.182137
C38   C     C_R   0.907399 0.185370 0.374985 -0.205989
C39   C     C_R   0.181315 0.089398 0.369169 -0.205605
C40   C     C_R   0.680207 0.320350 0.122687 0.105643
C41   C     C_R   0.659227 0.662396 0.160699 0.121836
C42   C     C_R   0.319870 0.680153 0.122704 0.102342
C43   C     C_R   0.319661 0.317195 0.118792 0.118256
C44   C     C_R   0.661843 0.658634 0.838713 0.122008
C45   C     C_R   0.681587 0.318382 0.881322 0.108536
C46   C     C_R   0.346604 0.346719 0.829620 0.115917
C47   C     C_R   0.303382 0.391714 0.098114 0.209089
C48   C     C_R   0.320154 0.681471 0.878735 0.101569
C49   C     C_R   0.160814 0.842481 0.662466 0.121496
C50   C     C_R   0.182478 0.182976 0.615565 0.109908
C51   C     C_R   0.838768 0.159202 0.661651 0.121715
C52   C     C_R   0.819012 0.818797 0.620283 0.104026
C53   C     C_R   0.161867 0.159326 0.338970 0.115155
C54   C     C_R   0.161856 0.834241 0.343879 0.121502
C55   C     C_R   0.818506 0.819118 0.379873 0.103939
C56   C     C_R   0.836997 0.166710 0.345826 0.122552
C57   C     C_2   0.739230 0.653746 0.724983 -0.117752
C58   C     C_R   0.599024 0.687230 0.878318 0.219011
C59   C     C_2   0.286173 0.808037 0.831851 -0.131346
C60   C     C_2   0.266797 0.350804 0.716032 -0.116881
C61   C     C_2   0.716798 0.191993 0.834326 -0.131276
C62   C     C_2   0.805087 0.287469 0.173903 -0.133178
C63   C     C_2   0.285314 0.191280 0.167161 -0.126966
C64   C     C_2   0.193996 0.714833 0.170532 -0.132927
C65   C     C_2   0.653730 0.739524 0.274454 -0.117838
C66   C     C_2   0.240150 0.153530 0.225661 -0.122122
C67   C     C_2   0.842274 0.244461 0.233697 -0.118850
C68   C     C_2   0.691813 0.784183 0.333152 -0.132045
C69   C     C_R   0.696980 0.393482 0.901252 0.195543
C70   C     C_2   0.156581 0.758279 0.230182 -0.118023
C71   C     C_2   0.240456 0.847023 0.774800 -0.117260
C72   C     C_2   0.784011 0.692255 0.666738 -0.131278
C73   C     C_2   0.761758 0.153857 0.775786 -0.117629
C74   C     C_2   0.219472 0.310488 0.660169 -0.128815
C75   C     C_2   0.702424 0.695479 0.777864 -0.202588
C76   C     C_2   0.264465 0.738484 0.855459 -0.184723
C77   C     C_2   0.309798 0.310776 0.765220 -0.195043
C78   C     C_2   0.737936 0.261775 0.858078 -0.186997
C79   C     C_2   0.735438 0.265589 0.150679 -0.178444
C80   C     C_R   0.405324 0.315585 0.872977 0.220655
C81   C     C_2   0.263757 0.260375 0.142695 -0.185518
C82   C     C_2   0.264360 0.735817 0.148731 -0.178698
C83   C     C_2   0.695941 0.703141 0.221605 -0.202659
C84   C     C_2   0.202012 0.195726 0.277388 -0.196618
C85   C     C_2   0.799688 0.209290 0.287012 -0.203816
C86   C     C_2   0.761786 0.763124 0.356046 -0.184909
C87   C     C_2   0.199077 0.791903 0.284637 -0.208218
C88   C     C_2   0.201377 0.805634 0.723217 -0.201745
C89   C     C_2   0.762911 0.762212 0.644123 -0.185403
C90   C     C_2   0.799396 0.195776 0.723699 -0.199959
C91   C     C_R   0.303798 0.606817 0.899219 0.200695
C92   C     C_2   0.239646 0.240425 0.636119 -0.183909
C93   C     C_3   0.574821 0.225300 0.079264 -0.402515
C94   C     C_3   0.631675 0.173614 0.036267 -0.911447
C95   C     C_3   0.771424 0.582169 0.108398 -0.434454
C96   C     C_3   0.812092 0.648983 0.068759 -0.895739
C97   C     C_3   0.426324 0.775143 0.082434 -0.405069
C98   C     C_3   0.372878 0.825177 0.034120 -0.903677
C99   C     C_3   0.224394 0.419792 0.076310 -0.433517
C100  C     C_3   0.186184 0.370317 0.014847 -0.896129
C101  C     C_3   0.582775 0.771098 0.891927 -0.433760
C102  C     C_R   0.098377 0.813304 0.622476 0.219070
C103  C     C_3   0.650380 0.811080 0.931321 -0.895680
C104  C     C_3   0.775512 0.426908 0.919004 -0.401745
C105  C     C_3   0.825796 0.375797 0.969522 -0.906794
C106  C     C_3   0.420352 0.231049 0.883273 -0.433349
C107  C     C_3   0.349535 0.189293 0.914586 -0.896200
C108  C     C_3   0.224074 0.574255 0.912063 -0.414178
C109  C     C_3   0.174579 0.622513 0.966346 -0.905343
C110  C     C_3   0.082032 0.729293 0.609513 -0.433500
C111  C     C_3   0.149700 0.689248 0.570437 -0.896141
C112  C     C_3   0.275172 0.075401 0.574794 -0.415493
H1    H     H_    0.555823 0.731781 0.144055 0.110081
H2    H     H_    0.769203 0.055356 0.645572 0.109934
H3    H     H_    0.801325 0.315254 0.611189 0.254259
H4    H     H_    0.868700 0.372956 0.558967 0.250783
H5    H     H_    0.936916 0.299298 0.662143 0.187227
H6    H     H_    0.966592 0.275623 0.566350 0.195526
H7    H     H_    0.708320 0.831841 0.500740 0.274618
H8    H     H_    0.631180 0.842855 0.568177 0.249995
H9    H     H_    0.640704 0.909707 0.492045 0.242459
H10   H     H_    0.694219 0.938575 0.636818 0.177599
H11   H     H_    0.732009 0.981045 0.551830 0.197625
H12   H     H_    0.168930 0.284129 0.480254 0.268940
H13   H     H_    0.923282 0.751020 0.607707 0.111699
H14   H     H_    0.198379 0.318498 0.388398 0.254351
H15   H     H_    0.131313 0.373190 0.444100 0.249668
H16   H     H_    0.064558 0.299227 0.338637 0.184410
H17   H     H_    0.033218 0.276052 0.433976 0.196863
H18   H     H_    0.280196 0.846712 0.496604 0.266532
H19   H     H_    0.310942 0.798812 0.410659 0.254775
H20   H     H_    0.371507 0.870730 0.453820 0.250983
H21   H     H_    0.303092 0.924880 0.340483 0.184962
H22   H     H_    0.277712 0.970922 0.428762 0.205126
H23   H     H_    0.829628 0.708839 0.498987 0.275349
H24   H     H_    0.229825 0.946930 0.646163 0.110167
H25   H     H_    0.841714 0.631760 0.431570 0.250061
H26   H     H_    0.907278 0.641130 0.508972 0.241741
H27   H     H_    0.939579 0.694228 0.365312 0.177857
H28   H     H_    0.979625 0.732710 0.451463 0.196200
H29   H     H_    0.717491 0.159008 0.493789 0.266203
H30   H     H_    0.684756 0.200628 0.405844 0.254813
H31   H     H_    0.626934 0.129478 0.452929 0.252090
H32   H     H_    0.697358 0.070619 0.341941 0.188399
H33   H     H_    0.722943 0.031757 0.433206 0.197321
H34   H     H_    0.058038 0.765263 0.359935 0.110425
H35   H     H_    0.750946 0.923615 0.391278 0.111060
H36   H     H_    0.938560 0.237537 0.364657 0.111717
H37   H     H_    0.231210 0.056190 0.354919 0.114231
H38   H     H_    0.742158 0.591497 0.728092 0.126193
H39   H     H_    0.342313 0.832077 0.844625 0.124694
H40   H     H_    0.258403 0.412249 0.722622 0.123415
H41   H     H_    0.252501 0.574595 0.115478 0.108179
H42   H     H_    0.661146 0.167281 0.847883 0.125009
H43   H     H_    0.831146 0.341471 0.157156 0.124940
H44   H     H_    0.341149 0.166953 0.153882 0.124022
H45   H     H_    0.167822 0.660897 0.153439 0.125671
H46   H     H_    0.591348 0.741998 0.271154 0.126131
H47   H     H_    0.244107 0.091436 0.229990 0.125340
H48   H     H_    0.904764 0.245601 0.236180 0.126706
H49   H     H_    0.666848 0.839305 0.347797 0.125359
H50   H     H_    0.094054 0.758469 0.231806 0.127565
H51   H     H_    0.244854 0.909154 0.771096 0.126238
H52   H     H_    0.424796 0.250540 0.107006 0.105223
H53   H     H_    0.839270 0.667446 0.652125 0.125066
H54   H     H_    0.757719 0.091717 0.771451 0.125677
H55   H     H_    0.162838 0.334029 0.649235 0.123492
H56   H     H_    0.700783 0.757694 0.776132 0.142694
H57   H     H_    0.206071 0.718802 0.845665 0.153971
H58   H     H_    0.317024 0.249247 0.760011 0.141276
H59   H     H_    0.795844 0.282274 0.847247 0.154110
H60   H     H_    0.713760 0.209028 0.164954 0.151947
H61   H     H_    0.205649 0.280538 0.153312 0.143235
H62   H     H_    0.286037 0.792607 0.162760 0.150416
H63   H     H_    0.748319 0.424867 0.111247 0.111451
H64   H     H_    0.758287 0.701903 0.223499 0.142599
H65   H     H_    0.199106 0.257799 0.274145 0.141549
H66   H     H_    0.737290 0.209100 0.285898 0.142693
H67   H     H_    0.782330 0.705565 0.344209 0.154345
H68   H     H_    0.261523 0.790555 0.284598 0.142726
H69   H     H_    0.198364 0.743484 0.725547 0.142307
H70   H     H_    0.705216 0.782695 0.655802 0.153871
H71   H     H_    0.802390 0.257887 0.726827 0.141520
H72   H     H_    0.298083 0.220422 0.643934 0.145240
H73   H     H_    0.674719 0.207902 0.004417 0.275955
H74   H     H_    0.577942 0.249995 0.895602 0.112599
H75   H     H_    0.662004 0.134511 0.075681 0.251850
H76   H     H_    0.599905 0.136723 0.995313 0.242476
H77   H     H_    0.553949 0.195461 0.130930 0.181441
H78   H     H_    0.525864 0.233978 0.040410 0.191580
H79   H     H_    0.782974 0.662079 0.014227 0.266405
H80   H     H_    0.812517 0.701457 0.104537 0.254706
H81   H     H_    0.872721 0.632876 0.056564 0.251360
H82   H     H_    0.800196 0.568821 0.162966 0.187453
H83   H     H_    0.777222 0.532994 0.069465 0.197979
H84   H     H_    0.331427 0.789907 0.001227 0.275276
H85   H     H_    0.278368 0.451329 0.844698 0.111595
H86   H     H_    0.340067 0.865775 0.070372 0.249358
H87   H     H_    0.407466 0.860155 0.993923 0.241986
H88   H     H_    0.439809 0.805756 0.136170 0.177180
H89   H     H_    0.480498 0.767845 0.050112 0.196580
H90   H     H_    0.228050 0.354888 0.969874 0.272760
H91   H     H_    0.161505 0.316822 0.038606 0.256629
H92   H     H_    0.138198 0.402906 0.988639 0.248999
H93   H     H_    0.186850 0.423133 0.127203 0.183325
H94   H     H_    0.229843 0.477271 0.052233 0.203868
H95   H     H_    0.663741 0.781788 0.985643 0.266553
H96   H     H_    0.424412 0.749068 0.892639 0.112218
H97   H     H_    0.702658 0.811193 0.895245 0.254806
H98   H     H_    0.634826 0.871694 0.943882 0.250978
H99   H     H_    0.569119 0.800053 0.837584 0.187195
H100  H     H_    0.533969 0.777236 0.931242 0.196839
H101  H     H_    0.790942 0.333485 0.001610 0.273489
H102  H     H_    0.868803 0.344212 0.934922 0.250084
H103  H     H_    0.858322 0.411867 0.010595 0.242488
H104  H     H_    0.806426 0.438829 0.865141 0.177588
H105  H     H_    0.767564 0.481997 0.949527 0.197172
H106  H     H_    0.330955 0.216124 0.968832 0.269237
H107  H     H_    0.730943 0.554953 0.854744 0.109776
H108  H     H_    0.300757 0.190588 0.874190 0.256310
H109  H     H_    0.364199 0.128228 0.925570 0.249587
H110  H     H_    0.439076 0.204748 0.828878 0.187303
H111  H     H_    0.465314 0.222895 0.926345 0.193480
H112  H     H_    0.210062 0.662226 0.001056 0.273243
H113  H     H_    0.132091 0.657026 0.934209 0.250151
H114  H     H_    0.141625 0.584342 0.005001 0.244101
H115  H     H_    0.194226 0.568503 0.856659 0.177935
H116  H     H_    0.229004 0.516323 0.936339 0.206187
H117  H     H_    0.163175 0.718127 0.515870 0.267205
H118  H     H_    0.078862 0.250844 0.601184 0.105419
H119  H     H_    0.201917 0.689670 0.606495 0.255107
H120  H     H_    0.134156 0.628467 0.558387 0.250366
H121  H     H_    0.068215 0.700719 0.664071 0.187062
H122  H     H_    0.033281 0.722690 0.570271 0.196479
H123  H     H_    0.275318 0.150524 0.475023 0.272782
H124  H     H_    0.352550 0.168866 0.540708 0.250269
H125  H     H_    0.356030 0.085856 0.481039 0.244700
H126  H     H_    0.311899 0.070386 0.626037 0.179673
H127  H     H_    0.267175 0.017263 0.550498 0.201435
H128  H     H_    0.834059 0.283866 0.518954 0.267022
N1    N     N_R   0.574080 0.369570 0.076720 -0.067548
N2    N     N_R   0.130430 0.074080 0.576720 -0.063975
N3    N     N_R   0.925920 0.130430 0.576720 -0.064326
N4    N     N_R   0.869570 0.925920 0.576720 -0.065799
N5    N     N_R   0.074080 0.130430 0.423280 -0.063241
N6    N     N_R   0.130430 0.925920 0.423280 -0.061397
N7    N     N_R   0.925920 0.869570 0.423280 -0.066387
N8    N     N_R   0.869570 0.074080 0.423280 -0.065034
N9    N     N_R   0.574050 0.630410 0.076720 -0.055696
N10   N     N_R   0.369590 0.574050 0.076720 -0.053187
N11   N     N_R   0.425950 0.369590 0.076720 -0.056743
N12   N     N_R   0.630430 0.574080 0.076720 -0.064345
N13   N     N_R   0.630410 0.425950 0.076720 -0.054711
N14   N     N_R   0.574050 0.369590 0.923280 -0.056942
N15   N     N_R   0.369590 0.425950 0.923280 -0.051743
N16   N     N_R   0.425950 0.630410 0.923280 -0.055401
N17   N     N_R   0.630410 0.574050 0.923280 -0.055633
N18   N     N_R   0.074050 0.130410 0.576720 -0.055898
N19   N     N_R   0.869590 0.074050 0.576720 -0.055182
N20   N     N_R   0.925950 0.869590 0.576720 -0.055499
N21   N     N_R   0.130410 0.925950 0.576720 -0.054694
N22   N     N_R   0.074050 0.869590 0.423280 -0.055461
N23   N     N_R   0.425920 0.630430 0.076720 -0.065536
N24   N     N_R   0.869590 0.925950 0.423280 -0.055093
N25   N     N_R   0.925950 0.130410 0.423280 -0.055681
N26   N     N_R   0.130410 0.074050 0.423280 -0.050340
N27   N     N_R   0.369570 0.425920 0.076720 -0.064871
N28   N     N_R   0.574080 0.630430 0.923280 -0.064335
N29   N     N_R   0.630430 0.425920 0.923280 -0.065634
N30   N     N_R   0.425920 0.369570 0.923280 -0.063750
N31   N     N_R   0.369570 0.574080 0.923280 -0.064172
N32   N     N_R   0.074080 0.869570 0.576720 -0.064011
Ni1   Ni    Ni4+2 0.500000 0.370760 0.000000 0.193733
Ni2   Ni    Ni4+2 0.629240 0.500000 0.000000 0.196981
Ni3   Ni    Ni4+2 0.500000 0.629240 0.000000 0.196883
Ni4   Ni    Ni4+2 0.370760 0.500000 0.000000 0.200426
Ni5   Ni    Ni4+2 0.000000 0.870760 0.500000 0.196565
Ni6   Ni    Ni4+2 0.129240 0.000000 0.500000 0.199582
Ni7   Ni    Ni4+2 0.000000 0.129240 0.500000 0.194922
Ni8   Ni    Ni4+2 0.870760 0.000000 0.500000 0.196864

loop_
_geom_bond_atom_site_label_1
_geom_bond_atom_site_label_2
_ccdc_geom_bond_type
C8    C9    S    
N32   Ni5   S    
C105  H103  S    
C5    H128  S    
C30   N17   A    
C68   C86   D    
C72   H53   S    
C48   C76   S    
C36   C42   A    
N5    N26   A    
C42   C82   S    
C10   H21   S    
C30   C44   A    
C11   H20   S    
C103  H97   S    
C97   C98   S    
N19   Ni8   S    
C39   N26   A    
C76   H57   S    
C13   N3    A    
C93   H78   S    
N26   Ni6   S    
C33   C52   A    
C39   C53   A    
C28   C46   A    
N17   Ni2   S    
C93   C94   S    
C23   C42   A    
C71   H51   S    
N29   Ni2   S    
C99   H93   S    
C53   C84   S    
C96   H79   S    
C38   N25   A    
C94   H76   S    
C73   C90   D    
C23   N10   A    
C91   N31   A    
N13   Ni2   S    
C51   C90   S    
C54   C87   S    
C100  H91   S    
C65   C83   D    
C22   C41   A    
C62   C67   S    
C14   H23   S    
N1    Ni1   S    
C15   C16   S    
C41   C83   S    
C31   H118  S    
C80   C106  S    
N4    Ni8   S    
C9    H12   S    
C47   C99   S    
C108  C109  S    
C33   N20   A    
C60   H40   S    
C29   N16   A    
C74   C92   D    
C4    C13   S    
N6    Ni6   S    
C110  C111  S    
C66   H47   S    
N21   N32   A    
C78   H59   S    
C2    C50   A    
C18   C53   A    
C3    H123  S    
C87   H68   S    
C13   C51   A    
C100  H90   S    
C8    H16   S    
C20   N7    A    
N21   Ni6   S    
C14   H26   S    
C17   N4    A    
C44   C58   A    
C77   H58   S    
N9    N12   A    
C48   C91   A    
N4    N20   A    
C64   H45   S    
C94   H73   S    
N16   Ni3   S    
N15   Ni4   S    
C45   C78   S    
C91   C108  S    
C64   C70   S    
C107  H108  S    
N28   Ni3   S    
C3    C112  S    
N7    N24   A    
C1    C40   A    
C110  H121  S    
C112  H127  S    
C63   C66   S    
N10   N23   A    
C101  C103  S    
C83   H64   S    
C61   H42   S    
C35   C54   A    
C111  H120  S    
N2    N18   A    
C97   H88   S    
C4    H6    S    
C52   C89   S    
C24   H52   S    
N17   N28   A    
C6    H11   S    
C7    H9    S    
C20   C55   A    
C70   C87   D    
C70   H50   S    
C17   C52   A    
C33   H13   S    
C74   H55   S    
N14   Ni1   S    
C21   N8    A    
C22   H1    S    
C101  H100  S    
N31   Ni4   S    
N27   Ni4   S    
N16   N31   A    
C60   C77   D    
C67   C85   D    
C105  H101  S    
C98   H86   S    
C99   H94   S    
C45   C69   A    
N10   Ni4   S    
C58   N28   A    
C36   N23   A    
C82   H62   S    
C62   C79   D    
C16   H31   S    
C94   H75   S    
C104  H104  S    
C22   N9    A    
C92   H72   S    
C25   C41   A    
C49   C102  A    
C15   H33   S    
C109  H113  S    
N25   Ni7   S    
N8    N25   A    
C108  H116  S    
C61   C73   S    
C68   H49   S    
N22   Ni5   S    
C66   C84   D    
C101  H99   S    
C12   H27   S    
C15   H32   S    
C36   C97   S    
C11   H19   S    
C27   H74   S    
C81   H61   S    
C79   H60   S    
N7    Ni5   S    
C44   C75   S    
C16   H30   S    
C32   C51   A    
C7    H7    S    
C3    H124  S    
C21   C56   A    
C107  H106  S    
C106  H111  S    
C14   H25   S    
C34   H24   S    
C10   C19   S    
C65   C68   S    
C2    C112  S    
C57   H38   S    
C12   C20   S    
C12   H28   S    
C40   C79   S    
C98   H84   S    
N5    Ni7   S    
C58   C101  S    
N3    N19   A    
C37   H35   S    
C57   C75   D    
C2    N2    A    
C64   C82   D    
C75   H56   S    
C109  H112  S    
C1    N1    A    
C3    H125  S    
C98   H87   S    
C19   C54   A    
C50   C92   S    
C96   H81   S    
C12   C14   S    
C27   C45   A    
C25   C95   S    
C95   H82   S    
N23   Ni3   S    
C23   H41   S    
C5    H4    S    
C43   C81   S    
C4    H5    S    
C102  C110  S    
N1    N13   A    
C6    H10   S    
C31   C50   A    
N3    Ni7   S    
C11   H18   S    
N11   N27   A    
N18   Ni7   S    
C35   N22   A    
C62   H43   S    
C69   C104  S    
C47   N27   A    
C9    H15   S    
C6    C17   S    
C34   C49   A    
C95   H83   S    
C105  H102  S    
C63   C81   D    
C34   N21   A    
C7    H8    S    
C32   N19   A    
C24   N11   A    
N11   Ni1   S    
C103  H95   S    
C65   H46   S    
C26   N13   A    
N6    N22   A    
C104  C105  S    
C63   H44   S    
C46   C77   S    
C109  H114  S    
C93   H77   S    
C6    C7    S    
C108  H115  S    
C59   H39   S    
C49   C88   S    
C39   H37   S    
N14   N29   A    
C112  H126  S    
C9    H14   S    
C99   C100  S    
C29   C48   A    
C5    H3    S    
C89   H70   S    
C96   H80   S    
C55   C86   S    
C16   H29   S    
C102  N32   A    
C37   N24   A    
N24   Ni8   S    
C28   H85   S    
C46   C80   A    
N20   Ni5   S    
C100  H92   S    
C18   N5    A    
C26   C40   A    
C56   C85   S    
C106  H110  S    
C43   C47   A    
C26   H63   S    
C111  H117  S    
C4    C5    S    
C28   N15   A    
C60   C74   S    
C86   H67   S    
C25   N12   A    
C85   H66   S    
N9    Ni3   S    
C31   N18   A    
C80   N30   A    
C57   C72   S    
C84   H65   S    
C73   H54   S    
C27   N14   A    
C8    C18   S    
C104  H105  S    
N8    Ni8   S    
C61   C78   D    
N30   Ni1   S    
C10   C11   S    
C38   H36   S    
C69   N29   A    
C71   C88   D    
C37   C55   A    
C103  H98   S    
C15   C21   S    
C10   H22   S    
C38   C56   A    
C90   H71   S    
C1    C93   S    
C97   H89   S    
C106  C107  S    
C29   H96   S    
C8    H17   S    
C24   C43   A    
C88   H69   S    
C67   H48   S    
C72   C89   D    
C32   H2    S    
N2    Ni6   S    
C111  H119  S    
N12   Ni2   S    
C59   C76   D    
C35   H34   S    
C95   C96   S    
C110  H122  S    
C19   N6    A    
C59   C71   S    
C30   H107  S    
C107  H109  S    
N15   N30   A    
