data_mof_unit_57478.cif
_audit_creation_date              2012-12-11T15:39:33-0500
_audit_creation_method            fapswitch 2.2
_symmetry_space_group_name_H-M    P1
_symmetry_Int_Tables_number       1
_space_group_crystal_system       triclinic
_cell_length_a                    17.466488
_cell_length_b                    24.525274
_cell_length_c                    14.952084
_cell_angle_alpha                 90.244191
_cell_angle_beta                  125.81013
_cell_angle_gamma                 89.540106
_cell_volume                      5194.05773745

loop_
_atom_site_label
_atom_site_type_symbol
_atom_type_description
_atom_site_fract_x
_atom_site_fract_y
_atom_site_fract_z
_atom_type_partial_charge
C1    C     C_R   0.343177 0.351743 0.908068 -0.148981
C2    C     C_R   0.438283 0.499876 0.633951 0.044503
C3    C     C_R   0.178387 0.852840 0.003196 0.106302
C4    C     C_3   0.509703 0.236885 0.787317 -1.073320
C5    C     C_3   0.251479 0.340086 0.076854 -0.997836
C6    C     C_3   0.286760 0.874971 0.916424 -0.990026
C7    C     C_3   0.671551 0.838997 0.951288 -0.994846
C8    C     C_3   0.699304 0.231643 0.196532 -1.060782
C9    C     C_3   0.391419 0.219788 0.924273 -0.997499
C10   C     C_3   0.176271 0.748090 0.091020 -1.018570
C11   C     C_3   0.956893 0.725694 0.046663 -1.017985
C12   C     C_R   0.068084 0.999707 0.368136 0.047251
C13   C     C_R   0.030413 0.999605 0.703975 0.041240
C14   C     C_R   0.175163 0.501468 0.722230 0.072150
C15   C     C_R   0.804622 0.500591 0.365872 0.074086
C16   C     C_R   0.673614 0.000864 0.712327 0.069713
C17   C     C_R   0.301150 0.000826 0.368420 0.081954
C18   C     C_R   0.023303 0.552605 0.619777 0.163605
C19   C     C_R   0.930152 0.552070 0.529636 0.158783
C20   C     C_R   0.521366 0.051929 0.618385 0.168015
C21   C     C_R   0.645513 0.347535 0.090138 -0.130528
C22   C     C_R   0.426519 0.051895 0.533207 0.160022
C23   C     C_R   0.073024 0.503544 0.665123 0.032784
C24   C     C_R   0.884651 0.502569 0.481920 0.033156
C25   C     C_R   0.571812 0.002658 0.657812 0.035103
C26   C     C_R   0.380443 0.002595 0.484684 0.029677
C27   C     C_R   0.020601 0.455166 0.636357 -0.199360
C28   C     C_R   0.926260 0.454590 0.543986 -0.199438
C29   C     C_R   0.519914 0.954230 0.631226 -0.195738
C30   C     C_R   0.423817 0.954161 0.544060 -0.199278
C31   C     C_3   0.941906 0.601169 0.479697 -0.517228
C32   C     C_R   0.838058 0.853915 0.908547 -0.150737
C33   C     C_3   0.043895 0.601645 0.577710 -0.519645
C34   C     C_3   0.434193 0.102818 0.484004 -0.518014
C35   C     C_3   0.537781 0.102724 0.576603 -0.526418
C36   C     C_R   0.337907 0.777265 0.960808 -0.219548
C37   C     C_R   0.679848 0.738044 0.975134 -0.210062
C38   C     C_R   0.671395 0.198592 0.899338 -0.217671
C39   C     C_R   0.220974 0.240650 0.044730 -0.213526
C40   C     C_R   0.604991 0.231560 0.896124 0.300138
C41   C     C_R   0.266203 0.285284 0.041955 0.260966
C42   C     C_R   0.286840 0.820262 0.962235 0.257060
C43   C     C_R   0.186767 0.872160 0.094488 -0.123631
C44   C     C_R   0.722674 0.785024 0.976138 0.254248
C45   C     C_R   0.629003 0.255673 0.995547 0.024429
C46   C     C_R   0.322150 0.277932 0.003088 0.014266
C47   C     C_R   0.236042 0.810995 0.007062 0.013430
C48   C     C_R   0.813593 0.780648 0.001417 0.012870
C49   C     C_R   0.445425 0.651249 0.092382 -0.158466
C50   C     C_R   0.594119 0.626636 0.907198 -0.137781
C51   C     C_R   0.911765 0.133735 0.093822 -0.137068
C52   C     C_R   0.090491 0.133699 0.910188 -0.138224
C53   C     C_R   0.698356 0.229217 0.095338 0.283185
C54   C     C_R   0.385227 0.682211 0.001546 0.090151
C55   C     C_R   0.332160 0.227188 0.966434 0.251147
C56   C     C_R   0.235277 0.760015 0.049623 0.260450
C57   C     C_R   0.861385 0.730278 0.024959 0.262904
C58   C     C_R   0.287570 0.718638 0.048661 -0.206611
C59   C     C_R   0.816999 0.683693 0.024399 -0.208196
C60   C     C_R   0.765288 0.196612 0.098083 -0.217030
C61   C     C_R   0.284569 0.183221 0.968563 -0.206525
C62   C     C_R   0.337701 0.727570 0.004662 0.032162
C63   C     C_R   0.727112 0.688307 0.998820 0.026026
C64   C     C_R   0.756151 0.185464 0.000334 0.038967
C65   C     C_R   0.680754 0.641894 0.999648 0.081448
C66   C     C_R   0.230474 0.190784 0.007862 0.025074
C67   C     C_R   0.397398 0.549674 0.467155 -0.169641
C68   C     C_R   0.398289 0.549829 0.375273 -0.171254
C69   C     C_R   0.093440 0.048699 0.616263 -0.170924
C70   C     C_R   0.106293 0.048740 0.533579 -0.170146
C71   C     C_R   0.409027 0.500510 0.336016 0.142815
C72   C     C_R   0.406203 0.500151 0.519153 0.140343
C73   C     C_R   0.100584 0.999443 0.482457 0.138481
C74   C     C_R   0.075121 0.999375 0.647147 0.147321
C75   C     C_R   0.397266 0.451141 0.373507 -0.164521
C76   C     C_R   0.829208 0.155224 0.002021 0.097226
C77   C     C_R   0.396624 0.450930 0.465616 -0.170374
C78   C     C_R   0.105502 0.949963 0.532084 -0.165985
C79   C     C_R   0.092233 0.949918 0.614386 -0.169443
C80   C     C_R   0.482023 0.454551 0.249988 -0.121010
C81   C     C_R   0.453873 0.454378 0.697454 -0.125872
C82   C     C_R   0.049759 0.954346 0.303602 -0.125062
C83   C     C_R   0.004166 0.954242 0.734487 -0.125881
C84   C     C_R   0.232961 0.546412 0.753028 -0.145660
C85   C     C_R   0.754528 0.545625 0.302895 -0.153312
C86   C     C_R   0.730965 0.045817 0.741945 -0.135884
C87   C     C_R   0.177041 0.147657 0.003937 0.089837
C88   C     C_R   0.252350 0.045685 0.304278 -0.152775
C89   C     C_R   0.480975 0.545990 0.248901 -0.128005
C90   C     C_R   0.452576 0.545343 0.697022 -0.133258
C91   C     C_R   0.050580 0.045266 0.304450 -0.132744
C92   C     C_R   0.004034 0.045295 0.734569 -0.125995
C93   C     C_R   0.230856 0.455080 0.747400 -0.123781
C94   C     C_R   0.757278 0.454725 0.303049 -0.122781
C95   C     C_R   0.730456 0.954716 0.742830 -0.122072
C96   C     C_R   0.255206 0.955018 0.304991 -0.132800
C97   C     C_R   0.353006 0.651883 0.909134 -0.149832
C98   C     C_R   0.451168 0.500408 0.275629 0.041773
C99   C     C_R   0.686920 0.627029 0.092560 -0.129686
C100  C     C_R   0.824792 0.139110 0.909975 -0.142657
C101  C     C_R   0.184918 0.129398 0.095206 -0.141389
C102  C     C_R   0.437378 0.351339 0.092423 -0.146433
C103  C     C_R   0.554888 0.348492 0.907397 -0.124131
C104  C     C_R   0.928399 0.855578 0.093735 -0.135442
C105  C     C_R   0.090731 0.865986 0.909940 -0.144540
C106  C     C_R   0.368553 0.323894 0.000722 0.114852
C107  C     C_R   0.610710 0.314638 0.997713 0.067086
C108  C     C_R   0.857075 0.828989 0.001468 0.114122
H1    H     H_    0.297830 0.337991 0.823516 0.092989
H2    H     H_    0.092498 0.592911 0.554139 0.201420
H3    H     H_    0.395399 0.137724 0.488233 0.191798
H4    H     H_    0.581937 0.095916 0.546176 0.200954
H5    H     H_    0.377436 0.782098 0.926287 0.131739
H6    H     H_    0.609893 0.739872 0.956876 0.137644
H7    H     H_    0.655596 0.183153 0.822429 0.128234
H8    H     H_    0.176192 0.244666 0.072734 0.137922
H9    H     H_    0.287667 0.678665 0.079720 0.138784
H10   H     H_    0.851198 0.644114 0.042465 0.137313
H11   H     H_    0.823115 0.179844 0.176170 0.134657
H12   H     H_    0.686977 0.335567 0.175467 0.118100
H13   H     H_    0.288629 0.143506 0.939281 0.138611
H14   H     H_    0.398728 0.588582 0.502119 0.107320
H15   H     H_    0.400418 0.588770 0.343271 0.108012
H16   H     H_    0.089327 0.087561 0.647609 0.108594
H17   H     H_    0.109792 0.087660 0.502591 0.107078
H18   H     H_    0.398282 0.412298 0.339850 0.107832
H19   H     H_    0.397294 0.411956 0.499488 0.108527
H20   H     H_    0.108472 0.911060 0.500038 0.106344
H21   H     H_    0.086787 0.911016 0.643817 0.105792
H22   H     H_    0.487287 0.664336 0.177572 0.099782
H23   H     H_    0.794621 0.838635 0.824977 0.095259
H24   H     H_    0.563848 0.636546 0.822183 0.104444
H25   H     H_    0.940770 0.139477 0.179743 0.092376
H26   H     H_    0.057875 0.150180 0.828647 0.096186
H27   H     H_    0.473768 0.412476 0.262660 0.088712
H28   H     H_    0.438049 0.412452 0.670541 0.085768
H29   H     H_    0.066566 0.912336 0.329893 0.082543
H30   H     H_    0.003359 0.912717 0.711091 0.085707
H31   H     H_    0.214431 0.588620 0.749950 0.110668
H32   H     H_    0.761044 0.586967 0.331511 0.102238
H33   H     H_    0.709658 0.087497 0.726892 0.101845
H34   H     H_    0.243608 0.865214 0.180212 0.101156
H35   H     H_    0.256970 0.086917 0.332472 0.099606
H36   H     H_    0.470593 0.588308 0.259081 0.091470
H37   H     H_    0.434508 0.587110 0.669381 0.084049
H38   H     H_    0.068749 0.086956 0.332203 0.082654
H39   H     H_    0.002975 0.086759 0.711234 0.086439
H40   H     H_    0.208347 0.413222 0.733344 0.092190
H41   H     H_    0.769374 0.412958 0.331280 0.086789
H42   H     H_    0.708446 0.912801 0.729319 0.090443
H43   H     H_    0.265944 0.913471 0.333991 0.082789
H44   H     H_    0.309130 0.665786 0.824471 0.094589
H45   H     H_    0.932971 0.592274 0.401074 0.202961
H46   H     H_    0.741876 0.637104 0.177474 0.102749
H47   H     H_    0.778209 0.154939 0.827475 0.085009
H48   H     H_    0.239648 0.138044 0.180967 0.103480
H49   H     H_    0.478820 0.337122 0.176851 0.094337
H50   H     H_    0.511462 0.338275 0.821331 0.116782
H51   H     H_    0.966029 0.843056 0.178950 0.096455
H52   H     H_    0.058248 0.849378 0.828498 0.094098
H53   H     H_    0.054521 0.416727 0.675186 0.128100
H54   H     H_    0.890894 0.415759 0.514928 0.126079
H55   H     H_    0.554542 0.915538 0.667086 0.125503
H56   H     H_    0.062131 0.637942 0.631337 0.192423
H57   H     H_    0.388314 0.915363 0.515265 0.124551
H58   H     H_    0.457055 0.255640 0.796659 0.256235
H59   H     H_    0.515493 0.260921 0.728765 0.249663
H60   H     H_    0.482721 0.195730 0.751585 0.263431
H61   H     H_    0.318498 0.354220 0.152941 0.242440
H62   H     H_    0.226286 0.370458 0.010036 0.257653
H63   H     H_    0.198106 0.338106 0.094685 0.246075
H64   H     H_    0.214041 0.885835 0.845375 0.245329
H65   H     H_    0.313076 0.906666 0.981243 0.255864
H66   H     H_    0.332681 0.874798 0.887581 0.248476
H67   H     H_    0.421069 0.096407 0.402417 0.203329
H68   H     H_    0.714343 0.867202 0.022037 0.257642
H69   H     H_    0.659570 0.857413 0.876321 0.246194
H70   H     H_    0.601737 0.834271 0.936398 0.244884
H71   H     H_    0.634377 0.251424 0.178890 0.251147
H72   H     H_    0.701108 0.189554 0.224874 0.264103
H73   H     H_    0.763068 0.253433 0.263896 0.248589
H74   H     H_    0.464053 0.234571 0.986603 0.261416
H75   H     H_    0.396116 0.176357 0.906446 0.256556
H76   H     H_    0.358829 0.243198 0.846726 0.240137
H77   H     H_    0.102741 0.761866 0.028994 0.264510
H78   H     H_    0.558669 0.137775 0.633729 0.191651
H79   H     H_    0.174327 0.703818 0.105000 0.252821
H80   H     H_    0.205535 0.769267 0.170418 0.246523
H81   H     H_    0.009265 0.750074 0.120328 0.255680
H82   H     H_    0.982638 0.682830 0.061595 0.254028
H83   H     H_    0.951707 0.740996 0.973558 0.252393
H84   H     H_    0.901458 0.637022 0.477465 0.189906
N1    N     N_R   0.394180 0.396910 0.943210 -0.037661
N2    N     N_R   0.474350 0.471570 0.793850 -0.039492
N3    N     N_R   0.025650 0.971570 0.206150 -0.037733
N4    N     N_R   0.974350 0.971570 0.793850 -0.038666
N5    N     N_R   0.319480 0.528420 0.793810 -0.040820
N6    N     N_R   0.680520 0.528420 0.206190 -0.038936
N7    N     N_R   0.819480 0.028420 0.793810 -0.041721
N8    N     N_R   0.180520 0.028420 0.206190 -0.036971
N9    N     N_R   0.525640 0.528390 0.206120 -0.039690
N10   N     N_R   0.474360 0.528390 0.793880 -0.037790
N11   N     N_R   0.025640 0.028390 0.206120 -0.037364
N12   N     N_R   0.605820 0.396910 0.056790 -0.042153
N13   N     N_R   0.974360 0.028390 0.793880 -0.039368
N14   N     N_R   0.319490 0.471590 0.793840 -0.041119
N15   N     N_R   0.680510 0.471590 0.206160 -0.040659
N16   N     N_R   0.819490 0.971590 0.793840 -0.041705
N17   N     N_R   0.180510 0.971590 0.206160 -0.038689
N18   N     N_R   0.394130 0.603080 0.943110 -0.038959
N19   N     N_R   0.605870 0.603080 0.056890 -0.041691
N20   N     N_R   0.894130 0.103080 0.943110 -0.039478
N21   N     N_R   0.105870 0.103080 0.056890 -0.042666
N22   N     N_R   0.450990 0.396900 0.056840 -0.037316
N23   N     N_R   0.894180 0.896910 0.943210 -0.039022
N24   N     N_R   0.549010 0.396900 0.943160 -0.042296
N25   N     N_R   0.950990 0.896900 0.056840 -0.040100
N26   N     N_R   0.049010 0.896900 0.943160 -0.040167
N27   N     N_R   0.105820 0.896910 0.056790 -0.042658
N28   N     N_R   0.450950 0.603070 0.056740 -0.038193
N29   N     N_R   0.549050 0.603070 0.943260 -0.042609
N30   N     N_R   0.950950 0.103070 0.056740 -0.041101
N31   N     N_R   0.049050 0.103070 0.943260 -0.041051
N32   N     N_R   0.525650 0.471570 0.206150 -0.040499
Ni1   Ni    Ni4+2 0.434860 0.434850 0.869700 0.207867
Ni2   Ni    Ni4+2 0.565140 0.434850 0.130300 0.208071
Ni3   Ni    Ni4+2 0.934860 0.934850 0.869700 0.213714
Ni4   Ni    Ni4+2 0.065140 0.934850 0.130300 0.206800
Ni5   Ni    Ni4+2 0.565130 0.565140 0.130240 0.208972
Ni6   Ni    Ni4+2 0.434870 0.565140 0.869760 0.206735
Ni7   Ni    Ni4+2 0.065130 0.065140 0.130240 0.207414
Ni8   Ni    Ni4+2 0.934870 0.065140 0.869760 0.214944

loop_
_geom_bond_atom_site_label_1
_geom_bond_atom_site_label_2
_ccdc_geom_bond_type
C8    H73   S    
C58   C62   A    
C89   N9    A    
C63   C65   S    
C50   N29   A    
C17   C88   A    
C52   H26   S    
C50   C65   A    
C29   H55   S    
C12   C91   A    
C36   C42   A    
C14   C84   A    
C19   C31   S    
C15   C94   A    
N6    Ni5   S    
C28   H54   S    
C48   C57   A    
C39   C41   A    
N20   N30   A    
N5    Ni6   S    
C3    C105  A    
C94   H41   S    
C3    C43   A    
C72   C77   A    
C80   H27   S    
N28   Ni5   S    
C60   H11   S    
C17   C26   S    
N2    Ni1   S    
N11   Ni7   S    
C34   C35   S    
C21   H12   S    
N23   N25   A    
N16   Ni3   S    
N20   Ni8   S    
C2    C72   S    
C57   C59   A    
C105  H52   S    
N3    N11   A    
C20   C25   A    
C93   N14   A    
C51   N30   A    
C49   C54   A    
C79   H21   S    
C99   H46   S    
C46   C106  S    
C16   C25   S    
C10   H77   S    
N18   N28   A    
C7    H69   S    
C93   H40   S    
C61   H13   S    
C18   C19   A    
N4    N13   A    
C2    C90   A    
C5    C41   S    
C92   N13   A    
C1    C106  A    
C1    H1    S    
C81   N2    A    
C87   C101  A    
C32   N23   A    
C61   C66   A    
C102  N22   A    
C4    C40   S    
C84   H31   S    
C101  N21   A    
N29   Ni6   S    
C10   H80   S    
C41   C46   A    
C31   C33   S    
C54   C97   A    
C9    C55   S    
N8    Ni7   S    
C23   C27   A    
N27   Ni4   S    
C10   C56   S    
C88   H35   S    
C11   H83   S    
C77   H19   S    
C32   H23   S    
C86   N7    A    
C15   C85   A    
N9    Ni5   S    
N4    Ni3   S    
C45   C53   A    
C12   C73   S    
C92   H39   S    
C16   C86   A    
C34   H3    S    
C20   C35   S    
C21   N12   A    
N5    N14   A    
C9    H74   S    
C70   C73   A    
C36   C62   A    
C36   H5    S    
C102  H49   S    
C31   H45   S    
C53   C60   A    
C38   C64   A    
C56   C58   A    
N2    N10   A    
C5    H63   S    
C40   C45   A    
C22   C34   S    
C71   C98   S    
C71   C75   A    
C97   N18   A    
C49   N28   A    
C67   C68   A    
N1    N22   A    
C33   H56   S    
C44   C48   A    
C51   C76   A    
C65   C99   A    
N8    N17   A    
C66   C87   S    
C17   C96   A    
C78   C79   A    
C99   N19   A    
C37   H6    S    
C6    H66   S    
C69   H16   S    
C96   H43   S    
C31   H84   S    
C100  N20   A    
C58   H9    S    
C35   H78   S    
C18   C23   A    
C7    H70   S    
N32   Ni2   S    
C11   H81   S    
C14   C23   S    
C46   C55   A    
C1    N1    A    
N7    Ni8   S    
C29   C30   A    
C9    H75   S    
C80   N32   A    
C8    H72   S    
N15   Ni2   S    
C37   C63   A    
C73   C78   A    
C7    H68   S    
N14   Ni1   S    
C10   H79   S    
C64   C76   S    
C12   C82   A    
C69   C74   A    
C95   H42   S    
C7    C44   S    
C34   H67   S    
C75   C77   A    
C85   H32   S    
C82   N3    A    
C21   C107  A    
C22   C26   A    
C50   H24   S    
C5    H62   S    
N3    Ni4   S    
C100  H47   S    
C15   C24   S    
N17   Ni4   S    
C20   C22   A    
N30   Ni7   S    
C26   C30   A    
C59   H10   S    
C74   C79   A    
C13   C92   A    
C32   C108  A    
C39   C66   A    
N21   N31   A    
C76   C100  A    
C104  H51   S    
N12   Ni2   S    
C11   H82   S    
C67   H14   S    
N26   Ni3   S    
C104  C108  A    
C67   C72   A    
N31   Ni8   S    
C70   H17   S    
C81   H28   S    
C95   N16   A    
N12   N24   A    
C16   C95   A    
C96   N17   A    
C14   C93   A    
C80   C98   A    
N6    N15   A    
C83   N4    A    
C52   C87   A    
C43   N27   A    
C94   N15   A    
C24   C28   A    
C30   H57   S    
C2    C81   A    
N21   Ni7   S    
C8    C53   S    
C103  C107  A    
C103  H50   S    
C105  N26   A    
C6    H65   S    
C84   N5    A    
C82   H29   S    
C89   H36   S    
C54   C62   S    
C49   H22   S    
C13   C83   A    
C59   C63   A    
N24   Ni1   S    
C101  H48   S    
C4    H59   S    
N10   Ni6   S    
C89   C98   A    
C60   C64   A    
C75   H18   S    
C88   N8    A    
C37   C44   A    
C19   C24   A    
N1    Ni1   S    
C9    H76   S    
C68   H15   S    
C27   H53   S    
C38   C40   A    
C38   H7    S    
C51   H25   S    
C8    H71   S    
C25   C29   A    
N26   N27   A    
C48   C108  S    
C68   C71   A    
C55   C61   A    
C3    C47   S    
N7    N16   A    
C97   H44   S    
C4    H58   S    
C102  C106  A    
N23   Ni3   S    
C42   C47   A    
C83   H30   S    
C69   C70   A    
N22   Ni2   S    
C18   C33   S    
C104  N25   A    
N18   Ni6   S    
C78   H20   S    
N25   Ni4   S    
N19   Ni5   S    
C4    H60   S    
C85   N6    A    
C13   C74   S    
C52   N31   A    
C39   H8    S    
C6    C42   S    
C90   H37   S    
C5    H61   S    
C6    H64   S    
C43   H34   S    
N13   Ni8   S    
C33   H2    S    
N9    N32   A    
C90   N10   A    
C11   C57   S    
C103  N24   A    
C91   H38   S    
C91   N11   A    
C35   H4    S    
C45   C107  S    
C86   H33   S    
C47   C56   A    
C27   C28   A    
N19   N29   A    
