data_mof_unit_47016.cif
_audit_creation_date              2012-12-11T14:39:34-0500
_audit_creation_method            fapswitch 2.2
_symmetry_space_group_name_H-M    P1
_symmetry_Int_Tables_number       1
_space_group_crystal_system       triclinic
_cell_length_a                    7.223071
_cell_length_b                    14.112625
_cell_length_c                    16.294584
_cell_angle_alpha                 89.999977
_cell_angle_beta                  97.463297
_cell_angle_gamma                 90.000086
_cell_volume                      1646.94108864

loop_
_atom_site_label
_atom_site_type_symbol
_atom_type_description
_atom_site_fract_x
_atom_site_fract_y
_atom_site_fract_z
_atom_type_partial_charge
O1    O     O_R   0.525340 0.338340 0.164530 -0.555720
O2    O     O_R   0.474660 0.661660 0.835470 -0.555720
O3    O     O_R   0.974660 0.838340 0.835470 -0.555720
O4    O     O_R   0.025340 0.161660 0.164530 -0.555720
O5    O     O_R   0.253520 0.352000 0.336710 -0.545713
O6    O     O_R   0.746480 0.648000 0.663290 -0.545713
O7    O     O_R   0.246480 0.852000 0.663290 -0.545713
O8    O     O_R   0.753520 0.148000 0.336710 -0.545713
O9    O     O_R   0.083330 0.168380 0.337300 -0.539146
O10   O     O_R   0.916670 0.831620 0.662700 -0.539146
O11   O     O_R   0.416670 0.668380 0.662700 -0.539146
O12   O     O_R   0.583330 0.331620 0.337300 -0.539146
C1    C     C_R   0.432407 0.368628 0.363708 0.667602
C2    C     C_R   0.567593 0.631372 0.636292 0.667602
C3    C     C_R   0.067593 0.868628 0.636292 0.667602
C4    C     C_R   0.932407 0.131372 0.363708 0.667602
O13   O     O_R   0.195840 0.349670 0.165140 -0.503739
O14   O     O_R   0.804160 0.650330 0.834860 -0.503739
O15   O     O_R   0.304160 0.849670 0.834860 -0.503739
O16   O     O_R   0.695840 0.150330 0.165140 -0.503739
C5    C     C_R   0.357568 0.373420 0.138902 0.676681
C6    C     C_R   0.642432 0.626580 0.861097 0.676681
C7    C     C_R   0.142432 0.873420 0.861097 0.676681
C8    C     C_R   0.857568 0.126580 0.138902 0.676681
O17   O     O_3   0.387830 0.193120 0.250910 -0.372191
O18   O     O_3   0.612170 0.806880 0.749090 -0.372191
O19   O     O_3   0.112170 0.693120 0.749090 -0.372191
O20   O     O_3   0.887830 0.306880 0.250910 -0.372191
V1    V     V_3+5 0.113010 0.264540 0.250910 1.495200
V2    V     V_3+5 0.886990 0.735460 0.749090 1.495200
V3    V     V_3+5 0.386990 0.764540 0.749090 1.495199
V4    V     V_3+5 0.613010 0.235460 0.250910 1.495199
H1    H     H_    0.767432 0.809446 0.267006 0.158915
H2    H     H_    0.232568 0.190554 0.732994 0.158915
H3    H     H_    0.732557 0.309445 0.732996 0.158915
H4    H     H_    0.267443 0.690555 0.267004 0.158915
C9    C     C_R   0.078203 0.195254 0.527410 -0.147506
C10   C     C_R   0.921797 0.804746 0.472590 -0.147506
C11   C     C_R   0.421800 0.695254 0.472589 -0.147506
C12   C     C_R   0.578199 0.304746 0.527411 -0.147506
C13   C     C_R   0.147851 0.227897 0.606078 -0.119672
C14   C     C_R   0.852149 0.772103 0.393922 -0.119672
C15   C     C_R   0.352155 0.727897 0.393921 -0.119673
C16   C     C_R   0.647845 0.272103 0.606079 -0.119673
C17   C     C_R   0.179365 0.164826 0.671873 -0.103912
C18   C     C_R   0.820635 0.835173 0.328126 -0.103912
C19   C     C_R   0.320644 0.664827 0.328126 -0.103913
C20   C     C_R   0.679356 0.335173 0.671874 -0.103913
C21   C     C_R   0.141440 0.068691 0.659432 -0.129240
C22   C     C_R   0.858560 0.931309 0.340568 -0.129240
C23   C     C_R   0.358567 0.568692 0.340567 -0.129238
C24   C     C_R   0.641433 0.431308 0.659433 -0.129238
C25   C     C_R   0.072289 0.033384 0.579970 0.051804
C26   C     C_R   0.927711 0.966616 0.420030 0.051804
C27   C     C_R   0.427714 0.533384 0.420030 0.051804
C28   C     C_R   0.572286 0.466616 0.579970 0.051804
C29   C     C_R   0.040066 0.097761 0.512747 0.057046
C30   C     C_R   0.959934 0.902239 0.487253 0.057046
C31   C     C_R   0.459936 0.597761 0.487253 0.057045
C32   C     C_R   0.540064 0.402239 0.512747 0.057045
C33   C     C_R   0.032123 0.935881 0.566990 -0.166767
C34   C     C_R   0.967877 0.064119 0.433009 -0.166767
C35   C     C_R   0.467878 0.435881 0.433009 -0.166766
C36   C     C_R   0.532122 0.564119 0.566990 -0.166766
H5    H     H_    0.053652 0.247481 0.478629 0.117395
H6    H     H_    0.946348 0.752519 0.521371 0.117395
H7    H     H_    0.446349 0.747480 0.521371 0.117395
H8    H     H_    0.553651 0.252520 0.478629 0.117395
H9    H     H_    0.176634 0.302602 0.616073 0.137643
H10   H     H_    0.823366 0.697398 0.383927 0.137643
H11   H     H_    0.323373 0.802602 0.383926 0.137643
H12   H     H_    0.676627 0.197398 0.616074 0.137643
H13   H     H_    0.165898 0.022708 0.712858 0.127547
H14   H     H_    0.834102 0.977291 0.287142 0.127547
H15   H     H_    0.334111 0.522709 0.287141 0.127545
H16   H     H_    0.665889 0.477291 0.712859 0.127545
H17   H     H_    0.102932 0.092942 0.034819 0.181321
H18   H     H_    0.897068 0.907057 0.965181 0.181321
H19   H     H_    0.397067 0.592942 0.965180 0.181321
H20   H     H_    0.602933 0.407058 0.034820 0.181321
C37   C     C_2   0.146320 0.950985 0.922856 0.234470
C38   C     C_2   0.853680 0.049015 0.077144 0.234470
C39   C     C_2   0.353680 0.450985 0.077144 0.234470
C40   C     C_2   0.646320 0.549015 0.922856 0.234470
C41   C     C_2   0.006317 0.960311 0.970363 -0.123439
C42   C     C_2   0.993683 0.039689 0.029637 -0.123439
C43   C     C_2   0.493683 0.460311 0.029637 -0.123439
C44   C     C_2   0.506317 0.539689 0.970363 -0.123439
Cl1   Cl    Cl    0.672069 0.964796 0.074067 -0.598579
Cl2   Cl    Cl    0.327931 0.035203 0.925933 -0.598578
Cl3   Cl    Cl    0.827931 0.464797 0.925933 -0.598577
Cl4   Cl    Cl    0.172069 0.535203 0.074067 -0.598578

loop_
_geom_bond_atom_site_label_1
_geom_bond_atom_site_label_2
_ccdc_geom_bond_type
C39   C43   D    
C43   C44   S    
O1    C5    A    
C12   C32   A    
C27   C31   A    
O13   V1    S    
O3    C7    A    
O15   V3    S    
C29   C34   A    
C41   C42   S    
C39   Cl4   S    
C31   C36   A    
C22   C26   A    
C38   Cl1   S    
C32   C35   A    
O20   V1    S    
O9    C4    A    
C23   H15   S    
C10   C14   A    
H20   C43   S    
O10   C3    A    
C22   H14   S    
C26   C30   A    
O4    C8    A    
O11   C2    A    
C14   H10   S    
H4    C19   S    
C14   C18   A    
C8    C38   S    
C10   C30   A    
C25   C33   A    
C10   H6    S    
C27   C35   A    
O2    C6    A    
C28   C36   A    
O14   V2    S    
C40   Cl3   S    
O5    C1    A    
O4    V1    S    
O9    V1    S    
C30   C33   A    
O7    C3    A    
O11   V3    S    
O18   V3    S    
O8    C4    A    
O12   V4    S    
O19   V2    S    
H1    C18   S    
C4    C34   S    
H3    C20   S    
H19   C44   S    
O5    V1    S    
O7    V3    S    
O8    V4    S    
C5    C39   S    
C25   C29   A    
C19   C23   A    
C26   C34   A    
C38   C42   D    
O1    V4    S    
O13   C5    A    
C28   C32   A    
C9    H5    S    
O2    V3    S    
C6    C40   S    
O3    V2    S    
O15   C7    A    
O6    C2    A    
O10   V2    S    
C1    C35   S    
C17   C21   A    
C11   C31   A    
C3    C33   S    
H2    C17   S    
C2    C36   S    
H18   C41   S    
O6    V2    S    
H17   C42   S    
C21   H13   S    
C37   Cl2   S    
C13   H9    S    
O16   V4    S    
C15   H11   S    
C7    C37   S    
O14   C6    A    
C11   H7    S    
C40   C44   D    
C24   H16   S    
C11   C15   A    
C18   C22   A    
O17   V4    S    
C21   C25   A    
C16   H12   S    
C23   C27   A    
C9    C13   A    
C37   C41   D    
C16   C20   A    
C12   C16   A    
O12   C1    A    
C12   H8    S    
C13   C17   A    
C20   C24   A    
C15   C19   A    
O16   C8    A    
C9    C29   A    
C24   C28   A    
