data_mof_unit_50275.cif
_audit_creation_date              2013-03-05T16:01:05-0500
_audit_creation_method            fapswitch 2.2
_symmetry_space_group_name_H-M    P1
_symmetry_Int_Tables_number       1
_space_group_crystal_system       triclinic
_cell_length_a                    8.317723
_cell_length_b                    12.676267
_cell_length_c                    18.689336
_cell_angle_alpha                 98.888919
_cell_angle_beta                  91.604015
_cell_angle_gamma                 98.275673
_cell_volume                      1924.07573106

loop_
_atom_site_label
_atom_site_type_symbol
_atom_site_description
_atom_site_fract_x
_atom_site_fract_y
_atom_site_fract_z
_atom_type_partial_charge
P1    P     P_3+3 0.041040 0.394770 0.336330 0.457974
O1    O     O_2   0.873090 0.425890 0.325140 -0.396186
O2    O     O_3   0.122420 0.434370 0.414380 -0.377445
O3    O     O_3   0.659500 0.627100 0.368810 -0.361808
O4    O     O_2   0.762617 0.548055 0.241175 -0.431646
O5    O     O_3   0.018834 0.254441 0.316519 -0.591922
O6    O     O_3   0.675986 0.739965 0.252061 -0.514649
H1    H     H_    0.618785 0.858862 0.331419 0.115443
C1    C     C_3   0.512061 0.871549 0.226919 -0.970789
H2    H     H_    0.427701 0.926029 0.251035 0.254816
H3    H     H_    0.620020 0.920910 0.209152 0.268106
P2    P     P_3+3 0.672880 0.754030 0.556100 0.457881
P3    P     P_3+3 0.137989 0.821666 0.398067 0.459812
O7    O     O_2   0.848200 0.768190 0.534530 -0.375655
O8    O     O_3   0.081160 0.685950 0.404810 -0.402957
O9    O     O_2   0.004046 0.883583 0.432197 -0.368075
O10   O     O_3   0.693752 0.797620 0.649679 -0.569748
O11   O     O_3   0.135249 0.838225 0.306594 -0.524928
C2    C     C_3   0.083053 0.737998 0.263206 0.570329
H4    H     H_    0.968366 0.699585 0.282238 0.189094
H5    H     H_    0.176940 0.684761 0.264902 -0.002472
C3    C     C_3   0.052014 0.753134 0.185017 -0.944003
H6    H     H_    0.000782 0.674471 0.151986 0.221323
H7    H     H_    0.963122 0.809794 0.181844 0.294931
C4    C     C_3   0.275500 0.786893 0.625555 0.402751
H8    H     H_    0.400996 0.811435 0.649037 0.084544
H9    H     H_    0.276814 0.727994 0.575185 0.105281
C5    C     C_3   0.211397 0.886274 0.606756 -0.919208
H10   H     H_    0.151187 0.926731 0.653271 0.288232
H11   H     H_    0.311911 0.944058 0.590931 0.221730
H12   H     H_    0.121568 0.862789 0.560621 0.277806
Ba1   Ba    Ba6+2 0.852780 0.548340 0.465070 1.561292
C6    C     C_3   0.905842 0.205601 0.359462 0.298003
H13   H     H_    0.823422 0.260301 0.384218 0.115000
H14   H     H_    0.973126 0.176936 0.403022 0.082207
C7    C     C_3   0.804283 0.109799 0.311596 -0.691137
H15   H     H_    0.714040 0.067930 0.344284 0.200469
H16   H     H_    0.738070 0.138429 0.267724 0.198009
C8    C     C_3   0.733012 0.715090 0.685351 0.234678
H17   H     H_    0.840083 0.683227 0.661551 0.132741
H18   H     H_    0.628239 0.648976 0.681319 0.102077
C9    C     C_3   0.776092 0.761967 0.765172 -0.690690
H19   H     H_    0.890909 0.820063 0.769151 0.253745
H20   H     H_    0.795977 0.696518 0.795944 0.128033
P4    P     P_3+3 0.148670 0.605320 0.663680 0.466690
O12   O     O_2   0.316610 0.574140 0.674900 -0.396218
O13   O     O_3   0.067290 0.565720 0.585630 -0.377522
O14   O     O_3   0.530210 0.372990 0.631200 -0.364187
O15   O     O_3   0.180338 0.746467 0.678559 -0.574401
P5    P     P_3+3 0.067174 0.172313 0.589500 0.521026
O16   O     O_3   0.611340 0.366290 0.463630 -0.393726
O17   O     O_3   0.108550 0.314140 0.595200 -0.356978
O18   O     O_2   0.206862 0.122099 0.551283 -0.411005
O19   O     O_3   0.076127 0.133011 0.675519 -0.542888
Ba2   Ba    Ba6+2 0.337060 0.451750 0.534940 1.578968
P6    P     P_3+3 0.630340 0.610809 0.275026 0.422967
C10   C     C_3   0.561885 0.804377 0.282229 0.509761
H21   H     H_    0.448809 0.758378 0.298836 0.011459
H22   H     H_    0.450693 0.817441 0.178556 0.250282
O20   O     O_3   0.578370 0.633800 0.536380 -0.400058
C11   C     C_3   0.457020 0.283746 0.313007 0.422887
H23   H     H_    0.349608 0.314348 0.337480 0.119176
H24   H     H_    0.563461 0.348959 0.320947 0.116329
C12   C     C_3   0.419349 0.247571 0.232003 -1.004228
H25   H     H_    0.309257 0.185210 0.222817 0.276504
H26   H     H_    0.397243 0.316830 0.205462 0.223285
H27   H     H_    0.523482 0.213216 0.206654 0.251418
P7    P     P_3+3 0.517911 0.231417 0.437691 0.418599
O21   O     O_2   0.341510 0.231850 0.465510 -0.348221
O22   O     O_3   0.491284 0.194971 0.343534 -0.589913
H28   H     H_    0.166804 0.785120 0.161932 0.239339
C13   C     C_3   0.118343 0.221947 0.731062 0.214390
H29   H     H_    0.238664 0.263676 0.721595 0.125182
H30   H     H_    0.034850 0.282413 0.731576 0.156038
C14   C     C_3   0.119310 0.180904 0.805101 0.323809
H31   H     H_    0.152765 0.098489 0.797451 0.078198
P8    P     P_3+3 0.552321 0.392405 0.726240 0.480661
C15   C     C_3   0.532195 0.180276 0.702726 0.838307
O23   O     O_2   0.414860 0.453416 0.756640 -0.402836
O24   O     O_3   0.512140 0.267098 0.757203 -0.558741
H32   H     H_    0.467747 0.185092 0.650680 0.035389
H33   H     H_    0.493731 0.073632 0.784250 0.315759
C16   C     C_3   0.457929 0.074474 0.726655 -0.938763
H34   H     H_    0.497026 0.003942 0.692580 0.233577
H35   H     H_    0.325471 0.064041 0.719188 0.217504
C17   C     C_R   0.984666 0.464128 0.050942 0.004368
C18   C     C_R   0.884261 0.411004 0.097962 0.124665
C19   C     C_R   0.720880 0.371904 0.076138 -0.175945
C20   C     C_R   0.658281 0.384312 0.008167 -0.114871
C21   C     C_R   0.758906 0.433238 0.959708 0.117569
C22   C     C_R   0.922623 0.473768 0.981132 0.032601
C23   C     C_R   0.699763 0.438053 0.889337 -0.107114
C24   C     C_R   0.804536 0.476152 0.837579 -0.041466
C25   C     C_R   0.967681 0.521491 0.859910 0.027772
C26   C     C_R   0.024986 0.521697 0.932339 0.039522
C27   C     C_R   0.754145 0.464658 0.763376 0.241170
C28   C     C_R   0.865026 0.497984 0.713405 -0.452900
C29   C     C_R   0.022740 0.549866 0.734881 0.234208
C30   C     C_R   0.075238 0.563265 0.809531 -0.034965
C31   C     C_R   0.147505 0.505790 0.073176 -0.007811
C32   C     C_R   0.207796 0.499903 0.144126 -0.001369
C33   C     C_R   0.104554 0.450337 0.192886 -0.067154
C34   C     C_R   0.947072 0.399510 0.166557 -0.122578
H36   H     H_    0.640796 0.332658 0.111995 0.137325
H37   H     H_    0.531557 0.353848 0.993052 0.191653
H38   H     H_    0.825872 0.485854 0.656633 0.184535
H39   H     H_    0.573480 0.406802 0.874657 0.213847
H40   H     H_    0.868984 0.353724 0.199599 0.160702
C35   C     C_R   0.233081 0.613752 0.835297 -0.123253
C36   C     C_R   0.291415 0.610535 0.906086 0.129816
C37   C     C_R   0.187785 0.563664 0.954715 0.058187
C38   C     C_R   0.248901 0.555760 0.024974 0.037350
C39   C     C_R   0.454675 0.649313 0.928046 -0.155830
C40   C     C_R   0.514675 0.642459 0.997461 -0.189959
C41   C     C_R   0.412733 0.595926 0.046318 0.106614
C42   C     C_R   0.370869 0.544735 0.166332 -0.013756
C43   C     C_R   0.472819 0.589096 0.115964 -0.241274
C44   C     C_R   0.425700 0.546417 0.238874 0.185064
C45   C     C_R   0.319391 0.506777 0.288105 -0.545060
C46   C     C_R   0.161608 0.456253 0.266517 0.280866
H41   H     H_    0.314883 0.652535 0.800223 0.142064
H42   H     H_    0.537427 0.682422 0.890919 0.127406
H43   H     H_    0.641625 0.672535 0.012643 0.143156
H44   H     H_    0.599559 0.619720 0.130240 0.190648
H45   H     H_    0.362356 0.512597 0.343984 0.178060
C47   C     C_R   0.774738 0.177541 0.513489 -0.451547
C48   C     C_R   0.433135 0.807110 0.468143 -0.516674
C49   C     C_R   0.403556 0.983894 0.442680 -0.191639
C50   C     C_R   0.340717 0.875667 0.440174 0.208968
C51   C     C_R   0.581781 0.847472 0.506156 0.296825
C52   C     C_R   0.648563 0.958328 0.509603 -0.084307
C53   C     C_R   0.557160 0.026881 0.477033 -0.078236
C54   C     C_R   0.621014 0.137147 0.480761 0.216239
C55   C     C_R   0.868774 0.111083 0.542597 0.341430
C56   C     C_R   0.803587 0.003019 0.543380 -0.121876
H46   H     H_    0.330179 0.033065 0.417588 0.195522
H47   H     H_    0.874923 0.956555 0.571636 0.187800
H48   H     H_    0.823133 0.262066 0.515918 0.176305
H49   H     H_    0.384827 0.722232 0.463131 0.175092
C57   C     C_2   0.910183 0.032467 0.277821 0.660783
H50   H     H_    0.000388 0.056365 0.240229 0.046291
O25   O     O_2   0.894310 0.941484 0.292234 -0.539706
C58   C     C_2   0.644025 0.818923 0.799089 0.754871
H51   H     H_    0.523086 0.806535 0.772983 -0.013342
O26   O     O_2   0.670366 0.876997 0.857913 -0.532849
N1    N     N_R   0.238256 0.250415 0.857102 0.227873
O27   O     O_R   0.347596 0.209035 0.890244 -0.388962
O28   O     O_R   0.234093 0.353439 0.871814 -0.416821
N2    N     N_R   0.958671 0.173320 0.835166 0.265581
O29   O     O_R   0.888250 0.081768 0.850688 -0.308463
O30   O     O_R   0.888827 0.258608 0.850620 -0.375053
N3    N     N_R   0.704096 0.179164 0.691364 0.213360
O31   O     O_R   0.785903 0.257678 0.664689 -0.488001
O32   O     O_R   0.773291 0.096802 0.702057 -0.384128

loop_
_geom_bond_atom_site_label_1
_geom_bond_atom_site_label_2
_geom_bond_distance
_ccdc_geom_bond_type
C11   O22   1.398120 S    
O14   Ba2   2.769362 S    
C18   C19   1.404064 A    
C32   C33   1.424105 A    
P4    Ba2   3.416998 S    
O4    P6    1.542389 D    
C2    H4    1.101092 S    
C49   C50   1.389203 A    
C40   C41   1.402316 A    
C21   C22   1.408249 A    
C15   N3    1.453129 S    
O8    Ba1   2.773573 S    
C8    H18   1.110895 S    
P4    O12   1.523028 D    
C4    C5    1.521333 S    
C5    H10   1.109101 S    
P5    O19   1.757764 S    
P2    C51   1.846335 S    
P3    O11   1.754230 S    
C7    H15   1.108838 S    
C2    H5    1.105988 S    
C43   H44   1.080565 S    
C57   O25   1.214214 D    
O11   C2    1.401185 S    
C52   C56   1.419760 A    
C17   C22   1.418878 A    
N2    O30   1.297479 A    
C15   O24   1.411300 S    
C58   H51   1.085358 S    
C30   C35   1.411616 A    
C6    C7    1.521610 S    
C42   C43   1.411542 A    
O1    Ba1   2.850065 S    
P1    O1    1.522708 D    
O10   C8    1.395439 S    
C11   H24   1.110524 S    
C36   C37   1.409004 A    
C23   C24   1.413802 A    
C44   C45   1.393370 A    
O2    Ba2   2.796589 S    
C15   C16   1.530571 S    
C47   H48   1.082547 S    
C39   H42   1.079336 S    
C37   C38   1.417963 A    
C47   C54   1.393624 A    
C53   C54   1.412366 A    
C41   C43   1.400859 A    
O12   Ba2   2.850412 S    
P5    O17   1.767103 S    
C34   H40   1.079248 S    
C17   C31   1.407434 A    
C1    H2    1.110606 S    
Ba1   Ba2   4.587963 S    
O16   Ba2   2.930865 S    
C11   H23   1.107121 S    
O17   Ba2   2.774230 S    
P8    O23   1.543804 D    
C56   H47   1.075663 S    
Ba2   O20   2.828303 S    
P2    Ba1   3.439000 S    
C33   C34   1.412818 A    
C9    H20   1.108174 S    
O6    P6    1.748188 S    
C13   C14   1.551957 S    
C49   C53   1.409616 A    
C19   H36   1.083012 S    
C28   C29   1.398240 A    
C8    C9    1.530297 S    
N1    O28   1.298046 A    
P4    O13   1.567991 S    
C14   N1    1.459559 S    
P5    O18   1.544075 D    
N1    O27   1.300822 A    
P1    O5    1.741708 S    
C12   H27   1.110017 S    
C2    C3    1.522714 S    
C57   H50   1.085444 S    
C13   H30   1.105084 S    
P5    C55   1.853144 S    
C8    H17   1.106507 S    
C17   C18   1.408991 A    
P7    O21   1.570772 D    
C4    H8    1.103478 S    
H33   C16   1.110846 S    
P1    Ba1   3.416392 S    
P1    O2    1.567992 S    
P1    C46   1.864952 S    
C12   H26   1.107512 S    
O14   P8    1.755852 S    
P2    O10   1.746705 S    
C11   C12   1.522465 S    
C14   H31   1.108629 S    
C48   C50   1.389102 A    
Ba1   O16   2.828944 S    
H1    C10   1.109731 S    
C1    H3    1.107833 S    
C48   H49   1.081735 S    
C23   H39   1.079814 S    
C21   C23   1.404530 A    
C16   H34   1.109068 S    
P4    O15   1.747713 S    
C27   C28   1.399748 A    
C6    H13   1.104669 S    
O2    Ba1   2.939991 S    
C24   C25   1.419710 A    
O3    Ba1   2.770024 S    
N3    O31   1.295945 A    
C7    C57   1.491230 S    
C36   C39   1.402999 A    
C40   H43   1.083869 S    
Ba2   O21   2.893084 S    
C18   C34   1.407059 A    
C28   H38   1.082265 S    
C45   H45   1.082359 S    
C16   H35   1.092963 S    
N3    O32   1.300862 A    
C31   C38   1.410370 A    
C24   C27   1.416879 A    
P3    O8    1.742198 S    
Ba1   O13   2.795935 S    
C3    H7    1.108899 S    
C9    H19   1.112005 S    
Ba1   O20   2.931778 S    
C52   C53   1.425300 A    
C3    H28   1.108084 S    
C33   C46   1.430323 A    
O13   Ba2   2.940902 S    
C39   C40   1.396681 A    
P8    O24   1.763998 S    
C58   O26   1.220053 D    
P7    C54   1.834407 S    
P6    C44   1.839915 S    
C5    H12   1.100408 S    
O7    Ba1   2.892861 S    
C13   H29   1.095047 S    
C45   C46   1.394240 A    
C55   C56   1.401246 A    
C4    H9    1.108818 S    
P8    C27   1.853201 S    
O5    C6    1.392473 S    
P4    C29   1.875417 S    
C12   H25   1.110759 S    
C49   H46   1.079243 S    
C51   C52   1.425728 A    
P2    O7    1.516964 D    
C48   C51   1.396974 A    
C5    H11   1.107911 S    
C26   C37   1.408438 A    
C35   C36   1.404940 A    
C15   H32   1.111688 S    
C35   H41   1.078242 S    
C10   H21   1.111450 S    
C25   C30   1.425534 A    
C14   N2    1.460145 S    
C7    H16   1.109755 S    
C31   C32   1.421092 A    
C6    H14   1.110175 S    
C42   C44   1.414278 A    
C1    C10   1.521494 S    
O16   P7    1.761322 S    
C25   C26   1.421976 A    
C4    O15   1.398012 S    
C22   C26   1.411177 A    
P2    O20   1.594328 S    
O19   C13   1.405637 S    
C19   C20   1.399251 A    
C47   C55   1.387424 A    
P7    O22   1.748323 S    
C29   C30   1.427347 A    
P3    O9    1.549492 D    
C20   H37   1.082777 S    
C9    C58   1.501876 S    
C32   C42   1.417290 A    
P3    C50   1.832542 S    
C3    H6    1.108915 S    
C1    H22   1.108958 S    
C20   C21   1.404265 A    
N2    O29   1.300755 A    
O6    C10   1.412814 S    
C38   C41   1.407977 A    
O3    P6    1.738847 S    
