data_mof_unit_10000.cif
_audit_creation_date              2012-12-11T19:42:23-0500
_audit_creation_method            fapswitch 2.2
_symmetry_space_group_name_H-M    P1
_symmetry_Int_Tables_number       1
_space_group_crystal_system       triclinic
_cell_length_a                    8.210619
_cell_length_b                    15.163118
_cell_length_c                    26.991096
_cell_angle_alpha                 99.052447
_cell_angle_beta                  92.386237
_cell_angle_gamma                 81.123988
_cell_volume                      3278.23970746

loop_
_atom_site_label
_atom_site_type_symbol
_atom_type_description
_atom_site_fract_x
_atom_site_fract_y
_atom_site_fract_z
_atom_type_partial_charge
Ba1   Ba    Ba6+2 0.860050 0.456430 0.522530 1.642186
Ba2   Ba    Ba6+2 0.329780 0.543490 0.477460 1.633515
C1    C     C_3   0.694956 0.138631 0.650259 -0.370421
C2    C     C_R   0.871166 0.569463 0.178401 0.576228
C3    C     C_2   0.732958 0.516132 0.270553 -0.080439
C4    C     C_3   0.192190 0.260347 0.655948 0.289920
C5    C     C_3   0.693148 0.513785 0.324841 -0.074328
C6    C     C_1   0.987080 0.480356 0.341502 0.080610
C7    C     C_2   0.025354 0.476507 0.293631 -0.130645
C8    C     C_2   0.892011 0.497238 0.255023 0.191824
C9    C     C_R   0.013220 0.496419 0.101227 -0.113959
C10   C     C_R   0.075709 0.421992 0.125758 -0.027384
C11   C     C_R   0.178730 0.348451 0.098528 0.164949
C12   C     C_3   0.686993 0.228901 0.631774 0.351062
C13   C     C_R   0.910332 0.570141 0.127923 -0.025312
C14   C     C_2   0.844702 0.523646 0.358253 -0.107945
C15   C     C_2   0.354351 0.480348 0.640502 -0.286035
C16   C     C_3   0.160109 0.245742 0.708857 -0.344155
C17   C     C_R   0.204556 0.427019 0.973059 0.031942
C18   C     C_R   0.019425 0.570889 0.973694 -0.000460
C19   C     C_R   0.131936 0.499821 0.947990 0.047831
C20   C     C_R   0.320688 0.359274 0.946534 -0.102454
C21   C     C_R   0.359710 0.361216 0.897144 -0.062422
C22   C     C_R   0.286513 0.431139 0.871566 -0.027924
C23   C     C_3   0.478046 0.684686 0.632085 0.302952
C24   C     C_R   0.172343 0.501306 0.896802 -0.092503
C25   C     C_R   0.099353 0.572476 0.870923 -0.034794
C26   C     C_R   0.148228 0.572162 0.820515 0.585691
C27   C     C_R   0.326283 0.431489 0.821150 0.575477
C28   C     C_3   0.197839 0.260092 0.409034 0.322079
C29   C     C_2   0.460012 0.486274 0.728960 -0.075816
C30   C     C_3   0.502670 0.489155 0.674949 -0.052974
C31   C     C_1   0.208201 0.519040 0.657025 0.040305
C32   C     C_2   0.167973 0.519131 0.704305 -0.106474
C33   C     C_2   0.300117 0.501198 0.743573 0.201560
C34   C     C_3   0.438049 0.721049 0.686740 -0.373715
C35   C     C_R   0.160089 0.424326 0.023593 0.002146
C36   C     C_R   0.052976 0.497427 0.049945 0.049307
C37   C     C_R   0.985129 0.571743 0.025484 0.029401
C38   C     C_R   0.218690 0.350319 0.048774 -0.129513
C39   C     C_R   0.849492 0.644189 0.103883 -0.057640
C40   C     C_3   0.165433 0.163694 0.391311 -0.144052
C41   C     C_R   0.942081 0.638486 0.946427 -0.087478
C42   C     C_R   0.979583 0.640775 0.896414 0.062165
C43   C     C_R   0.886287 0.645325 0.054171 -0.102177
C44   C     C_R   0.849453 0.833233 0.468778 -0.000301
C45   C     C_3   0.001148 0.743969 0.345182 0.288108
C46   C     C_R   0.785288 0.926448 0.473996 -0.031453
C47   C     C_R   0.649274 0.113195 0.483644 -0.041476
C48   C     C_R   0.791729 0.077887 0.455544 -0.028484
C49   C     C_R   0.860904 0.987128 0.452054 -0.101867
C50   C     C_R   0.580163 0.206347 0.488935 0.050312
C51   C     C_R   0.434068 0.235821 0.515246 -0.283879
C52   C     C_3   0.977627 0.734625 0.587910 0.306910
C53   C     C_R   0.618196 0.805888 0.514671 0.030359
C54   C     C_R   0.554531 0.898729 0.521665 -0.024414
C55   C     C_R   0.637428 0.959333 0.500807 0.015288
C56   C     C_3   0.032878 0.759896 0.292506 -0.365529
C57   C     C_R   0.410364 0.932612 0.548857 -0.051629
C58   C     C_R   0.344689 0.023359 0.553791 -0.097133
C59   C     C_R   0.421987 0.084407 0.532533 -0.027977
C60   C     C_R   0.571089 0.052704 0.506351 -0.001237
C61   C     C_R   0.351822 0.175857 0.535513 0.017817
C62   C     C_R   0.762628 0.774826 0.488242 -0.296947
C63   C     C_3   0.962180 0.836548 0.603260 -0.383848
C64   C     C_3   0.716176 0.326795 0.369469 0.300262
C65   C     C_3   0.752017 0.288113 0.314775 -0.373175
C66   C     C_3   0.508302 0.937205 0.373037 -0.510320
C67   C     C_3   0.492431 0.770549 0.361727 0.352420
C68   C     C_3   0.885236 0.716624 0.871643 -0.320878
C69   C     C_3   0.462540 0.856387 0.337492 -0.211226
C70   C     C_R   0.032043 0.423128 0.176577 0.609573
H1    H     H_    0.799574 0.226772 0.609995 0.109671
H2    H     H_    0.617396 0.385992 0.371591 0.032615
H3    H     H_    0.702984 0.083321 0.617746 0.074769
H4    H     H_    0.839437 0.224004 0.312470 0.131448
H5    H     H_    0.808661 0.335628 0.296206 0.073329
H6    H     H_    0.635899 0.274615 0.294441 0.125797
H7    H     H_    0.576673 0.238444 0.607112 -0.043265
H8    H     H_    0.582630 0.137888 0.671642 0.123191
H9    H     H_    0.365355 0.662845 0.613125 0.031595
H10   H     H_    0.578566 0.626256 0.630165 0.033080
H11   H     H_    0.344441 0.782769 0.689077 0.137864
H12   H     H_    0.236191 0.134823 0.356695 0.102198
H13   H     H_    0.387307 0.670305 0.704481 0.075455
H14   H     H_    0.551287 0.737937 0.707674 0.120823
H15   H     H_    0.805504 0.126946 0.674867 0.135288
H16   H     H_    0.216344 0.295049 0.736367 0.126791
H17   H     H_    0.053429 0.672915 0.348181 0.085520
H18   H     H_    0.866101 0.755024 0.350720 -0.010438
H19   H     H_    0.167442 0.748556 0.285684 0.142515
H20   H     H_    0.974229 0.712078 0.264754 0.136396
H21   H     H_    0.980664 0.830104 0.287592 0.119762
H22   H     H_    0.609950 0.767846 0.383514 -0.040730
H23   H     H_    0.032169 0.164815 0.381953 0.105675
H24   H     H_    0.390091 0.772050 0.387569 0.106245
H25   H     H_    0.537982 0.846973 0.303243 0.147277
H26   H     H_    0.142030 0.331460 0.652522 0.072842
H27   H     H_    0.330483 0.870279 0.326217 0.127999
H28   H     H_    0.152789 0.458915 0.282269 0.135889
H29   H     H_    0.559517 0.477760 0.756360 0.106591
H30   H     H_    0.449358 0.307015 0.878962 0.122440
H31   H     H_    0.386838 0.303743 0.962973 0.067373
H32   H     H_    0.294918 0.290808 0.030653 0.065609
H33   H     H_    0.632518 0.527240 0.243728 0.114740
H34   H     H_    0.855167 0.715966 0.577205 0.005257
H35   H     H_    0.772640 0.702608 0.123657 0.120209
H36   H     H_    0.847069 0.690311 0.963034 0.067555
H37   H     H_    0.327279 0.248430 0.650106 -0.014035
H38   H     H_    0.039611 0.532644 0.714875 0.132964
H39   H     H_    0.837487 0.706563 0.039830 0.065656
H40   H     H_    0.368048 0.444475 0.602412 0.073585
H41   H     H_    0.851810 0.119430 0.435564 0.112374
H42   H     H_    0.970735 0.964238 0.430257 0.100979
H43   H     H_    0.231739 0.044432 0.574335 0.107359
H44   H     H_    0.344284 0.889546 0.566160 0.100361
H45   H     H_    0.061330 0.714474 0.555563 0.072013
H46   H     H_    0.379272 0.305955 0.517787 0.067097
H47   H     H_    0.025295 0.255613 0.715256 0.145830
H48   H     H_    0.813994 0.704394 0.485882 0.069508
H49   H     H_    0.214589 0.176242 0.714511 0.117413
H50   H     H_    0.330463 0.259968 0.418187 -0.010621
H51   H     H_    0.123801 0.288665 0.442816 0.074568
H52   H     H_    0.340282 0.098111 0.432677 0.162360
H53   H     H_    0.179730 0.043932 0.416880 0.185941
H54   H     H_    0.467993 0.999833 0.356613 0.145252
H55   H     H_    0.643982 0.929252 0.378383 0.143367
H56   H     H_    0.872543 0.859153 0.634057 0.131097
H57   H     H_    0.448508 0.942569 0.409712 0.145910
H58   H     H_    0.373634 0.262734 0.119699 0.172855
H59   H     H_    0.206240 0.213789 0.099393 0.173401
H60   H     H_    0.818577 0.688359 0.837619 0.143330
H61   H     H_    0.791197 0.760432 0.896546 0.079831
H62   H     H_    0.971003 0.760791 0.861796 0.155928
H63   H     H_    0.786588 0.646160 0.400699 0.128121
H64   H     H_    0.774439 0.554729 0.430695 0.210952
H65   H     H_    0.919132 0.871793 0.571118 0.063504
H66   H     H_    0.084035 0.855437 0.616291 0.116793
H67   H     H_    0.830361 0.347071 0.387820 0.007120
N1    N     N_R   0.932404 0.496680 0.202501 -0.428108
N2    N     N_R   0.257587 0.501477 0.795943 -0.421862
N3    N     N_3   0.211945 0.107549 0.430032 -0.508708
N4    N     N_3   0.245013 0.270568 0.120987 -0.431997
N5    N     N_3   0.839562 0.581157 0.405552 -0.452917
O1    O     O_2   0.906480 0.548660 0.619050 -0.466735
O2    O     O_2   0.191810 0.822318 0.471123 -0.486922
O3    O     O_3   0.076657 0.804750 0.379893 -0.617822
O4    O     O_3   0.138490 0.548590 0.558870 -0.492979
O5    O     O_3   0.572560 0.389960 0.472890 -0.487102
O6    O     O_2   0.345660 0.723580 0.528500 -0.466193
O7    O     O_3   0.529853 0.753372 0.610431 -0.645616
O8    O     O_2   0.346580 0.563024 0.328933 -0.489208
O9    O     O_3   0.500011 0.696365 0.323285 -0.603762
O10   O     O_2   0.080643 0.357975 0.197543 -0.564774
O11   O     O_2   0.421734 0.368686 0.799546 -0.600195
O12   O     O_3   0.662936 0.260009 0.392012 -0.640272
O13   O     O_2   0.782910 0.634352 0.201013 -0.603756
O14   O     O_2   0.096376 0.635753 0.798733 -0.612169
O15   O     O_3   0.686300 0.382310 0.585700 -0.488790
O16   O     O_2   0.846494 0.428383 0.670623 -0.496389
O17   O     O_3   0.038558 0.693414 0.629010 -0.627875
O18   O     O_3   0.676076 0.298702 0.672941 -0.589805
O19   O     O_2   0.844040 0.276390 0.471470 -0.476055
O20   O     O_3   0.101510 0.335500 0.560330 -0.487089
O21   O     O_2   0.010717 0.176459 0.528535 -0.467539
O22   O     O_3   0.114030 0.200010 0.621690 -0.614150
O23   O     O_2   0.283210 0.451310 0.380920 -0.454034
O24   O     O_3   0.051220 0.451340 0.441120 -0.488937
O25   O     O_3   0.503410 0.617620 0.414290 -0.492408
O26   O     O_3   0.156398 0.307344 0.368806 -0.648615
O27   O     O_3   0.617150 0.609960 0.527100 -0.482674
O28   O     O_3   0.088210 0.664420 0.439670 -0.456273
P1    P     P_3+3 0.071950 0.575820 0.612140 0.993921
P2    P     P_3+3 0.664370 0.290050 0.457240 0.972341
P3    P     P_3+3 0.145068 0.220185 0.561006 0.946299
P4    P     P_3+3 0.117760 0.424110 0.387850 1.005219
P5    P     P_3+3 0.050570 0.781897 0.440389 0.934572
P6    P     P_3+3 0.678336 0.401677 0.651235 0.973685
P7    P     P_3+3 0.531088 0.723612 0.545165 0.938800
P8    P     P_3+3 0.509631 0.596057 0.348395 0.967301

loop_
_geom_bond_atom_site_label_1
_geom_bond_atom_site_label_2
_ccdc_geom_bond_type
O28   P5    S    
Ba2   O6    S    
C53   C54   A    
C4    O22   S    
C12   O18   S    
C66   H54   S    
Ba1   O1    S    
C65   H5    S    
C19   C24   A    
C67   H24   S    
C30   P6    S    
H59   N4    S    
C46   C55   A    
C52   C63   S    
C3    H33   S    
C69   H25   S    
O12   P2    S    
O22   P3    S    
C15   C31   D    
C29   H29   S    
C17   C19   A    
C56   H21   S    
C22   C24   A    
Ba1   Ba2   S    
C35   C38   A    
C36   C37   A    
C32   C33   S    
O23   P4    D    
C21   H30   S    
C2    N1    Am   
C34   H11   S    
Ba2   O4    S    
C64   H2    S    
C54   C55   A    
O20   P3    S    
C59   C61   A    
O5    P2    S    
C67   C69   S    
C22   C27   A    
C28   O26   S    
C11   C38   A    
C17   C35   A    
Ba2   P4    S    
C9    C13   A    
C25   C42   A    
C46   C49   A    
C64   H67   S    
C28   H50   S    
Ba1   O20   S    
C57   H44   S    
C40   N3    S    
C68   H61   S    
C21   C22   A    
C42   C68   S    
C1    H3    S    
C56   H19   S    
O25   P8    S    
Ba2   O27   S    
C37   C43   A    
C63   H65   S    
Ba2   O5    S    
C64   C65   S    
C10   C70   A    
O9    P8    S    
C27   N2    Am   
C57   C58   A    
C6    C14   D    
C23   H9    S    
C45   H17   S    
C44   P5    S    
O27   P7    S    
C66   H57   S    
C65   H6    S    
C8    N1    S    
C1    H8    S    
C26   O14   D    
C31   C32   D    
C45   O3    S    
C4    C16   S    
C44   C46   A    
Ba1   P2    S    
C49   H42   S    
C70   O10   D    
C15   C30   S    
C52   H34   S    
C1    H15   S    
C40   H23   S    
C4    H26   S    
C63   H56   S    
Ba1   O15   S    
C17   C20   A    
C40   H12   S    
C13   C39   A    
C67   H22   S    
C3    C5    S    
C18   C37   A    
C51   H46   S    
C6    C7    D    
O26   P4    S    
C16   H49   S    
Ba1   O24   S    
C34   H14   S    
Ba1   O4    S    
C69   H27   S    
Ba1   O27   S    
C16   H16   S    
C20   H31   S    
O2    P5    D    
C44   C62   A    
C58   C59   A    
O8    P8    D    
C9    C36   A    
C41   C42   A    
C12   H1    S    
C35   C36   A    
C38   H32   S    
O17   P1    S    
O3    P5    S    
Ba2   O24   S    
O7    P7    S    
C2    O13   D    
H53   N3    S    
C47   C50   A    
Ba1   P1    S    
C53   C62   A    
C68   H60   S    
C48   C49   A    
C24   C25   A    
C12   H7    S    
C18   C19   A    
Ba1   O5    S    
H58   N4    S    
C66   H55   S    
O16   P6    D    
C1    C12   S    
C33   N2    S    
C63   H66   S    
H63   N5    S    
O1    P1    D    
C7    H28   S    
C23   H10   S    
C32   H38   S    
C45   H18   S    
C29   C33   D    
C55   C60   A    
O15   P6    S    
C15   H40   S    
C50   P2    S    
C18   C41   A    
C31   P1    S    
C50   C51   A    
C7    C8    S    
O24   P4    S    
C5    C14   S    
C47   C60   A    
C39   H35   S    
C14   N5    S    
C23   C34   S    
C53   P7    S    
C29   C30   S    
H52   N3    S    
C9    C10   A    
C6    P4    S    
C61   P3    S    
C65   H4    S    
C34   H13   S    
O21   P3    D    
O4    P1    S    
C62   H48   S    
C54   C57   A    
C27   O11   D    
C23   O7    S    
C48   H41   S    
C2    C13   A    
C3    C8    D    
H64   N5    S    
C43   H39   S    
C45   C56   S    
C64   O12   S    
C51   C61   A    
C66   C69   S    
Ba2   O23   S    
C4    H37   S    
C5    P8    S    
C41   H36   S    
C11   N4    S    
C52   O17   S    
C59   C60   A    
C67   O9    S    
O18   P6    S    
Ba2   O25   S    
C70   N1    Am   
C10   C11   A    
Ba1   O19   S    
C47   C48   A    
C52   H45   S    
C25   C26   A    
C68   H62   S    
C28   H51   S    
C39   C43   A    
C20   C21   A    
C28   C40   S    
C58   H43   S    
C26   N2    Am   
O19   P2    D    
C56   H20   S    
C16   H47   S    
Ba2   O28   S    
O6    P7    D    
