data_mof_unit_33933.cif
_audit_creation_date              2012-12-11T20:21:43-0500
_audit_creation_method            fapswitch 2.2
_symmetry_space_group_name_H-M    P1
_symmetry_Int_Tables_number       1
_space_group_crystal_system       triclinic
_cell_length_a                    8.28389
_cell_length_b                    17.353059
_cell_length_c                    26.876098
_cell_angle_alpha                 99.004609
_cell_angle_beta                  92.829608
_cell_angle_gamma                 81.337799
_cell_volume                      3771.00511035

loop_
_atom_site_label
_atom_site_type_symbol
_atom_type_description
_atom_site_fract_x
_atom_site_fract_y
_atom_site_fract_z
_atom_type_partial_charge
Ba1   Ba    Ba6+2 0.860160 0.462360 0.521850 1.644757
Ba2   Ba    Ba6+2 0.329680 0.537570 0.478140 1.647980
C1    C     C_3   0.618196 0.204626 0.667434 -0.373000
C2    C     C_R   0.881295 0.568170 0.176812 0.574655
C3    C     C_2   0.741667 0.527938 0.269939 -0.122617
C4    C     C_3   0.158007 0.250668 0.647378 0.305941
C5    C     C_3   0.703131 0.526495 0.324236 -0.064865
C6    C     C_1   0.989075 0.487486 0.341499 0.041904
C7    C     C_2   0.027742 0.483803 0.293441 -0.113805
C8    C     C_2   0.898143 0.506115 0.254411 0.204728
C9    C     C_R   0.023967 0.503748 0.100608 -0.080422
C10   C     C_R   0.081586 0.439150 0.125726 -0.035249
C11   C     C_R   0.181922 0.374651 0.099805 -0.061592
C12   C     C_3   0.611897 0.278477 0.643060 0.373379
C13   C     C_R   0.922659 0.568408 0.126490 -0.022511
C14   C     C_2   0.851368 0.529011 0.358584 -0.284846
C15   C     C_2   0.357649 0.487928 0.640451 -0.260649
C16   C     C_3   0.084738 0.229977 0.693422 -0.363284
C17   C     C_R   0.205847 0.436465 0.972020 0.019926
C18   C     C_R   0.054637 0.570840 0.974673 0.020604
C19   C     C_R   0.150992 0.503655 0.948089 0.049676
C20   C     C_R   0.297939 0.370518 0.943265 -0.099472
C21   C     C_R   0.336373 0.370952 0.893406 -0.062885
C22   C     C_R   0.285397 0.437105 0.869653 -0.033622
C23   C     C_3   0.549100 0.677119 0.638557 0.472108
C24   C     C_R   0.192783 0.503707 0.896959 -0.078029
C25   C     C_R   0.141743 0.570395 0.873105 -0.032417
C26   C     C_R   0.183845 0.569812 0.822690 0.585585
C27   C     C_R   0.324069 0.437754 0.818972 0.588821
C28   C     C_3   0.221122 0.298437 0.412516 0.314472
C29   C     C_2   0.468727 0.492658 0.728678 -0.070718
C30   C     C_3   0.506889 0.496606 0.674337 -0.053542
C31   C     C_1   0.212661 0.518822 0.657966 0.058912
C32   C     C_2   0.176899 0.518546 0.705428 -0.096861
C33   C     C_2   0.311586 0.503880 0.743710 0.219695
C34   C     C_3   0.661570 0.690476 0.685185 -0.322573
C35   C     C_R   0.166552 0.437178 0.023430 0.019970
C36   C     C_R   0.066777 0.503633 0.049537 0.049283
C37   C     C_R   0.008842 0.569992 0.025143 0.020532
C38   C     C_R   0.223645 0.373588 0.050028 -0.099963
C39   C     C_R   0.863790 0.632513 0.101622 -0.062546
C40   C     C_3   0.252364 0.209231 0.398235 -0.371392
C41   C     C_R   0.007941 0.637100 0.949643 -0.101095
C42   C     C_R   0.050333 0.636686 0.900166 -0.064289
C43   C     C_R   0.905304 0.633366 0.052266 -0.103273
C44   C     C_2   0.452124 0.279357 0.517412 -0.280415
C45   C     C_3   0.041607 0.699487 0.344036 0.384900
C46   C     C_3   0.379328 0.228152 0.548527 -0.059890
C47   C     C_2   0.438610 0.140459 0.535761 0.152144
C48   C     C_2   0.564163 0.115765 0.503226 -0.007648
C49   C     C_2   0.636158 0.174598 0.479320 -0.152657
C50   C     C_1   0.575681 0.250399 0.487295 0.067852
C51   C     C_R   0.787231 0.860341 0.463733 -0.138426
C52   C     C_3   0.970385 0.699990 0.583684 0.291320
C53   C     C_R   0.849478 0.780559 0.460697 0.006844
C54   C     C_R   0.611997 0.757194 0.502229 0.072127
C55   C     C_R   0.546605 0.836785 0.504066 -0.084533
C56   C     C_3   0.055994 0.717858 0.290996 -0.377485
C57   C     C_R   0.632682 0.888605 0.484193 0.017893
C58   C     C_2   0.644621 0.032464 0.494115 -0.091876
C59   C     C_2   0.558313 0.971817 0.485958 -0.096278
C60   C     C_R   0.758834 0.728781 0.478122 -0.271390
C61   C     C_3   0.931218 0.789135 0.597715 -0.399118
C62   C     C_3   0.709381 0.355113 0.366625 0.305846
C63   C     C_3   0.734564 0.325213 0.310814 -0.368889
C64   C     C_3   0.310879 0.759094 0.681801 -0.185824
C65   C     C_3   0.503465 0.885370 0.361454 -0.293139
C66   C     C_3   0.238300 0.059514 0.557046 -0.212417
C67   C     C_3   0.538054 0.738558 0.340952 0.511864
C68   C     C_3   0.632002 0.741391 0.293895 -0.351453
C69   C     C_R   0.037531 0.440174 0.176227 0.593281
H1    H     H_    0.679238 0.262047 0.607258 0.058667
H2    H     H_    0.826900 0.369697 0.384007 0.018777
H3    H     H_    0.615696 0.408485 0.371086 0.045728
H4    H     H_    0.746527 0.181456 0.676761 0.119949
H5    H     H_    0.820236 0.268967 0.306046 0.137448
H6    H     H_    0.787336 0.368395 0.292695 0.077063
H7    H     H_    0.615944 0.315119 0.291718 0.125985
H8    H     H_    0.482390 0.302578 0.635846 -0.088091
H9    H     H_    0.566529 0.158307 0.641270 0.073623
H10   H     H_    0.588065 0.615591 0.620181 0.027774
H11   H     H_    0.650167 0.753987 0.701185 0.108265
H12   H     H_    0.341866 0.192644 0.367574 0.122257
H13   H     H_    0.631793 0.656343 0.714353 0.072221
H14   H     H_    0.790135 0.670522 0.675412 0.136228
H15   H     H_    0.547035 0.218319 0.702485 0.140776
H16   H     H_    0.167461 0.241118 0.726734 0.096139
H17   H     H_    0.115705 0.641499 0.346907 0.093889
H18   H     H_    0.911767 0.695878 0.350339 -0.114798
H19   H     H_    0.184856 0.717729 0.282025 0.150403
H20   H     H_    0.007086 0.672325 0.263349 0.118585
H21   H     H_    0.987372 0.776732 0.287162 0.112311
H22   H     H_    0.625142 0.727667 0.372838 -0.022024
H23   H     H_    0.301862 0.181386 0.431273 0.065274
H24   H     H_    0.710299 0.788542 0.300549 0.075944
H25   H     H_    0.546192 0.751534 0.261699 0.140007
H26   H     H_    0.164708 0.315127 0.653692 0.033171
H27   H     H_    0.711796 0.684727 0.284177 0.131994
H28   H     H_    0.153894 0.467160 0.282492 0.135455
H29   H     H_    0.229389 0.324169 0.118050 0.121211
H30   H     H_    0.406941 0.318622 0.873378 0.118478
H31   H     H_    0.341374 0.316641 0.957879 0.067689
H32   H     H_    0.302702 0.321767 0.033702 0.068321
H33   H     H_    0.642263 0.540655 0.243252 0.117574
H34   H     H_    0.136357 0.186774 0.385285 0.128286
H35   H     H_    0.939656 0.691323 0.967293 0.067783
H36   H     H_    0.282444 0.216795 0.643783 0.004003
H37   H     H_    0.010594 0.689167 0.883074 0.119523
H38   H     H_    0.050919 0.530356 0.717031 0.112850
H39   H     H_    0.851533 0.684779 0.036402 0.067860
H40   H     H_    0.848974 0.569788 0.393622 0.063055
H41   H     H_    0.369718 0.456697 0.602200 0.063818
H42   H     H_    0.426427 0.983706 0.482870 0.095413
H43   H     H_    0.739386 0.154164 0.454836 0.087327
H44   H     H_    0.857697 0.899334 0.449345 0.066044
H45   H     H_    0.858975 0.675473 0.569396 0.017277
H46   H     H_    0.777156 0.021742 0.495410 0.079267
H47   H     H_    0.965195 0.267027 0.701259 0.168579
H48   H     H_    0.433177 0.859157 0.523182 0.075641
H49   H     H_    0.413260 0.342477 0.525276 0.077575
H50   H     H_    0.809583 0.667457 0.477361 0.058633
H51   H     H_    0.068683 0.166755 0.687193 0.105113
H52   H     H_    0.338018 0.320178 0.423719 0.004085
H53   H     H_    0.137585 0.313275 0.444678 0.086839
H54   H     H_    0.310366 0.666600 0.622752 0.199928
H55   H     H_    0.181656 0.757172 0.689779 0.140713
H56   H     H_    0.062025 0.686712 0.553766 0.087602
H57   H     H_    0.315776 0.808234 0.660188 0.111602
H58   H     H_    0.375092 0.770403 0.718822 0.104662
H59   H     H_    0.321659 0.818265 0.335850 0.234823
H60   H     H_    0.426296 0.931944 0.386450 0.130551
H61   H     H_    0.508242 0.905469 0.324357 0.106159
H62   H     H_    0.628748 0.876744 0.377877 0.115006
H63   H     H_    0.568591 0.484888 0.755996 0.093026
H64   H     H_    0.784242 0.682946 0.120347 0.120123
H65   H     H_    0.484859 0.049845 0.580566 0.196374
H66   H     H_    0.258497 0.994067 0.552160 0.078266
H67   H     H_    0.841877 0.804182 0.628443 0.140194
H68   H     H_    0.177595 0.077791 0.522133 0.128920
H69   H     H_    0.156457 0.080541 0.589273 0.140553
H70   H     H_    0.878984 0.816459 0.564884 0.063816
H71   H     H_    0.044340 0.814245 0.610546 0.108299
N1    N     N_R   0.939623 0.504819 0.201760 -0.420877
N2    N     N_R   0.273538 0.503826 0.796062 -0.426474
N3    N     N_2   0.381332 0.684438 0.653392 -0.444258
N4    N     N_2   0.432225 0.813120 0.355317 -0.392064
N5    N     N_2   0.392367 0.089539 0.567999 -0.449083
O1    O     O_2   0.906370 0.542040 0.619810 -0.474582
O2    O     O_2   0.184241 0.780826 0.475243 -0.477033
O3    O     O_3   0.098875 0.758615 0.379192 -0.584239
O4    O     O_3   0.138370 0.541980 0.559630 -0.488922
O5    O     O_3   0.572820 0.404940 0.471170 -0.488100
O6    O     O_2   0.345130 0.693150 0.532000 -0.468479
O7    O     O_3   0.562857 0.732892 0.606646 -0.658342
O8    O     O_2   0.377112 0.543560 0.329990 -0.482575
O9    O     O_3   0.437825 0.679377 0.328582 -0.596864
O10   O     O_2   0.084421 0.382791 0.197076 -0.598305
O11   O     O_2   0.401167 0.379167 0.795082 -0.597142
O12   O     O_3   0.656205 0.295581 0.388267 -0.635234
O13   O     O_2   0.793806 0.625154 0.198474 -0.632167
O14   O     O_2   0.141732 0.628448 0.802603 -0.602748
O15   O     O_3   0.686580 0.398330 0.583860 -0.480896
O16   O     O_2   0.845859 0.444295 0.669321 -0.476479
O17   O     O_3   0.030163 0.668352 0.626849 -0.649713
O18   O     O_3   0.686037 0.333612 0.676304 -0.584276
O19   O     O_2   0.844570 0.306830 0.467970 -0.457866
O20   O     O_3   0.101900 0.357890 0.557750 -0.471012
O21   O     O_2   0.063400 0.218524 0.505525 -0.494532
O22   O     O_3   0.062236 0.229584 0.604124 -0.577276
O23   O     O_2   0.283330 0.457940 0.380160 -0.451399
O24   O     O_3   0.051340 0.457960 0.440360 -0.496161
O25   O     O_3   0.503130 0.601610 0.416130 -0.456085
O26   O     O_3   0.152133 0.331666 0.370807 -0.627552
O27   O     O_3   0.616890 0.595000 0.528820 -0.484129
O28   O     O_3   0.087820 0.642040 0.442240 -0.494683
P1    P     P_3+3 0.071770 0.565500 0.613330 0.979751
P2    P     P_3+3 0.664870 0.318630 0.453960 0.989923
P3    P     P_3+3 0.152370 0.256111 0.552990 0.958245
P4    P     P_3+3 0.117940 0.434440 0.386660 0.994501
P5    P     P_3+3 0.056624 0.742612 0.439543 0.968696
P6    P     P_3+3 0.679378 0.420007 0.650048 0.987681
P7    P     P_3+3 0.533486 0.695260 0.542495 0.943067
P8    P     P_3+3 0.515620 0.590709 0.350265 0.951761

loop_
_geom_bond_atom_site_label_1
_geom_bond_atom_site_label_2
_ccdc_geom_bond_type
C56   H21   S    
C19   C24   A    
Ba1   P1    S    
O16   P6    D    
C53   P5    S    
C65   H61   S    
C6    P4    S    
O27   P7    S    
C2    N1    Am   
C46   P3    S    
C51   C57   A    
C21   H30   S    
C24   C25   A    
O1    P1    D    
C63   H5    S    
O3    P5    S    
C17   C19   A    
C22   C24   A    
C32   C33   S    
C35   C38   A    
C67   H22   S    
C36   C37   A    
O8    P8    D    
C55   C57   A    
H59   N4    S    
C52   C61   S    
Ba1   O20   S    
C53   C60   A    
C44   C50   D    
C54   C55   A    
C47   N5    S    
Ba1   O5    S    
Ba1   Ba2   S    
O5    P2    S    
C31   P1    S    
C22   C27   A    
C64   N3    S    
C17   C35   A    
C50   P2    S    
C9    C13   A    
C25   C42   A    
C34   H11   S    
C6    C7    D    
C11   C38   A    
C52   H45   S    
C62   H2    S    
Ba1   O4    S    
C26   N2    Am   
C1    H4    S    
C56   H20   S    
C16   H47   S    
C28   O26   S    
C33   N2    S    
C37   C43   A    
C64   H58   S    
C42   H37   S    
C3    H33   S    
C6    C14   D    
C1    H15   S    
C23   H10   S    
C67   N4    S    
C45   H18   S    
O24   P4    S    
C66   H66   S    
C15   C31   D    
O12   P2    S    
C29   H63   S    
C4    C16   S    
C1    H9    S    
O9    P8    S    
C26   O14   D    
C48   C49   S    
C51   C53   A    
Ba2   O5    S    
C69   O10   D    
C44   C46   S    
Ba1   O27   S    
C57   C59   S    
C67   O9    S    
C63   H6    S    
C49   C50   D    
C49   H43   S    
C4    H26   S    
C30   P6    S    
C58   H46   S    
C17   C20   A    
C66   N5    S    
C13   C39   A    
O15   P6    S    
C3    C5    S    
C18   C37   A    
C43   H39   S    
C27   N2    Am   
Ba1   O24   S    
O2    P5    D    
C64   H55   S    
C58   C59   D    
C41   H35   S    
C9    C36   A    
C68   H25   S    
C41   C42   A    
C35   C36   A    
Ba2   O28   S    
C39   C43   A    
C29   C30   S    
C45   O3    S    
C21   C22   A    
O6    P7    D    
C65   N4    S    
C31   C32   D    
C61   H70   S    
C44   H49   S    
C4    H36   S    
O19   P2    D    
C12   H8    S    
C18   C19   A    
C12   O18   S    
C28   H52   S    
C56   H19   S    
O4    P1    S    
C27   O11   D    
C1    C12   S    
C16   H51   S    
C46   C47   S    
C10   C69   A    
C28   H53   S    
Ba1   O15   S    
Ba2   O6    S    
C59   H42   S    
C61   H67   S    
C54   C60   A    
C66   H69   S    
Ba2   P4    S    
C15   H41   S    
O22   P3    S    
C39   H64   S    
C18   C41   A    
C69   N1    Am   
C7    C8    S    
Ba2   O4    S    
C15   C30   S    
C5    C14   S    
C62   H3    S    
C63   H7    S    
C65   H62   S    
C23   O7    S    
C40   H23   S    
C12   H1    S    
C65   H60   S    
C40   H12   S    
C34   H13   S    
C55   H48   S    
Ba1   O1    S    
C9    C10   A    
O28   P5    S    
C34   H14   S    
C52   H56   S    
Ba2   O24   S    
C16   H16   S    
C20   H31   S    
C5    P8    S    
O23   P4    D    
O18   P6    S    
C45   H17   S    
C2    C13   A    
C68   H24   S    
C48   C58   S    
C3    C8    D    
Ba2   O23   S    
H54   N3    S    
C62   C63   S    
C45   C56   S    
O25   P8    S    
C2    O13   D    
C54   P7    S    
Ba1   O19   S    
C11   H29   S    
O21   P3    D    
O7    P7    S    
C62   O12   S    
C61   H71   S    
C64   H57   S    
O17   P1    S    
C29   C33   D    
C8    N1    S    
C67   C68   S    
C40   H34   S    
H65   N5    S    
C23   C34   S    
C68   H27   S    
O20   P3    S    
C10   C11   A    
C7    H28   S    
C47   C48   D    
C25   C26   A    
C32   H38   S    
O26   P4    S    
C20   C21   A    
C28   C40   S    
C66   H68   S    
C23   N3    S    
C52   O17   S    
Ba1   P2    S    
C60   H50   S    
Ba2   O27   S    
C51   H44   S    
C14   H40   S    
Ba2   O25   S    
C38   H32   S    
C4    O22   S    
