data_mof_unit_46555.cif
_audit_creation_date              2012-12-10T17:40:59-0500
_audit_creation_method            fapswitch 2.2
_symmetry_space_group_name_H-M    P1
_symmetry_Int_Tables_number       1
_space_group_crystal_system       triclinic
_cell_length_a                    14.687737
_cell_length_b                    15.633348
_cell_length_c                    9.917663
_cell_angle_alpha                 89.818652
_cell_angle_beta                  86.859087
_cell_angle_gamma                 89.864891
_cell_volume                      2273.84117867

loop_
_atom_site_label
_atom_site_type_symbol
_atom_type_description
_atom_site_fract_x
_atom_site_fract_y
_atom_site_fract_z
_atom_type_partial_charge
C1    C     C_R   0.385494 0.874820 0.502549 0.851964
C2    C     C_R   0.723616 0.219416 0.374032 -0.060874
C3    C     C_R   0.212398 0.272303 0.374617 -0.065755
C4    C     C_R   0.223617 0.719416 0.374032 -0.060875
C5    C     C_R   0.663502 0.794316 0.494262 -0.222639
C6    C     C_R   0.669646 0.201806 0.492457 -0.220006
C7    C     C_R   0.163501 0.294315 0.494263 -0.222640
C8    C     C_R   0.169646 0.701805 0.492457 -0.220006
C9    C     C_R   0.333010 0.001887 0.152423 -0.125991
C10   C     C_R   0.833010 0.501888 0.152423 -0.125991
C11   C     C_R   0.251259 0.001346 0.087841 -0.231831
C12   C     C_R   0.384472 0.124821 0.502189 0.849928
C13   C     C_R   0.751259 0.501347 0.087841 -0.231831
C14   C     C_R   0.251927 0.000509 0.948155 -0.200021
C15   C     C_R   0.751927 0.500510 0.948155 -0.200021
C16   C     C_R   0.334357 0.000656 0.872119 -0.170137
C17   C     C_R   0.834357 0.500657 0.872119 -0.170136
C18   C     C_R   0.418173 0.001179 0.934112 0.134183
C19   C     C_R   0.918173 0.501180 0.934112 0.134183
C20   C     C_R   0.417915 0.001777 0.078647 0.166734
C21   C     C_R   0.917915 0.501778 0.078647 0.166733
C22   C     C_R   0.579672 0.994159 0.062042 -0.007488
C23   C     C_R   0.885494 0.374820 0.502549 0.851963
C24   C     C_R   0.079672 0.494158 0.062042 -0.007485
C25   C     C_R   0.612487 0.126131 0.497714 0.910635
C26   C     C_R   0.610336 0.872709 0.498370 0.905192
C27   C     C_R   0.112488 0.626131 0.497714 0.910634
C28   C     C_R   0.110336 0.372709 0.498370 0.905191
C29   C     C_R   0.577903 0.996825 0.919335 -0.124561
C30   C     C_R   0.077903 0.496824 0.919335 -0.124561
C31   C     C_R   0.294011 0.196647 0.759444 -0.156892
C32   C     C_R   0.296278 0.801835 0.759534 -0.158525
C33   C     C_R   0.794013 0.696648 0.759444 -0.156890
C34   C     C_R   0.884472 0.624821 0.502190 0.849929
C35   C     C_R   0.796278 0.301835 0.759534 -0.158525
C36   C     C_R   0.231075 0.199866 0.870032 -0.101790
C37   C     C_R   0.233246 0.797473 0.869709 -0.129840
C38   C     C_R   0.731077 0.699867 0.870032 -0.101794
C39   C     C_R   0.733245 0.297473 0.869709 -0.129838
C40   C     C_R   0.640797 0.721521 0.851092 -0.125786
C41   C     C_R   0.643647 0.274313 0.850452 -0.132721
C42   C     C_R   0.140795 0.221520 0.851092 -0.125784
C43   C     C_R   0.143647 0.774313 0.850452 -0.132722
C44   C     C_R   0.616646 0.751112 0.725905 -0.140161
C45   C     C_R   0.294968 0.230422 0.381097 -0.068913
C46   C     C_R   0.619946 0.246518 0.724010 -0.138618
C47   C     C_R   0.116645 0.251112 0.725906 -0.140160
C48   C     C_R   0.119946 0.746518 0.724009 -0.138617
C49   C     C_R   0.681717 0.753654 0.615820 0.098596
C50   C     C_R   0.685669 0.243943 0.614145 0.089667
C51   C     C_R   0.181716 0.253654 0.615820 0.098597
C52   C     C_R   0.185669 0.743942 0.614145 0.089667
C53   C     C_R   0.266662 0.214416 0.627231 0.083754
C54   C     C_R   0.270038 0.783403 0.627143 0.087666
C55   C     C_R   0.766663 0.714417 0.627231 0.083755
C56   C     C_R   0.304513 0.763518 0.383467 -0.069481
C57   C     C_R   0.770038 0.283403 0.627143 0.087666
C58   C     C_R   0.319806 0.195805 0.506241 -0.197373
C59   C     C_R   0.324281 0.801712 0.507501 -0.196274
C60   C     C_R   0.819807 0.695805 0.506242 -0.197374
C61   C     C_R   0.824281 0.301713 0.507501 -0.196274
C62   C     C_1   0.354829 0.227312 0.259139 0.225668
C63   C     C_1   0.368399 0.765927 0.265718 0.209922
C64   C     C_1   0.854832 0.727314 0.259141 0.225665
C65   C     C_1   0.868398 0.265928 0.265717 0.209923
C66   C     C_1   0.672384 0.782988 0.245683 0.240647
C67   C     C_R   0.794971 0.730424 0.381097 -0.068913
C68   C     C_1   0.694022 0.198202 0.240915 0.261427
C69   C     C_1   0.172379 0.282984 0.245685 0.240648
C70   C     C_1   0.194024 0.698201 0.240915 0.261433
C71   C     C_2   0.672380 0.979359 0.113693 0.944948
C72   C     C_2   0.172378 0.479354 0.113694 0.944939
C73   C     C_R   0.804512 0.263519 0.383467 -0.069481
C74   C     C_R   0.712401 0.772305 0.374617 -0.065753
H1    H     H_    0.188213 0.999836 0.898196 0.169741
H2    H     H_    0.865698 0.316282 0.781463 0.168864
H3    H     H_    0.252073 0.183701 0.969866 0.168821
H4    H     H_    0.253771 0.813460 0.969713 0.166294
H5    H     H_    0.752074 0.683702 0.969866 0.168820
H6    H     H_    0.753771 0.313461 0.969713 0.166294
H7    H     H_    0.589815 0.718178 0.933662 0.163054
H8    H     H_    0.593286 0.274796 0.934289 0.160522
H9    H     H_    0.089814 0.218177 0.933662 0.163055
H10   H     H_    0.093286 0.774795 0.934289 0.160522
H11   H     H_    0.546719 0.770936 0.714802 0.139701
H12   H     H_    0.688213 0.499837 0.898196 0.169741
H13   H     H_    0.550069 0.227113 0.712532 0.143789
H14   H     H_    0.046717 0.270935 0.714802 0.139701
H15   H     H_    0.050069 0.727113 0.712532 0.143789
H16   H     H_    0.326643 0.001272 0.259874 0.203409
H17   H     H_    0.826643 0.501272 0.259874 0.203409
H18   H     H_    0.186967 0.001178 0.146706 0.158984
H19   H     H_    0.686967 0.501179 0.146706 0.158984
H20   H     H_    0.761099 0.991064 0.260331 0.325794
H21   H     H_    0.261099 0.491061 0.260330 0.325793
H22   H     H_    0.330375 0.999839 0.764996 0.217623
H23   H     H_    0.830375 0.499839 0.764996 0.217623
H24   H     H_    0.640404 0.994674 0.856247 0.198366
H25   H     H_    0.140404 0.494672 0.856248 0.198362
H26   H     H_    0.363779 0.182967 0.780806 0.169875
H27   H     H_    0.365699 0.816282 0.781462 0.168864
H28   H     H_    0.863780 0.682968 0.780806 0.169874
N1    N     N_R   0.498810 0.000000 0.142780 -0.149269
N2    N     N_1   0.670297 0.181939 0.134740 -0.220676
N3    N     N_1   0.138900 0.290662 0.143722 -0.208098
N4    N     N_1   0.170299 0.681937 0.134740 -0.220673
N5    N     N_R   0.998810 0.500000 0.142780 -0.149269
N6    N     N_R   0.498740 0.000000 0.857170 -0.145019
N7    N     N_R   0.998740 0.500000 0.857170 -0.145019
N8    N     N_1   0.402304 0.225099 0.162089 -0.211396
N9    N     N_1   0.418860 0.767698 0.171909 -0.213311
N10   N     N_1   0.902308 0.725102 0.162091 -0.211397
N11   N     N_1   0.918858 0.267699 0.171908 -0.213309
N12   N     N_1   0.638907 0.790667 0.143720 -0.208101
O1    O     O_R   0.408390 0.908380 0.614690 -0.659923
O2    O     O_R   0.591620 0.908390 0.614640 -0.612929
O3    O     O_R   0.091620 0.591610 0.614640 -0.618793
O4    O     O_R   0.091620 0.408390 0.614640 -0.612928
O5    O     O_R   0.591610 0.091610 0.385310 -0.550903
O6    O     O_R   0.591610 0.908390 0.385310 -0.574861
O7    O     O_R   0.091610 0.591610 0.385310 -0.550902
O8    O     O_R   0.091610 0.408390 0.385310 -0.574865
O9    O     O_2   0.731324 0.945181 0.039949 -0.652920
O10   O     O_R   0.695670 0.005223 0.240867 -0.747299
O11   O     O_2   0.231321 0.445170 0.039953 -0.652918
O12   O     O_R   0.408390 0.091620 0.614690 -0.658243
O13   O     O_R   0.195670 0.505224 0.240865 -0.747299
O14   O     O_R   0.908390 0.408380 0.614690 -0.659923
O15   O     O_R   0.908390 0.591620 0.614690 -0.658243
O16   O     O_R   0.408370 0.908380 0.385360 -0.631134
O17   O     O_R   0.408370 0.091620 0.385360 -0.631585
O18   O     O_R   0.908370 0.408380 0.385360 -0.631134
O19   O     O_R   0.908370 0.591620 0.385360 -0.631585
O20   O     O_R   0.591620 0.091610 0.614640 -0.618793
Zn1   Zn    Zn3+2 0.500010 0.000000 0.653130 0.926991
Zn2   Zn    Zn3+2 0.000010 0.500000 0.653130 0.926991
Zn3   Zn    Zn3+2 0.499980 0.000000 0.346870 0.989280
Zn4   Zn    Zn3+2 0.999980 0.500000 0.346870 0.989280

loop_
_geom_bond_atom_site_label_1
_geom_bond_atom_site_label_2
_ccdc_geom_bond_type
C44   C49   A    
C33   C55   A    
C12   O17   A    
C36   C42   A    
C4    C8    A    
C4    C70   S    
C27   O7    A    
C39   C41   A    
O2    Zn1   S    
C60   C67   A    
C29   H24   S    
C71   O9    D    
C22   C29   A    
C26   O6    A    
C3    C7    A    
C36   H3    S    
O14   Zn2   S    
C11   C14   A    
C28   O8    A    
C64   N10   T    
C6    C25   S    
C12   O12   A    
C38   H5    S    
O18   Zn4   S    
C66   C74   S    
C45   C62   S    
C65   C73   S    
C5    C74   A    
C11   H18   S    
C34   O15   A    
C41   C46   A    
C29   N6    A    
C43   C48   A    
C8    C52   A    
C40   C44   A    
C18   C20   A    
C12   C58   S    
C27   O3    A    
O19   Zn4   S    
C55   C60   A    
C4    C56   A    
N7    Zn2   S    
C34   C60   S    
C43   H10   S    
C5    C49   A    
C2    C6    A    
C25   O5    A    
C32   C54   A    
C52   C54   A    
C18   N6    A    
C54   C59   A    
C19   N7    A    
C10   C21   A    
C35   H2    S    
C45   C58   A    
C16   H22   S    
C32   C37   A    
C72   O13   S    
C33   H28   S    
O5    Zn3   S    
C64   C67   S    
C71   O10   S    
O8    Zn4   S    
N6    Zn1   S    
C1    O16   A    
C70   N4    T    
C20   N1    A    
C69   N3    T    
C47   C51   A    
C30   N7    A    
C34   O19   A    
C61   C73   A    
C49   C55   A    
C30   H25   S    
C3    C45   A    
C6    C50   A    
C22   N1    A    
C13   H19   S    
C51   C53   A    
O7    Zn4   S    
C37   C43   A    
C35   C39   A    
O17   Zn3   S    
O15   Zn2   S    
C9    C20   A    
C62   N8    T    
C23   C61   S    
C56   C63   S    
C24   N5    A    
C31   H26   S    
C31   C53   A    
C25   O20   A    
C9    C11   A    
C21   N5    A    
C2    C73   A    
C15   H12   S    
C1    C59   S    
C10   H17   S    
C48   H15   S    
C13   C15   A    
C14   C16   A    
C24   C30   A    
C44   H11   S    
C22   C71   S    
O4    Zn2   S    
C24   C72   S    
C46   H13   S    
C15   C17   A    
C66   N12   T    
C3    C69   S    
C32   H27   S    
C50   C57   A    
C65   N11   T    
C40   H7    S    
C42   H9    S    
C68   N2    T    
C10   C13   A    
C9    H16   S    
O12   Zn1   S    
C53   C58   A    
C57   C61   A    
O20   Zn1   S    
C37   H4    S    
C46   C50   A    
C2    C68   S    
C33   C38   A    
C56   C59   A    
C72   O11   D    
C35   C57   A    
C39   H6    S    
N5    Zn4   S    
N1    Zn3   S    
C7    C51   A    
C28   O4    A    
C47   H14   S    
C38   C40   A    
O3    Zn2   S    
O1    Zn1   S    
C41   H8    S    
C17   C19   A    
C23   O18   A    
C67   C74   A    
C42   C47   A    
C63   N9    T    
C26   O2    A    
C7    C28   S    
C5    C26   S    
H21   O13   S    
C48   C52   A    
C16   C18   A    
C8    C27   S    
C31   C36   A    
O6    Zn3   S    
C1    O1    A    
O16   Zn3   S    
C17   H23   S    
C14   H1    S    
C23   O14   A    
C19   C21   A    
H20   O10   S    
