data_mof_unit_32947.cif
_audit_creation_date              2013-03-05T15:46:12-0500
_audit_creation_method            fapswitch 2.2
_symmetry_space_group_name_H-M    P1
_symmetry_Int_Tables_number       1
_space_group_crystal_system       triclinic
_cell_length_a                    10.535025
_cell_length_b                    10.64828
_cell_length_c                    17.121281
_cell_angle_alpha                 80.404634
_cell_angle_beta                  89.994166
_cell_angle_gamma                 119.081724
_cell_volume                      1647.68663495

loop_
_atom_site_label
_atom_site_type_symbol
_atom_site_description
_atom_site_fract_x
_atom_site_fract_y
_atom_site_fract_z
_atom_type_partial_charge
O1    O     O_R   0.521780 0.757110 0.108900 -0.515527
O2    O     O_R   0.275160 0.783810 0.101120 -0.457751
C1    C     C_R   0.277674 0.888026 0.133003 0.552203
O3    O     O_R   0.237900 0.972600 0.090980 -0.493532
O4    O     O_R   0.511190 0.220540 0.061620 -0.528460
C2    C     C_R   0.635494 0.273547 0.089770 0.542461
O5    O     O_R   0.736920 0.257720 0.063840 -0.449414
O6    O     O_R   0.710450 0.984050 0.081720 -0.472411
C3    C     C_R   0.640560 0.858447 0.125408 0.544477
O7    O     O_R   0.524090 0.765520 0.933110 -0.526280
O8    O     O_R   0.277300 0.791600 0.938160 -0.498295
C4    C     C_R   0.214706 0.857466 0.902903 0.562897
O9    O     O_R   0.240210 0.981010 0.915190 -0.515942
O10   O     O_R   0.513330 0.228330 0.898660 -0.495141
C5    C     C_R   0.639645 0.289822 0.861690 0.552611
O11   O     O_R   0.739230 0.266130 0.888050 -0.508748
O12   O     O_R   0.712580 0.991850 0.918770 -0.503116
C6    C     C_R   0.636315 0.872008 0.894190 0.547721
Cr1   Cr    Cr6+3 0.402240 0.783890 0.019450 1.067082
Cr2   Cr    Cr6+3 0.382360 0.097900 0.991800 1.038397
Cr3   Cr    Cr6+3 0.715380 0.118170 0.988700 1.077084
O13   O     O_3   0.499990 0.999980 0.999980 -0.292094
C7    C     C_R   0.539483 0.328072 0.203342 -0.166687
H1    H     H_    0.458271 0.338470 0.168327 0.159592
C8    C     C_R   0.537555 0.337311 0.283262 -0.138059
H2    H     H_    0.462139 0.365800 0.307600 0.159209
C9    C     C_R   0.639507 0.319399 0.329476 -0.024041
C10   C     C_R   0.734581 0.281355 0.297317 -0.116399
H3    H     H_    0.812804 0.265653 0.332806 0.172203
C11   C     C_R   0.751045 0.291723 0.216600 0.200566
C12   C     C_R   0.648538 0.309674 0.168661 0.004569
C13   C     C_1   0.668666 0.848870 0.205534 0.005118
C14   C     C_1   0.679701 0.839089 0.274979 0.005609
C15   C     C_1   0.225834 0.852963 0.215486 -0.017910
C16   C     C_1   0.177440 0.833473 0.282946 -0.022965
C17   C     C_1   0.660579 0.356426 0.780309 -0.034510
C18   C     C_1   0.683463 0.400507 0.709936 -0.033184
C19   C     C_R   0.526037 0.763966 0.780483 -0.124574
H4    H     H_    0.428348 0.682714 0.817967 0.137881
C20   C     C_R   0.525724 0.761265 0.701047 -0.135068
H5    H     H_    0.431022 0.675571 0.680447 0.132226
C21   C     C_R   0.653001 0.854732 0.651440 0.033111
C22   C     C_R   0.772076 0.968493 0.679301 -0.124720
H6    H     H_    0.870203 0.044973 0.640592 0.128630
C23   C     C_R   0.770323 0.974812 0.759581 -0.140512
H7    H     H_    0.863540 0.059640 0.781576 0.124332
C24   C     C_R   0.649809 0.867273 0.811012 0.032457
C25   C     C_R   0.099520 0.901297 0.786630 -0.133320
H8    H     H_    0.084636 0.981763 0.810598 0.133890
C26   C     C_R   0.088823 0.899893 0.707028 -0.125115
H9    H     H_    0.059862 0.975707 0.672722 0.137023
C27   C     C_R   0.115673 0.803414 0.672380 0.032789
C28   C     C_R   0.142199 0.699991 0.720035 -0.142802
H10   H     H_    0.154953 0.619400 0.694990 0.121771
C29   C     C_R   0.156761 0.704061 0.800372 -0.128993
H11   H     H_    0.186069 0.629812 0.836082 0.127451
C30   C     C_R   0.144944 0.811715 0.832240 0.031656
O14   O     O_R   0.083770 0.911170 0.376030 -0.491073
O15   O     O_R   0.808770 0.880340 0.383890 -0.475073
C31   C     C_R   0.686252 0.809936 0.357293 0.551034
O16   O     O_R   0.584340 0.689460 0.394160 -0.517876
O17   O     O_R   0.614320 0.443940 0.423590 -0.495358
C32   C     C_R   0.681230 0.383626 0.399773 0.561186
O18   O     O_R   0.805020 0.410040 0.421340 -0.514832
O19   O     O_R   0.049240 0.685450 0.403290 -0.489352
C33   C     C_R   0.107689 0.812069 0.359765 0.557064
O20   O     O_R   0.077520 0.903010 0.551800 -0.524003
O21   O     O_R   0.802980 0.872780 0.546830 -0.515594
C34   C     C_R   0.674914 0.806419 0.581437 0.535756
O22   O     O_R   0.578090 0.681300 0.569920 -0.528095
O23   O     O_R   0.608530 0.436370 0.586530 -0.490581
C35   C     C_R   0.716753 0.445405 0.626198 0.563257
O24   O     O_R   0.798770 0.401880 0.597100 -0.508733
O25   O     O_R   0.043450 0.677890 0.566230 -0.521589
C36   C     C_R   0.089671 0.798532 0.589788 0.540505
Cr4   Cr    Cr6+3 0.936650 0.882420 0.465510 1.041229
Cr5   Cr    Cr6+3 0.605770 0.565620 0.493360 1.028285
Cr6   Cr    Cr6+3 0.921340 0.550490 0.496380 1.029887
O26   O     O_3   0.821250 0.666180 0.485090 -0.277224
N1    N     N_R   0.877775 0.292664 0.184668 0.097368
O27   O     O_R   0.911923 0.194940 0.217238 -0.348870
O28   O     O_R   0.974486 0.407943 0.135428 -0.306763

loop_
_geom_bond_atom_site_label_1
_geom_bond_atom_site_label_2
_geom_bond_distance
_ccdc_geom_bond_type
O6    C3    1.264712 A    
C29   H11   1.081869 S    
O11   Cr3   2.055472 S    
O17   Cr5   1.934756 S    
Cr4   O26   1.978282 S    
C27   C36   1.445026 S    
C6    C24   1.442821 S    
O14   Cr4   2.055460 S    
C25   C30   1.394357 A    
O4    Cr2   1.942738 S    
C28   H10   1.083102 S    
O8    Cr1   1.934850 S    
C17   C18   1.196491 T    
C19   H4    1.081090 S    
C5    O11   1.259938 A    
C15   C16   1.205871 T    
C23   C24   1.396026 A    
C3    C13   1.401027 S    
O14   C33   1.269272 A    
O16   Cr5   2.053630 S    
O21   C34   1.266555 A    
C26   C27   1.404627 A    
O24   Cr6   2.061233 S    
C11   N1    1.437530 S    
C20   C21   1.389424 A    
C2    C12   1.453678 S    
O15   C31   1.268324 A    
Cr3   O13   1.978111 S    
O22   Cr5   2.051329 S    
O12   C6    1.278090 A    
Cr5   O26   1.976441 S    
O1    Cr1   2.053459 S    
O25   C36   1.270734 A    
O10   Cr2   1.942683 S    
Cr1   O13   1.976587 S    
O1    C3    1.264614 A    
N1    O28   1.301786 A    
Cr6   O26   1.962197 S    
C35   O24   1.294512 A    
C1    C15   1.434520 S    
C26   H9    1.082228 S    
C8    H2    1.083177 S    
O5    Cr3   2.055293 S    
C21   C34   1.440629 S    
O12   Cr3   1.934419 S    
C31   O16   1.260102 A    
C7    C12   1.402988 A    
C22   H6    1.082889 S    
O17   C32   1.266085 A    
O7    Cr1   2.052187 S    
C7    H1    1.083382 S    
O6    Cr3   1.936066 S    
C22   C23   1.387855 A    
C19   C24   1.407480 A    
C9    C32   1.446306 S    
C4    C30   1.445628 S    
C20   H5    1.083878 S    
Cr2   O13   1.962127 S    
C14   C31   1.400823 S    
C29   C30   1.405165 A    
C8    C9    1.401817 A    
C21   C22   1.408592 A    
C28   C29   1.389527 A    
C1    O3    1.286524 A    
C10   H3    1.084637 S    
C5    C17   1.418265 S    
O23   Cr5   1.935625 S    
C27   C28   1.398665 A    
C25   H8    1.083942 S    
O19   Cr6   1.942846 S    
O9    Cr2   2.060347 S    
O2    Cr1   1.935383 S    
O18   Cr6   2.061146 S    
N1    O27   1.301430 A    
O8    C4    1.264785 A    
C2    O5    1.251860 A    
O21   Cr4   1.934825 S    
C16   C33   1.434872 S    
C13   C14   1.186833 T    
C10   C11   1.372099 A    
O2    C1    1.305206 A    
O23   C35   1.298362 A    
C19   C20   1.365104 A    
C11   C12   1.423016 A    
O4    C2    1.279866 A    
O7    C6    1.253919 A    
C25   C26   1.369511 A    
C7    C8    1.388973 A    
C34   O22   1.273153 A    
C32   O18   1.262683 A    
O3    Cr2   2.061565 S    
C23   H7    1.083185 S    
O20   C36   1.254715 A    
C4    O9    1.263218 A    
O19   C33   1.268947 A    
O25   Cr6   1.941690 S    
C18   C35   1.419663 S    
C9    C10   1.392533 A    
O10   C5    1.270768 A    
O20   Cr4   2.055568 S    
O15   Cr4   1.936496 S    
