data_mof_unit_20342.cif
_audit_creation_date              2012-12-11T16:21:31-0500
_audit_creation_method            fapswitch 2.2
_symmetry_space_group_name_H-M    P1
_symmetry_Int_Tables_number       1
_space_group_crystal_system       triclinic
_cell_length_a                    7.240312
_cell_length_b                    37.091967
_cell_length_c                    41.160773
_cell_angle_alpha                 90.005045
_cell_angle_beta                  90.023913
_cell_angle_gamma                 90.02007
_cell_volume                      11054.0290619

loop_
_atom_site_label
_atom_site_type_symbol
_atom_type_description
_atom_site_fract_x
_atom_site_fract_y
_atom_site_fract_z
_atom_type_partial_charge
O1    O     O_R   0.564240 0.782760 0.216890 -0.537279
O2    O     O_R   0.435760 0.217240 0.783110 -0.537604
O3    O     O_R   0.435760 0.217240 0.716890 -0.536856
O4    O     O_R   0.564240 0.782760 0.283110 -0.537085
O5    O     O_R   0.064240 0.717240 0.283110 -0.537156
O6    O     O_R   0.935760 0.282760 0.716890 -0.537859
O7    O     O_R   0.935760 0.282760 0.783110 -0.535505
O8    O     O_R   0.064240 0.717240 0.216890 -0.537488
O9    O     O_R   0.234510 0.787070 0.282870 -0.539517
O10   O     O_R   0.765490 0.212930 0.717130 -0.541513
O11   O     O_R   0.765490 0.212930 0.782870 -0.538915
O12   O     O_R   0.234510 0.787070 0.217130 -0.540754
O13   O     O_R   0.734510 0.712930 0.217130 -0.540066
O14   O     O_R   0.265490 0.287070 0.782870 -0.540896
O15   O     O_R   0.265490 0.287070 0.717130 -0.539363
O16   O     O_R   0.734510 0.712930 0.282870 -0.540859
C1    C     C_R   0.403085 0.795731 0.293578 0.708030
C2    C     C_R   0.596747 0.204205 0.706412 0.707076
C3    C     C_R   0.596959 0.204271 0.793581 0.708756
C4    C     C_R   0.403213 0.795794 0.206408 0.708241
C5    C     C_R   0.903071 0.704206 0.206409 0.708678
C6    C     C_R   0.096951 0.295789 0.793508 0.706541
C7    C     C_R   0.096947 0.295733 0.706421 0.706414
C8    C     C_R   0.903222 0.704209 0.293595 0.707822
O17   O     O_3   0.397750 0.727090 0.250000 -0.377294
O18   O     O_3   0.602250 0.272910 0.750000 -0.376370
O19   O     O_3   0.897750 0.772910 0.250000 -0.376199
O20   O     O_3   0.102250 0.227090 0.750000 -0.376630
V1    V     V_3+5 0.122890 0.754250 0.250000 1.407204
V2    V     V_3+5 0.877110 0.245750 0.750000 1.408102
V3    V     V_3+5 0.622890 0.745750 0.250000 1.406300
V4    V     V_3+5 0.377110 0.254250 0.750000 1.407976
C9    C     C_R   0.880278 0.608318 0.427198 0.621476
C10   C     C_R   0.076650 0.387513 0.571010 0.629565
C11   C     C_R   0.028409 0.387565 0.928269 0.623840
C12   C     C_R   0.030245 0.610706 0.073436 0.625885
C13   C     C_R   0.379757 0.891751 0.072843 0.621300
C14   C     C_R   0.577248 0.112511 0.929014 0.629918
C15   C     C_R   0.615310 0.108732 0.572603 0.621948
C16   C     C_R   0.429030 0.887357 0.429063 0.628085
O21   O     O_2   0.802329 0.640973 0.431580 -0.484769
O22   O     O_2   0.103928 0.352067 0.565531 -0.483204
O23   O     O_2   0.015528 0.351772 0.933546 -0.483109
O24   O     O_2   0.093441 0.644741 0.070362 -0.486630
O25   O     O_2   0.301381 0.859120 0.068471 -0.484808
O26   O     O_2   0.605036 0.147947 0.934490 -0.482732
O27   O     O_2   0.689330 0.141715 0.568055 -0.484588
O28   O     O_2   0.406710 0.851783 0.434575 -0.483250
N1    N     N_R   0.950543 0.599676 0.397264 -0.554833
N2    N     N_R   0.059898 0.399381 0.602377 -0.554383
N3    N     N_R   0.054058 0.399735 0.897180 -0.555839
N4    N     N_R   0.949226 0.600471 0.102090 -0.552825
N5    N     N_R   0.450479 0.900362 0.102764 -0.554841
N6    N     N_R   0.559965 0.100653 0.897650 -0.554492
N7    N     N_R   0.549450 0.099705 0.602749 -0.554982
N8    N     N_R   0.440359 0.899364 0.397662 -0.554468
C17   C     C_R   0.031808 0.566891 0.391879 0.632224
C18   C     C_R   0.033321 0.435090 0.609162 0.623772
C19   C     C_R   0.067574 0.435782 0.890620 0.625638
C20   C     C_R   0.881836 0.566270 0.106090 0.630759
C21   C     C_R   0.532183 0.933123 0.108138 0.632327
C22   C     C_R   0.532852 0.064954 0.890868 0.623760
C23   C     C_R   0.472329 0.066581 0.608346 0.631759
C24   C     C_R   0.461669 0.935210 0.390863 0.625348
C25   C     C_R   0.100300 0.641173 0.357993 0.240263
C26   C     C_R   0.230745 0.370949 0.647827 0.237261
C27   C     C_R   0.913149 0.368657 0.850049 0.235402
C28   C     C_R   0.762386 0.638726 0.139134 0.239065
C29   C     C_R   0.600237 0.858823 0.142006 0.240056
C30   C     C_R   0.730721 0.129068 0.852194 0.237381
C31   C     C_R   0.399621 0.140832 0.642266 0.240786
C32   C     C_R   0.269256 0.870865 0.352237 0.237960
C33   C     C_R   0.087312 0.666463 0.332708 -0.244618
C34   C     C_R   0.239206 0.345457 0.673089 -0.248410
C35   C     C_R   0.924481 0.343126 0.824892 -0.246264
C36   C     C_R   0.751660 0.663785 0.164771 -0.244713
C37   C     C_R   0.587259 0.833523 0.167282 -0.245130
C38   C     C_R   0.739168 0.154551 0.826925 -0.247400
C39   C     C_R   0.412546 0.166130 0.667548 -0.244042
C40   C     C_R   0.260789 0.845385 0.326965 -0.248635
C41   C     C_R   0.754333 0.661224 0.333453 -0.198048
C42   C     C_R   0.927527 0.326155 0.660659 -0.190166
C43   C     C_R   0.238778 0.329141 0.840574 -0.196953
C44   C     C_R   0.085018 0.664140 0.168830 -0.192344
C45   C     C_R   0.254322 0.838827 0.166586 -0.197769
C46   C     C_R   0.427664 0.173877 0.839361 -0.189883
C47   C     C_R   0.745748 0.161520 0.666335 -0.198373
C48   C     C_R   0.572693 0.826203 0.339304 -0.189986
C49   C     C_R   0.767762 0.635896 0.358607 -0.156409
C50   C     C_R   0.919785 0.351127 0.635241 -0.157337
C51   C     C_R   0.226717 0.354122 0.865989 -0.152636
C52   C     C_R   0.095015 0.639064 0.143558 -0.154164
C53   C     C_R   0.267743 0.864165 0.141439 -0.156411
C54   C     C_R   0.419935 0.148913 0.864786 -0.156777
C55   C     C_R   0.732374 0.136206 0.641167 -0.156961
C56   C     C_R   0.580471 0.851166 0.364730 -0.156519
C57   C     C_R   0.939775 0.625664 0.371086 0.391660
C58   C     C_R   0.070267 0.373756 0.628724 0.395167
C59   C     C_R   0.064786 0.374112 0.870830 0.396698
C60   C     C_R   0.935087 0.626173 0.128455 0.392286
C61   C     C_R   0.439729 0.874369 0.128939 0.391661
C62   C     C_R   0.570335 0.126277 0.871303 0.395162
C63   C     C_R   0.560267 0.125660 0.628939 0.392691
C64   C     C_R   0.429908 0.873742 0.371298 0.393836
C65   C     C_R   0.981688 0.550191 0.448356 -0.104703
C66   C     C_R   0.040856 0.449182 0.551431 -0.101229
C67   C     C_R   0.024197 0.449596 0.947907 -0.103627
C68   C     C_R   0.971181 0.551035 0.050775 -0.101677
C69   C     C_R   0.481622 0.949849 0.051674 -0.104719
C70   C     C_R   0.540889 0.050852 0.948596 -0.101223
C71   C     C_R   0.518179 0.050208 0.551681 -0.104373
C72   C     C_R   0.459378 0.949143 0.448639 -0.101358
C73   C     C_R   0.892048 0.583595 0.453428 -0.025737
C74   C     C_R   0.067387 0.412135 0.544668 -0.026276
C75   C     C_R   0.013095 0.412218 0.954500 -0.028641
C76   C     C_R   0.045109 0.586113 0.047144 -0.023306
C77   C     C_R   0.391505 0.916477 0.046616 -0.025752
C78   C     C_R   0.567990 0.087889 0.955356 -0.026378
C79   C     C_R   0.603097 0.084043 0.546350 -0.025744
C80   C     C_R   0.438561 0.911961 0.455418 -0.025962
C81   C     C_R   0.815663 0.590841 0.484346 0.220881
C82   C     C_R   0.080961 0.401019 0.511914 0.197368
C83   C     C_R   0.989801 0.400900 0.987032 0.218609
C84   C     C_R   0.132855 0.595179 0.017583 0.198281
C85   C     C_R   0.314645 0.909265 0.015715 0.220881
C86   C     C_R   0.582115 0.098996 0.988108 0.197414
C87   C     C_R   0.674533 0.091746 0.515156 0.220787
C88   C     C_R   0.430711 0.900710 0.488192 0.197497
C89   C     C_R   0.050857 0.541832 0.417318 -0.059845
C90   C     C_R   0.023323 0.460574 0.583899 -0.087721
C91   C     C_R   0.053276 0.461307 0.915787 -0.057685
C92   C     C_R   0.889388 0.541184 0.080475 -0.088161
C93   C     C_R   0.551255 0.958179 0.082698 -0.059891
C94   C     C_R   0.522818 0.039471 0.916130 -0.087752
C95   C     C_R   0.453640 0.041463 0.582943 -0.059954
C96   C     C_R   0.471382 0.960686 0.416139 -0.088026
C97   C     C_R   0.914440 0.676916 0.320138 -0.066476
C98   C     C_R   0.087660 0.322863 0.679839 -0.069371
C99   C     C_R   0.087207 0.323140 0.819856 -0.066471
C100  C     C_R   0.913014 0.676956 0.179820 -0.069260
C101  C     C_R   0.414413 0.823095 0.179871 -0.066098
C102  C     C_R   0.587697 0.177151 0.820173 -0.069367
C103  C     C_R   0.585510 0.176896 0.679885 -0.066434
C104  C     C_R   0.412437 0.822857 0.320163 -0.069437
C105  C     C_R   0.988315 0.511479 0.532671 0.009023
C106  C     C_R   0.076577 0.490302 0.468238 0.056232
C107  C     C_R   0.918094 0.489701 0.029590 0.011739
C108  C     C_R   0.036245 0.512510 0.967118 0.056359
C109  C     C_R   0.487747 0.988573 0.967362 0.009006
C110  C     C_R   0.577053 0.009709 0.031777 0.056220
C111  C     C_R   0.506019 0.011650 0.467331 0.009249
C112  C     C_R   0.428642 0.989898 0.532035 0.056365
C113  C     C_R   0.065849 0.463883 0.493378 0.038502
C114  C     C_R   0.946720 0.534783 0.506070 0.020679
C115  C     C_R   0.047874 0.536617 0.994081 0.036917
C116  C     C_R   0.959142 0.463690 0.005083 0.021982
C117  C     C_R   0.566382 0.036135 0.006642 0.038542
C118  C     C_R   0.446164 0.965280 0.993970 0.020653
C119  C     C_R   0.439765 0.963592 0.506805 0.038412
C120  C     C_R   0.547924 0.035102 0.493815 0.020749
C121  C     C_R   0.031708 0.474903 0.525787 0.025725
C122  C     C_R   0.001918 0.525049 0.474266 0.024283
C123  C     C_R   0.979059 0.525730 0.024775 0.025620
C124  C     C_R   0.006326 0.475329 0.973399 0.024484
C125  C     C_R   0.531707 0.025132 0.974239 0.025753
C126  C     C_R   0.501869 0.974989 0.025762 0.024261
C127  C     C_R   0.468351 0.974849 0.474297 0.025679
C128  C     C_R   0.497992 0.025025 0.525800 0.024551
C129  C     C_R   0.989922 0.522837 0.565861 0.181654
C130  C     C_R   0.159963 0.483785 0.437476 0.174628
C131  C     C_R   0.818281 0.481659 0.058659 0.183569
C132  C     C_R   0.050807 0.523830 0.934162 0.173777
C133  C     C_R   0.488807 0.977218 0.934170 0.181608
C134  C     C_R   0.660880 0.016191 0.062522 0.174614
C135  C     C_R   0.498716 0.023066 0.434184 0.182011
C136  C     C_R   0.349877 0.982900 0.563087 0.174497
C137  C     C_R   0.002873 0.497299 0.590666 -0.091643
C138  C     C_R   0.142732 0.509109 0.412447 -0.178917
C139  C     C_R   0.810254 0.506975 0.083713 -0.095253
C140  C     C_R   0.062074 0.498262 0.909219 -0.174500
C141  C     C_R   0.501800 0.002755 0.909365 -0.091559
C142  C     C_R   0.643606 0.990869 0.087553 -0.178785
C143  C     C_R   0.486104 0.997518 0.409378 -0.091983
C144  C     C_R   0.366621 0.008279 0.588087 -0.178436
O29   O     O_2   0.015956 0.445907 0.640317 -0.517852
O30   O     O_2   0.093621 0.558468 0.361896 -0.519383
O31   O     O_2   0.808325 0.556454 0.134889 -0.519543
O32   O     O_2   0.094988 0.446906 0.859780 -0.517594
O33   O     O_2   0.514992 0.054147 0.859715 -0.517620
O34   O     O_2   0.594413 0.941522 0.138110 -0.519279
O35   O     O_2   0.474161 0.946178 0.359679 -0.517648
O36   O     O_2   0.414257 0.057892 0.638499 -0.518767
C145  C     C_R   0.841927 0.566443 0.509871 -0.249647
C146  C     C_R   0.078709 0.426658 0.486980 -0.187372
C147  C     C_R   0.965366 0.426483 0.011656 -0.248008
C148  C     C_R   0.134393 0.570548 0.991827 -0.186476
C149  C     C_R   0.340908 0.933659 0.990188 -0.249617
C150  C     C_R   0.579822 0.073355 0.013040 -0.187434
C151  C     C_R   0.648075 0.067291 0.489677 -0.249704
C152  C     C_R   0.432718 0.926302 0.513170 -0.187207
H1    H     H_    0.002323 0.506706 0.615600 0.184295
H2    H     H_    0.206123 0.503193 0.389202 0.172104
H3    H     H_    0.734920 0.499980 0.105578 0.182237
H4    H     H_    0.074511 0.507736 0.884407 0.172964
H5    H     H_    0.500827 0.993350 0.884430 0.184327
H6    H     H_    0.707344 0.996759 0.110785 0.172211
H7    H     H_    0.482272 0.006975 0.384469 0.184037
H8    H     H_    0.306799 0.002005 0.611549 0.172537
H9    H     H_    0.771874 0.572082 0.532387 0.136156
H10   H     H_    0.077303 0.416493 0.462425 0.161954
H11   H     H_    0.959193 0.416637 0.036250 0.135682
H12   H     H_    0.213466 0.577957 0.970643 0.163234
H13   H     H_    0.270503 0.928050 0.967688 0.136178
H14   H     H_    0.578851 0.083517 0.037597 0.161915
H15   H     H_    0.714404 0.073339 0.466898 0.136135
H16   H     H_    0.438626 0.916103 0.537692 0.162125
H17   H     H_    0.618625 0.668487 0.324544 0.137919
H18   H     H_    0.808771 0.309050 0.664950 0.143297
H19   H     H_    0.365601 0.314039 0.837542 0.140261
H20   H     H_    0.212677 0.673421 0.179702 0.142486
H21   H     H_    0.118635 0.831588 0.175513 0.137808
H22   H     H_    0.308977 0.190990 0.835072 0.143033
H23   H     H_    0.881519 0.169042 0.675051 0.137761
H24   H     H_    0.691525 0.809143 0.334980 0.143245
H25   H     H_    0.644854 0.623936 0.368665 0.145477
H26   H     H_    0.796550 0.352853 0.620444 0.131613
H27   H     H_    0.343183 0.357904 0.882115 0.136301
H28   H     H_    0.227425 0.629498 0.135516 0.129091
H29   H     H_    0.144849 0.876156 0.131404 0.145475
H30   H     H_    0.296769 0.147198 0.879586 0.131675
H31   H     H_    0.855388 0.124518 0.630900 0.144905
H32   H     H_    0.703800 0.852924 0.379499 0.132005
N9    N     N_3   0.708451 0.622665 0.490197 -0.578088
H33   H     H_    0.576968 0.614743 0.497918 0.230221
H34   H     H_    0.770615 0.637049 0.509123 0.237261
N10   N     N_3   0.095227 0.363643 0.503416 -0.577054
H35   H     H_    0.216829 0.360039 0.490107 0.240004
H36   H     H_    0.983867 0.357100 0.488339 0.230589
N11   N     N_3   0.992082 0.363453 0.995621 -0.578306
H37   H     H_    0.098465 0.359343 0.012406 0.231031
H38   H     H_    0.867041 0.357307 0.007061 0.235543
N12   N     N_3   0.224037 0.629175 0.013401 -0.576458
H39   H     H_    0.164474 0.642254 0.993481 0.242244
H40   H     H_    0.362751 0.624214 0.007926 0.231666
N13   N     N_3   0.206938 0.877482 0.009884 -0.578250
H41   H     H_    0.075461 0.885454 0.002199 0.230175
H42   H     H_    0.268667 0.863081 0.990939 0.237269
N14   N     N_3   0.596994 0.136365 0.996606 -0.576870
H43   H     H_    0.718815 0.139921 0.009885 0.240001
H44   H     H_    0.485917 0.142948 0.011712 0.230439
N15   N     N_3   0.776702 0.124129 0.508955 -0.578173
H45   H     H_    0.908113 0.116913 0.500668 0.230279
H46   H     H_    0.710133 0.138238 0.490334 0.236943
N16   N     N_3   0.422683 0.863255 0.496658 -0.576798
H47   H     H_    0.303409 0.858973 0.510450 0.240296
H48   H     H_    0.536862 0.857280 0.511261 0.230811
H49   H     H_    0.364127 0.343606 0.687488 0.140638
H50   H     H_    0.213684 0.677906 0.323111 0.139083
H51   H     H_    0.616946 0.673106 0.172533 0.136539
H52   H     H_    0.805923 0.339172 0.809218 0.140232
H53   H     H_    0.864014 0.156389 0.812521 0.140828
H54   H     H_    0.713621 0.822053 0.176858 0.139101
H55   H     H_    0.135737 0.843482 0.312604 0.140922
H56   H     H_    0.286092 0.177336 0.677322 0.138988
N17   N     N_3   0.385518 0.393828 0.641302 -0.638824
H57   H     H_    0.414794 0.408428 0.662414 0.251272
H58   H     H_    0.499227 0.377404 0.636340 0.223241
N18   N     N_3   0.277104 0.631056 0.370332 -0.642598
H59   H     H_    0.350743 0.619853 0.350980 0.236937
H60   H     H_    0.345307 0.654469 0.377854 0.235661
N19   N     N_3   0.598037 0.625951 0.123783 -0.640076
H61   H     H_    0.521362 0.612334 0.141426 0.240879
H62   H     H_    0.522596 0.648284 0.115789 0.240027
N20   N     N_3   0.746910 0.388812 0.854811 -0.642465
H63   H     H_    0.719302 0.403030 0.833425 0.249823
H64   H     H_    0.639384 0.370454 0.858351 0.222043
N21   N     N_3   0.885407 0.106180 0.858720 -0.638733
H65   H     H_    0.914476 0.091570 0.837612 0.251521
H66   H     H_    0.999239 0.122597 0.863673 0.223483
N22   N     N_3   0.777026 0.868921 0.129657 -0.642551
H67   H     H_    0.850837 0.880114 0.149008 0.236888
H68   H     H_    0.845048 0.845503 0.122131 0.235619
N23   N     N_3   0.114228 0.893632 0.358837 -0.638385
H69   H     H_    0.084461 0.908223 0.337746 0.251891
H70   H     H_    0.000843 0.877123 0.363832 0.222326
N24   N     N_3   0.222832 0.130456 0.630075 -0.644386
H71   H     H_    0.149622 0.119244 0.649481 0.236982
H72   H     H_    0.154060 0.153777 0.622512 0.234608
N25   N     N_3   0.009423 0.559842 0.575537 -0.668771
H73   H     H_    0.880173 0.570337 0.581652 0.233214
H74   H     H_    0.074016 0.575176 0.557534 0.247281
N26   N     N_3   0.279110 0.453485 0.432237 -0.681349
H75   H     H_    0.230931 0.439334 0.411951 0.229208
H76   H     H_    0.411234 0.463161 0.426810 0.243423
N27   N     N_3   0.698154 0.451042 0.061822 -0.672559
H77   H     H_    0.765694 0.430640 0.074658 0.230893
H78   H     H_    0.651633 0.442006 0.039210 0.247600
N28   N     N_3   0.034668 0.561039 0.925217 -0.680462
H79   H     H_    0.150403 0.568017 0.911376 0.230531
H80   H     H_    0.917906 0.563936 0.910484 0.244844
N29   N     N_3   0.507701 0.940207 0.924486 -0.668694
H81   H     H_    0.378239 0.929760 0.918399 0.233261
H82   H     H_    0.572303 0.924847 0.942473 0.247295
N30   N     N_3   0.780489 0.046445 0.067740 -0.681369
H83   H     H_    0.732739 0.060610 0.088039 0.229263
H84   H     H_    0.912549 0.036720 0.073136 0.243450
N31   N     N_3   0.472996 0.059974 0.424676 -0.669411
H85   H     H_    0.599954 0.071158 0.418065 0.232927
H86   H     H_    0.408764 0.074929 0.442973 0.247110
N32   N     N_3   0.235627 0.951961 0.568721 -0.681107
H87   H     H_    0.288232 0.938046 0.588792 0.229702
H88   H     H_    0.102908 0.960907 0.574667 0.243646

loop_
_geom_bond_atom_site_label_1
_geom_bond_atom_site_label_2
_ccdc_geom_bond_type
C82   N10   S    
C10   O22   S    
C70   C78   A    
C21   C93   A    
O15   V4    S    
N29   H81   S    
O16   V3    S    
C19   C91   A    
C130  C138  A    
C15   O27   S    
N19   H61   S    
C66   C90   A    
N20   H63   S    
N16   H48   S    
C113  C146  A    
N12   H40   S    
C11   C75   A    
N13   H41   S    
C39   H56   S    
C20   C92   A    
C40   H55   S    
C82   C146  A    
O13   V3    S    
N32   H88   S    
C75   C83   A    
C69   C93   A    
C116  C147  A    
C53   C61   A    
C72   C80   A    
C6    C99   S    
C113  C121  A    
C47   H23   S    
C90   C137  A    
C106  C122  A    
O10   V2    S    
O12   C4    A    
C80   C88   A    
O13   C5    A    
C119  C152  A    
O6    V2    S    
N18   H60   S    
C56   C64   A    
C11   N3    A    
C12   O24   S    
N28   H79   S    
C45   C101  A    
C150  H14   S    
C135  C143  A    
C136  C144  A    
O1    C4    A    
O2    C3    A    
C50   H26   S    
C144  H8    S    
C29   C61   A    
O7    C6    A    
C43   C51   A    
C89   C138  A    
N26   H76   S    
C42   C98   A    
N24   H72   S    
C33   C97   A    
O10   C2    A    
C111  C127  A    
C96   C143  A    
C119  C127  A    
C120  C128  A    
C37   C101  A    
C69   C126  A    
N1    C57   S    
C148  H12   S    
O14   V4    S    
C54   C62   A    
C49   C57   A    
C25   N18   S    
O17   V3    S    
C24   C96   A    
O18   V4    S    
C110  C117  A    
O12   V1    S    
O19   V1    S    
C143  H7    S    
C29   C37   A    
C134  C142  A    
C31   C39   A    
N27   H78   S    
C105  C121  A    
C1    C104  S    
C151  H15   S    
O8    V1    S    
C65   C73   A    
C2    C103  S    
C23   O36   S    
C26   C34   A    
O1    V3    S    
N1    C17   A    
N10   H35   S    
O2    V4    S    
C117  C150  A    
C66   C121  A    
C115  C148  A    
N4    C20   A    
N5    C21   A    
C39   C103  A    
C40   C104  A    
N7    C23   A    
C88   N16   S    
C48   H24   S    
C108  C115  A    
C11   O23   S    
N9    H33   S    
C12   N4    A    
C13   N5    A    
C86   C150  A    
N30   H84   S    
C112  C119  A    
N21   H65   S    
C131  C139  A    
C72   C96   A    
C129  C137  A    
C55   C63   A    
C120  C151  A    
C83   N11   S    
N2    C58   S    
C108  C124  A    
C109  C125  A    
N22   H67   S    
C117  C125  A    
C115  C123  A    
C72   C127  A    
N4    C60   S    
C142  H6    S    
C28   C60   A    
C129  N25   S    
C146  H10   S    
C43   H19   S    
C41   H17   S    
C84   C148  A    
N25   H73   S    
C13   C77   A    
N11   H38   S    
N17   H58   S    
C26   N17   S    
C105  C114  A    
C139  H3    S    
O14   C6    A    
C137  H1    S    
C70   C94   A    
C27   C35   A    
C12   C76   A    
C44   C100  A    
C54   H30   S    
C31   C63   A    
C4    C101  S    
C114  C122  A    
C87   C151  A    
C91   C140  A    
C8    C97   S    
C28   C36   A    
C9    C73   A    
C26   C58   A    
C27   N20   S    
N21   H66   S    
C32   C40   A    
C35   C99   A    
C15   C79   A    
C152  H16   S    
N20   H64   S    
C14   O26   S    
C73   C81   A    
N23   H69   S    
C31   N24   S    
C44   C52   A    
C51   C59   A    
C77   C85   A    
C79   C87   A    
C48   C56   A    
C7    C98   S    
C85   N13   S    
N11   H37   S    
C43   C99   A    
C69   C77   A    
N15   H45   S    
C41   C97   A    
C34   C98   A    
O11   C3    A    
C55   H31   S    
C38   C102  A    
C70   C125  A    
C130  N26   S    
C30   C38   A    
C9    N1    A    
C114  C145  A    
C15   N7    A    
O11   V2    S    
N5    C61   S    
C16   N8    A    
C27   C59   A    
C41   C49   A    
C132  C140  A    
C133  C141  A    
O7    V2    S    
C18   O29   S    
C83   C147  A    
N28   H80   S    
C81   C145  A    
C112  C128  A    
C22   O33   S    
C132  N28   S    
N29   H82   S    
C68   C123  A    
C105  C129  A    
C111  C135  A    
C37   H54   S    
N31   H85   S    
N2    C18   A    
N8    C64   S    
C28   N19   S    
N27   H77   S    
C33   H50   S    
C32   C64   A    
C29   N22   S    
C88   C152  A    
N16   H47   S    
C14   N6    A    
C138  H2    S    
N12   H39   S    
C32   N23   S    
C107  C116  A    
C17   O30   S    
O4    C1    A    
C16   C80   A    
C3    C102  S    
C81   N9    S    
N13   H42   S    
C21   O34   S    
C24   O35   S    
C149  H13   S    
N14   H43   S    
C46   C102  A    
N32   H87   S    
C135  N31   S    
C76   C84   A    
C51   H27   S    
N6    C62   S    
C49   H25   S    
C140  H4    S    
C30   C62   A    
C131  N27   S    
N6    C22   A    
C42   C50   A    
C9    O21   S    
C68   C76   A    
C20   O31   S    
C71   C95   A    
C106  C113  A    
C18   C90   A    
C74   C82   A    
N10   H36   S    
O3    V4    S    
O4    V3    S    
C14   C78   A    
N18   H59   S    
C52   H28   S    
C107  C123  A    
C71   C128  A    
C5    C100  S    
C110  C126  A    
C133  N29   S    
N23   H70   S    
C30   N21   S    
C66   C74   A    
C17   C89   A    
N26   H75   S    
N22   H68   S    
N24   H71   S    
N15   H46   S    
N7    C63   S    
C118  C149  A    
C25   C33   A    
O3    C2    A    
C16   O28   S    
C46   C54   A    
N25   H74   S    
C44   H20   S    
N17   H57   S    
C87   N15   S    
O9    V1    S    
O15   C7    A    
C85   C149  A    
O16   C8    A    
C136  N32   S    
C45   C53   A    
C95   C144  A    
C107  C131  A    
O5    V1    S    
C36   C100  A    
N3    C59   S    
C10   N2    A    
C68   C92   A    
N14   H44   S    
C86   N14   S    
C67   C91   A    
C65   C89   A    
C47   C55   A    
N31   H86   S    
C23   C95   A    
C141  H5    S    
C147  H11   S    
C93   C142  A    
C145  H9    S    
C42   H18   S    
N8    C24   A    
O8    C5    A    
C19   O32   S    
C35   H52   S    
N9    H34   S    
C67   C75   A    
C71   C79   A    
O9    C1    A    
N30   H83   S    
C110  C134  A    
C106  C130  A    
C38   H53   S    
C134  N30   S    
N3    C19   A    
C94   C141  A    
C84   N12   S    
C52   C60   A    
C109  C118  A    
C34   H49   S    
C53   H29   S    
N19   H62   S    
C10   C74   A    
C78   C86   A    
C111  C120  A    
C22   C94   A    
O20   V2    S    
C25   C57   A    
O5    C8    A    
C45   H21   S    
O6    C7    A    
C108  C132  A    
C48   C104  A    
C109  C133  A    
C56   H32   S    
C92   C139  A    
C112  C136  A    
C118  C126  A    
C36   H51   S    
C67   C124  A    
C116  C124  A    
C65   C122  A    
C46   H22   S    
C47   C103  A    
C13   O25   S    
C50   C58   A    
