data_mof_unit_53559.cif
_audit_creation_date              2012-12-10T16:38:29-0500
_audit_creation_method            fapswitch 2.2
_symmetry_space_group_name_H-M    P1
_symmetry_Int_Tables_number       1
_space_group_crystal_system       triclinic
_cell_length_a                    10.827412
_cell_length_b                    10.860197
_cell_length_c                    17.808699
_cell_angle_alpha                 97.777141
_cell_angle_beta                  73.170097
_cell_angle_gamma                 98.675661
_cell_volume                      1972.14315546

loop_
_atom_site_label
_atom_site_type_symbol
_atom_type_description
_atom_site_fract_x
_atom_site_fract_y
_atom_site_fract_z
_atom_type_partial_charge
C1    C     C_R   0.157567 0.479436 0.517539 0.497488
C2    C     C_R   0.563438 0.368908 0.924267 -0.098836
C3    C     C_R   0.625192 0.306935 0.963495 -0.115900
C4    C     C_R   0.843352 0.520767 0.482403 0.508852
C5    C     C_R   0.609315 0.336542 0.043952 0.040630
C6    C     C_R   0.521699 0.422576 0.086733 0.048416
C7    C     C_R   0.680035 0.280712 0.082056 -0.098086
C8    C     C_R   0.668459 0.311964 0.162469 0.017719
C9    C     C_R   0.522882 0.463706 0.164785 -0.094299
C10   C     C_2   0.981335 0.529258 0.475452 -0.110708
C11   C     C_2   0.021359 0.471791 0.524239 -0.097796
C12   C     C_R   0.282001 0.622443 0.839712 -0.147702
C13   C     C_2   0.534426 0.964090 0.466127 -0.001221
C14   C     C_2   0.460774 0.036313 0.523832 -0.086203
C15   C     C_R   0.466292 0.168570 0.519113 0.485418
C16   C     C_R   0.528914 0.832558 0.480123 0.529212
C17   C     C_R   0.564872 0.435595 0.288090 0.499570
C18   C     C_R   0.438341 0.564268 0.712369 0.511989
C19   C     C_R   0.401519 0.579747 0.799370 0.000419
C20   C     C_R   0.591161 0.406617 0.203161 0.059556
C21   C     C_R   0.237799 0.627536 0.921292 -0.109378
C22   C     C_2   0.136122 0.633425 0.090290 0.602416
C23   C     C_R   0.478465 0.544068 0.842813 0.049288
C24   C     C_3   0.617762 0.020404 0.390181 -0.279161
C25   C     C_3   0.693490 0.932310 0.324418 -0.397544
C26   C     C_3   0.738090 0.242946 0.203239 -0.300741
C27   C     C_3   0.866399 0.317395 0.209717 -0.381438
C28   C     C_2   0.622610 0.557681 0.810607 0.563540
C29   C     C_2   0.255416 0.497134 0.172734 0.570377
C30   C     C_R   0.422262 0.526774 0.924015 -0.006825
C31   C     C_R   0.306262 0.579467 0.964938 -0.008383
C32   C     C_R   0.478775 0.458000 0.965006 0.015863
C33   C     C_R   0.441350 0.469163 0.048513 -0.003618
C34   C     C_R   0.323093 0.520320 0.089474 0.023623
C35   C     C_R   0.257325 0.577173 0.047595 0.045676
H1    H     H_    0.743483 0.211880 0.049251 0.115970
H2    H     H_    0.045461 0.789208 0.121671 0.342907
H3    H     H_    0.771762 0.899348 0.342572 0.192971
H4    H     H_    0.627254 0.851974 0.307348 0.179796
H5    H     H_    0.740553 0.983845 0.271717 0.123523
H6    H     H_    0.552908 0.061163 0.364421 0.164337
H7    H     H_    0.688490 0.097983 0.405607 0.143005
H8    H     H_    0.932569 0.330137 0.149970 0.206695
H9    H     H_    0.850148 0.410391 0.242900 0.203297
H10   H     H_    0.913617 0.265591 0.241296 0.155173
H11   H     H_    0.675619 0.223155 0.262867 0.142312
H12   H     H_    0.050607 0.582492 0.430596 0.106127
H13   H     H_    0.758670 0.150633 0.169933 0.144766
H14   H     H_    0.782265 0.494154 0.733693 0.334470
H15   H     H_    0.168563 0.568740 0.282678 0.334607
H16   H     H_    0.954093 0.418202 0.569595 0.128770
H17   H     H_    0.405159 0.001040 0.579535 0.118942
H18   H     H_    0.471367 0.540880 0.196962 0.126022
H19   H     H_    0.688921 0.238707 0.930207 0.121764
H20   H     H_    0.145751 0.663446 0.949037 0.162376
H21   H     H_    0.221712 0.652172 0.808074 0.153196
H22   H     H_    0.577810 0.341546 0.862044 0.156974
O1    O     O_3   0.500000 0.500000 0.500000 -0.449275
O2    O     O_R   0.470800 0.371790 0.332500 -0.525089
O3    O     O_R   0.380610 0.619380 0.674980 -0.550995
O4    O     O_R   0.632640 0.524780 0.317540 -0.547933
O5    O     O_R   0.515950 0.484050 0.674980 -0.484227
O6    O     O_2   0.039589 0.567639 0.124232 -0.521970
O7    O     O_R   0.133060 0.761795 0.090977 -0.679488
O8    O     O_2   0.687832 0.640286 0.840986 -0.504868
O9    O     O_R   0.684148 0.474594 0.748912 -0.677808
O10   O     O_2   0.236685 0.390748 0.192395 -0.509542
O11   O     O_R   0.213289 0.596712 0.228329 -0.674082
O12   O     O_R   0.535460 0.243030 0.556410 -0.531149
O13   O     O_R   0.437420 0.784080 0.535340 -0.544357
O14   O     O_R   0.223560 0.397520 0.472140 -0.522034
O15   O     O_R   0.803560 0.575360 0.436110 -0.534838
O16   O     O_R   0.209690 0.568800 0.556400 -0.533202
O17   O     O_R   0.763190 0.458310 0.535350 -0.526867
O18   O     O_R   0.414000 0.207090 0.472140 -0.541243
O19   O     O_R   0.613120 0.765800 0.436110 -0.542257
Zn1   Zn    Zn3+2 0.577310 0.422690 0.565550 0.971638
Zn2   Zn    Zn3+2 0.403760 0.371330 0.445150 0.952022
Zn3   Zn    Zn3+2 0.634990 0.589920 0.423760 0.939443
Zn4   Zn    Zn3+2 0.383940 0.616050 0.565540 0.947907

loop_
_geom_bond_atom_site_label_1
_geom_bond_atom_site_label_2
_ccdc_geom_bond_type
C15   O18   A    
C24   H7    S    
C7    H1    S    
O5    Zn1   S    
O12   Zn1   S    
C1    C11   S    
O19   Zn3   S    
C6    C9    A    
C2    H22   S    
C7    C8    A    
C22   C35   S    
C21   C31   A    
C26   C27   S    
C1    O14   A    
C18   C19   S    
O15   Zn3   S    
C25   H5    S    
C5    C6    A    
C3    H19   S    
C17   C20   S    
C8    C26   S    
C2    C32   A    
C34   C35   A    
C28   O9    S    
O1    Zn1   S    
C17   O4    A    
C22   O6    D    
C29   O10   D    
C27   H9    S    
C14   H17   S    
O17   Zn1   S    
C4    O17   A    
C26   H13   S    
C27   H10   S    
C13   C14   D    
C24   H6    S    
O2    Zn2   S    
C15   O12   A    
H14   O9    S    
O13   Zn4   S    
C23   C30   A    
C16   O13   A    
C24   C25   S    
C5    C7    A    
O1    Zn2   S    
C18   O5    A    
C12   C21   A    
C13   C24   S    
C19   C23   A    
C25   H3    S    
C29   O11   S    
C9    C20   A    
C33   C34   A    
C8    C20   A    
C23   C28   S    
C12   H21   S    
O1    Zn3   S    
C17   O2    A    
C18   O3    A    
C31   C35   A    
C9    H18   S    
C4    C10   S    
C4    O15   A    
H2    O7    S    
C21   H20   S    
O3    Zn4   S    
C16   O19   A    
C3    C5    A    
O1    Zn4   S    
C6    C33   A    
C1    O16   A    
C32   C33   A    
C28   O8    D    
C25   H4    S    
C30   C32   A    
C30   C31   A    
O4    Zn3   S    
C29   C34   S    
C12   C19   A    
O16   Zn4   S    
C2    C3    A    
O18   Zn2   S    
C11   H16   S    
C10   C11   D    
C26   H11   S    
C22   O7    S    
C27   H8    S    
C13   C16   S    
C10   H12   S    
C14   C15   S    
H15   O11   S    
O14   Zn2   S    
