data_mof_unit_11184.cif
_audit_creation_date              2012-12-11T15:33:38-0500
_audit_creation_method            fapswitch 2.2
_symmetry_space_group_name_H-M    P1
_symmetry_Int_Tables_number       1
_space_group_crystal_system       triclinic
_cell_length_a                    27.221847
_cell_length_b                    7.198067
_cell_length_c                    22.732728
_cell_angle_alpha                 89.961793
_cell_angle_beta                  101.190514
_cell_angle_gamma                 89.952189
_cell_volume                      4369.66464404

loop_
_atom_site_label
_atom_site_type_symbol
_atom_type_description
_atom_site_fract_x
_atom_site_fract_y
_atom_site_fract_z
_atom_type_partial_charge
O1    O     O_R   0.207310 0.594030 0.676830 -0.544910
O2    O     O_R   0.792690 0.405970 0.323170 -0.544911
O3    O     O_R   0.292690 0.094030 0.823170 -0.537136
O4    O     O_R   0.707310 0.905970 0.176830 -0.537133
O5    O     O_R   0.197320 0.262370 0.795700 -0.523559
O6    O     O_R   0.802680 0.737630 0.204300 -0.523560
O7    O     O_R   0.302680 0.762370 0.704300 -0.523769
O8    O     O_R   0.697320 0.237630 0.295700 -0.523760
C1    C     C_R   0.184543 0.432324 0.811766 0.808383
C2    C     C_R   0.815457 0.567676 0.188234 0.808376
C3    C     C_R   0.315445 0.932288 0.688219 0.802818
C4    C     C_R   0.684555 0.067712 0.311783 0.802776
O9    O     O_R   0.201410 0.264250 0.675590 -0.533052
O10   O     O_R   0.798590 0.735750 0.324410 -0.533061
O11   O     O_R   0.298590 0.764250 0.824410 -0.535849
O12   O     O_R   0.701410 0.235750 0.175590 -0.535851
O13   O     O_R   0.296810 0.094940 0.702210 -0.507569
O14   O     O_R   0.703190 0.905060 0.297790 -0.507531
O15   O     O_R   0.203190 0.594940 0.797790 -0.507880
O16   O     O_R   0.796810 0.405060 0.202210 -0.507881
C5    C     C_R   0.189753 0.432771 0.653492 0.880833
C6    C     C_R   0.810246 0.567229 0.346508 0.880835
C7    C     C_R   0.310239 0.932520 0.846531 0.878570
C8    C     C_R   0.689761 0.067480 0.153469 0.878565
O17   O     O_3   0.281300 0.427390 0.758870 -0.380004
O18   O     O_3   0.718700 0.572610 0.241130 -0.379979
O19   O     O_3   0.218700 0.927390 0.741130 -0.384056
O20   O     O_3   0.781300 0.072610 0.258870 -0.384062
V1    V     V_3+5 0.244190 0.152150 0.748350 1.651555
V2    V     V_3+5 0.755810 0.847850 0.251650 1.651574
V3    V     V_3+5 0.255810 0.652150 0.751650 1.644008
V4    V     V_3+5 0.744190 0.347850 0.248350 1.644031
C9    C     C_R   0.654808 0.061860 0.095002 -0.293513
C10   C     C_R   0.345192 0.938140 0.904998 -0.293510
C11   C     C_R   0.845158 0.560418 0.404989 -0.339129
C12   C     C_R   0.154839 0.439582 0.595013 -0.339155
C13   C     C_R   0.640783 0.099619 0.987041 0.127457
C14   C     C_R   0.359217 0.900386 0.012959 0.127459
C15   C     C_R   0.859117 0.610127 0.512314 0.118418
C16   C     C_R   0.140878 0.389877 0.487685 0.118434
C17   C     C_R   0.672502 0.107219 0.043301 0.479162
C18   C     C_R   0.327497 0.892785 0.956699 0.479160
C19   C     C_R   0.826732 0.593691 0.456976 0.579900
C20   C     C_R   0.173264 0.406320 0.543022 0.579938
C21   C     C_R   0.603994 0.017839 0.091199 0.502698
C22   C     C_R   0.396006 0.982157 0.908801 0.502689
C23   C     C_R   0.896704 0.532457 0.408408 0.499837
C24   C     C_R   0.103291 0.467535 0.591599 0.499860
C25   C     C_R   0.569293 0.027393 0.035128 -0.108774
C26   C     C_R   0.430707 0.972604 0.964871 -0.108772
C27   C     C_R   0.930799 0.531577 0.465010 -0.087466
C28   C     C_R   0.069195 0.468414 0.534996 -0.087478
C29   C     C_R   0.589396 0.055252 0.982346 -0.158417
C30   C     C_R   0.410604 0.944747 0.017654 -0.158413
C31   C     C_R   0.911697 0.585305 0.516753 -0.208125
C32   C     C_R   0.088296 0.414689 0.483252 -0.208133
C33   C     C_R   0.515779 0.006712 0.029102 -0.004489
C34   C     C_R   0.484221 0.993283 0.970898 -0.004490
C35   C     C_R   0.983283 0.485820 0.471917 -0.005713
C36   C     C_R   0.016711 0.514165 0.528091 -0.005716
C37   C     C_R   0.507513 0.993982 0.920811 -0.163418
C38   C     C_R   0.492487 0.006013 0.079189 -0.163414
C39   C     C_R   0.996810 0.593325 0.574918 -0.120369
C40   C     C_R   0.003183 0.406656 0.425090 -0.120366
C41   C     C_R   0.558075 0.032379 0.925884 0.689239
C42   C     C_R   0.441925 0.967618 0.074116 0.689224
C43   C     C_R   0.945762 0.619411 0.570761 0.632848
C44   C     C_R   0.054231 0.380572 0.429244 0.632868
H1    H     H_    0.487878 0.960381 0.876410 0.233607
H2    H     H_    0.512122 0.039612 0.123590 0.233614
H3    H     H_    0.020038 0.642203 0.615665 0.230348
H4    H     H_    0.979954 0.357771 0.384345 0.230349
C45   C     C_R   0.643987 0.903753 0.388101 0.600978
C46   C     C_R   0.355988 0.096160 0.611866 0.601048
C47   C     C_R   0.856230 0.403387 0.112161 0.597240
C48   C     C_R   0.143769 0.596612 0.887839 0.597239
C49   C     C_R   0.607977 0.891901 0.424250 -0.250408
C50   C     C_R   0.392005 0.108025 0.575728 -0.250478
C51   C     C_R   0.892246 0.391531 0.076025 -0.257559
C52   C     C_R   0.107753 0.608469 0.923975 -0.257562
H5    H     H_    0.608516 0.771295 0.452866 0.223490
H6    H     H_    0.391436 0.228540 0.547066 0.223439
H7    H     H_    0.891830 0.270760 0.047556 0.221320
H8    H     H_    0.108170 0.729239 0.952444 0.221319
C53   C     C_R   0.572178 0.032657 0.424123 -0.209202
C54   C     C_R   0.427851 0.967395 0.575926 -0.209237
C55   C     C_R   0.927878 0.532532 0.075949 -0.207539
C56   C     C_R   0.072121 0.467469 0.924050 -0.207538
C57   C     C_R   0.573214 0.187033 0.386073 0.633221
C58   C     C_R   0.426855 0.813138 0.614037 0.633269
C59   C     C_R   0.926699 0.687093 0.113817 0.628600
C60   C     C_R   0.073301 0.312908 0.886182 0.628600
C61   C     C_R   0.609207 0.199884 0.349120 0.039899
C62   C     C_R   0.390843 0.800245 0.650966 0.039948
C63   C     C_R   0.890710 0.699933 0.150775 0.042636
C64   C     C_R   0.109290 0.300067 0.849224 0.042639
C65   C     C_R   0.645426 0.057727 0.349943 -0.231525
C66   C     C_R   0.354580 0.942280 0.650071 -0.231618
C67   C     C_R   0.854618 0.557611 0.150114 -0.232676
C68   C     C_R   0.145381 0.442389 0.849886 -0.232676
N1    N     N_R   0.500027 0.151919 0.465690 -0.153903
N2    N     N_R   0.500008 0.848138 0.534369 -0.153880
N3    N     N_R   0.999452 0.653078 0.033609 -0.156337
N4    N     N_R   0.000548 0.346922 0.966391 -0.156336
N5    N     N_R   0.466503 0.136301 0.501116 -0.253379
N6    N     N_R   0.533532 0.863756 0.498942 -0.253310
N7    N     N_R   0.032955 0.637512 0.998153 -0.255808
N8    N     N_R   0.967045 0.362489 0.001847 -0.255806
C69   C     C_R   0.465663 0.984016 0.536356 0.598705
C70   C     C_R   0.534372 0.016043 0.463703 0.598701
C71   C     C_R   0.034328 0.484045 0.963641 0.596466
C72   C     C_R   0.965671 0.515955 0.036358 0.596465
F1    F     F_    0.576328 0.038257 0.874389 -0.611983
F2    F     F_    0.423672 0.961739 0.125611 -0.612007
F3    F     F_    0.930926 0.687706 0.620120 -0.670872
F4    F     F_    0.069066 0.312276 0.379885 -0.670878
F5    F     F_    0.409348 0.045588 0.857956 -0.697713
F6    F     F_    0.590653 0.954406 0.142043 -0.697701
F7    F     F_    0.087295 0.473884 0.644478 -0.698057
F8    F     F_    0.912702 0.526099 0.355531 -0.698057
F9    F     F_    0.278520 0.847317 0.952763 -0.626206
F10   F     F_    0.721479 0.152692 0.047237 -0.626205
F11   F     F_    0.223226 0.381058 0.546436 -0.593403
F12   F     F_    0.776770 0.618980 0.453559 -0.593464
N9    N     N_3   0.661031 0.140213 0.934738 -0.492114
H9    H     H_    0.690147 0.046667 0.933108 0.281801
H10   H     H_    0.676101 0.274216 0.939154 0.272126
N10   N     N_3   0.338967 0.859802 0.065262 -0.492127
H11   H     H_    0.309851 0.953350 0.066890 0.281795
H12   H     H_    0.323897 0.725799 0.060848 0.272123
N11   N     N_3   0.836897 0.651706 0.563034 -0.517524
H13   H     H_    0.847602 0.550536 0.596058 0.292911
H14   H     H_    0.848535 0.783320 0.579417 0.299035
N12   N     N_3   0.163096 0.348310 0.436961 -0.517531
H15   H     H_    0.152389 0.449480 0.403938 0.292905
H16   H     H_    0.151464 0.216690 0.420579 0.299038
F13   F     F_    0.678180 0.764744 0.391780 -0.614692
F14   F     F_    0.321759 0.235065 0.608134 -0.614523
F15   F     F_    0.822215 0.264067 0.108682 -0.617440
F16   F     F_    0.177785 0.735932 0.891318 -0.617440
F17   F     F_    0.539197 0.326240 0.383995 -0.631374
F18   F     F_    0.460933 0.674104 0.616204 -0.631294
F19   F     F_    0.960603 0.826414 0.115752 -0.633425
F20   F     F_    0.039397 0.173587 0.884246 -0.633422
N13   N     N_3   0.607936 0.356179 0.309742 -0.579517
H17   H     H_    0.611868 0.477087 0.335697 0.295688
H18   H     H_    0.572820 0.359895 0.281266 0.276171
N14   N     N_3   0.392146 0.644061 0.690398 -0.579589
H19   H     H_    0.388303 0.523046 0.664497 0.295508
H20   H     H_    0.427238 0.640657 0.718930 0.276188
N15   N     N_3   0.891867 0.856367 0.190005 -0.574614
H21   H     H_    0.887842 0.977167 0.163934 0.292698
H22   H     H_    0.926984 0.860285 0.218468 0.281796
N16   N     N_3   0.108133 0.143635 0.809994 -0.574611
H23   H     H_    0.112157 0.022834 0.836064 0.292697
H24   H     H_    0.073015 0.139718 0.781530 0.281800

loop_
_geom_bond_atom_site_label_1
_geom_bond_atom_site_label_2
_ccdc_geom_bond_type
C21   F6    S    
O17   V3    S    
C25   C29   A    
O1    C5    A    
C55   C59   A    
O19   V1    S    
C9    C21   A    
O3    C7    A    
C10   C18   A    
O1    V3    S    
C52   H8    S    
C40   H4    S    
C11   C23   A    
N10   H11   S    
C51   C55   A    
N13   H17   S    
C25   C33   A    
C33   C38   A    
C46   C66   A    
C5    C12   S    
O7    C3    A    
C6    C11   S    
C46   F14   S    
C35   C40   A    
C26   C30   A    
C45   F13   S    
C3    C66   S    
C40   C44   A    
O9    V1    S    
N14   H20   S    
C14   C18   A    
N6    C70   A    
O4    C8    A    
C63   C67   A    
C62   C66   A    
C60   C64   A    
O13   V1    S    
C38   H2    S    
O2    V4    S    
O3    V1    S    
C43   F3    S    
C28   C36   A    
C56   C71   S    
C1    O15   A    
C64   N16   S    
C56   C60   A    
C2    O16   A    
C16   C32   A    
O2    C6    A    
N15   H21   S    
C61   N13   S    
C10   C22   A    
C21   C25   A    
C11   C19   A    
C16   C20   A    
C59   F19   S    
C13   C29   A    
C50   C54   A    
C34   C37   A    
O11   C7    A    
O15   V3    S    
C35   C36   A    
O12   C8    A    
C62   N14   S    
C41   F1    S    
O10   V2    S    
N13   H18   S    
C58   C62   A    
C24   F7    S    
C13   N9    S    
C48   F16   S    
N1    N5    A    
C39   C43   A    
O7    V3    S    
C38   C42   A    
O8    V4    S    
C48   C68   A    
C54   C69   S    
N14   H19   S    
C53   C70   S    
C54   C58   A    
C53   C57   A    
O18   V4    S    
C15   C31   A    
N12   H16   S    
C55   C72   S    
N1    C70   A    
C32   C44   A    
C16   N12   S    
C57   C61   A    
N8    C72   A    
C22   F5    S    
N3    C72   A    
C26   C34   A    
N16   H24   S    
C45   C65   A    
O5    C1    A    
C50   H6    S    
C31   C43   A    
C14   C30   A    
C49   H5    S    
O8    C4    A    
C7    C10   S    
C47   C67   A    
C4    C65   S    
O9    C5    A    
C14   N10   S    
N16   H23   S    
C58   F18   S    
C44   F4    S    
O14   V2    S    
C17   F10   S    
C23   F8    S    
O6    V2    S    
C39   H3    S    
C1    C68   S    
C36   C39   A    
N9    H9    S    
C12   C20   A    
C27   C35   A    
N11   H13   S    
O5    V1    S    
C61   C65   A    
N4    N8    A    
C29   C41   A    
O16   V4    S    
C37   H1    S    
N5    C69   A    
C3    O13   A    
C42   F2    S    
N7    C71   A    
C48   C52   A    
N11   H14   S    
N10   H12   S    
O6    C2    A    
N4    C71   A    
C23   C27   A    
O11   V3    S    
N12   H15   S    
C30   C42   A    
O12   V4    S    
C22   C26   A    
C20   F11   S    
C8    C9    S    
C9    C17   A    
O10   C6    A    
O20   V2    S    
C52   C56   A    
C47   F15   S    
C51   H7    S    
C33   C34   A    
C15   N11   S    
C57   F17   S    
C64   C68   A    
C12   C24   A    
C27   C31   A    
N15   H22   S    
C13   C17   A    
C2    C67   S    
C60   F20   S    
C49   C53   A    
C37   C41   A    
C24   C28   A    
C63   N15   S    
C15   C19   A    
C59   C63   A    
C46   C50   A    
N2    N6    A    
C4    O14   A    
N9    H10   S    
C45   C49   A    
N2    C69   A    
N3    N7    A    
C47   C51   A    
C19   F12   S    
O4    V2    S    
C28   C32   A    
C18   F9    S    
