data_mof_unit_30655.cif
_audit_creation_date              2012-12-10T17:54:25-0500
_audit_creation_method            fapswitch 2.2
_symmetry_space_group_name_H-M    P1
_symmetry_Int_Tables_number       1
_space_group_crystal_system       triclinic
_cell_length_a                    27.735787
_cell_length_b                    10.618357
_cell_length_c                    9.90953
_cell_angle_alpha                 89.881632
_cell_angle_beta                  90.037658
_cell_angle_gamma                 91.729583
_cell_volume                      2917.10434214

loop_
_atom_site_label
_atom_site_type_symbol
_atom_type_description
_atom_site_fract_x
_atom_site_fract_y
_atom_site_fract_z
_atom_type_partial_charge
C1    C     C_R   0.501233 0.260726 0.500149 0.854971
C2    C     C_R   0.971928 0.367347 0.518241 0.054288
C3    C     C_R   0.975968 0.599641 0.528852 0.047230
C4    C     C_R   0.406036 0.500151 0.499835 0.856168
C5    C     C_R   0.948737 0.484642 0.521379 0.070257
C6    C     C_R   0.942995 0.255246 0.521557 -0.215405
C7    C     C_R   0.893060 0.258591 0.519113 -0.136570
C8    C     C_R   0.870083 0.373579 0.514640 -0.021747
C9    C     C_R   0.897736 0.487004 0.516705 -0.053074
C10   C     C_R   0.874281 0.602823 0.513942 -0.020332
C11   C     C_R   0.823905 0.602979 0.508834 0.503442
C12   C     C_R   0.279508 0.446028 0.624232 -0.095068
C13   C     C_R   0.819763 0.378132 0.509803 0.503851
C14   C     C_R   0.722144 0.480705 0.382322 -0.105384
C15   C     C_R   0.672076 0.483418 0.380304 -0.207850
C16   C     C_R   0.501381 0.739439 0.499835 0.876435
C17   C     C_R   0.671659 0.512869 0.623596 -0.235388
C18   C     C_R   0.721664 0.510546 0.625131 -0.110603
C19   C     C_R   0.746790 0.494218 0.504690 0.330733
C20   C     C_R   0.023003 0.365858 0.512236 0.035105
C21   C     C_R   0.050228 0.480092 0.526673 0.072228
C22   C     C_R   0.026791 0.596638 0.540391 0.048299
C23   C     C_R   0.252531 0.483252 0.513242 0.308290
C24   C     C_R   0.047729 0.253701 0.489490 -0.256528
C25   C     C_R   0.104909 0.704031 0.568379 -0.126469
C26   C     C_R   0.951316 0.714264 0.522368 -0.215545
C27   C     C_R   0.901423 0.715538 0.515409 -0.137802
C28   C     C_R   0.593890 0.500237 0.500140 0.840051
C29   C     C_R   0.055118 0.706744 0.565903 -0.215909
C30   C     C_R   0.582345 0.137432 0.623355 -0.175309
C31   C     C_R   0.620347 0.074539 0.682874 -0.111502
C32   C     C_R   0.620409 0.943486 0.682540 -0.120116
C33   C     C_R   0.582484 0.874881 0.622613 -0.189927
C34   C     C_R   0.101356 0.478301 0.526537 -0.061130
C35   C     C_R   0.543373 0.937252 0.563089 0.094204
C36   C     C_R   0.543290 0.069234 0.563485 0.096637
C37   C     C_R   0.504496 0.128685 0.500023 -0.087410
C38   C     C_R   0.467882 0.061873 0.433039 -0.210295
C39   C     C_R   0.467970 0.933258 0.432656 -0.187588
C40   C     C_R   0.176509 0.368553 0.503814 0.504807
C41   C     C_R   0.504668 0.871973 0.499272 -0.101024
C42   C     C_R   0.436598 0.335124 0.140376 -0.143597
C43   C     C_R   0.405365 0.253877 0.070291 -0.181307
C44   C     C_R   0.405457 0.253609 0.930614 -0.189231
C45   C     C_R   0.125525 0.364131 0.506090 -0.067915
C46   C     C_R   0.436773 0.334619 0.860224 -0.159752
C47   C     C_R   0.468813 0.418565 0.927836 0.174820
C48   C     C_R   0.468776 0.418714 0.072444 0.177189
C49   C     C_R   0.529879 0.577785 0.071372 -0.107705
C50   C     C_R   0.529860 0.577779 0.928225 -0.110128
C51   C     C_R   0.178570 0.590318 0.543092 0.512283
C52   C     C_R   0.275265 0.526630 0.395642 -0.143159
C53   C     C_R   0.325443 0.533497 0.388022 -0.040357
C54   C     C_R   0.329468 0.452563 0.618236 -0.226959
C55   C     C_1   0.118946 0.130635 0.461999 0.266481
C56   C     C_R   0.097859 0.251496 0.486639 0.007934
C57   C     C_1   0.346983 0.582554 0.265232 0.204676
C58   C     C_R   0.128352 0.591585 0.546127 -0.019801
C59   C     C_R   0.353100 0.496069 0.500756 -0.090190
C60   C     C_R   0.646519 0.499185 0.501117 -0.038171
H1    H     H_    0.349581 0.422724 0.705723 0.167557
H2    H     H_    0.584339 0.239212 0.623077 0.155045
H3    H     H_    0.650059 0.127705 0.728191 0.152918
H4    H     H_    0.261669 0.412866 0.715349 0.143274
H5    H     H_    0.650164 0.894816 0.727614 0.149259
H6    H     H_    0.584583 0.773372 0.621659 0.142645
H7    H     H_    0.438819 0.881102 0.382902 0.161243
H8    H     H_    0.554297 0.641336 0.125029 0.148951
H9    H     H_    0.434412 0.329603 0.247367 0.196491
H10   H     H_    0.380976 0.190655 0.124885 0.157312
H11   H     H_    0.381119 0.190224 0.876256 0.160563
H12   H     H_    0.253553 0.555924 0.310787 0.141959
H13   H     H_    0.434749 0.328736 0.753222 0.201457
H14   H     H_    0.554257 0.641346 0.874276 0.143069
H15   H     H_    0.653472 0.472437 0.284726 0.162503
H16   H     H_    0.741837 0.468210 0.289214 0.135428
H17   H     H_    0.872505 0.170181 0.520896 0.191995
H18   H     H_    0.957708 0.162800 0.529302 0.139488
H19   H     H_    0.028798 0.165650 0.468917 0.136941
H20   H     H_    0.125025 0.791269 0.587280 0.200266
H21   H     H_    0.969565 0.805198 0.518724 0.138375
H22   H     H_    0.652791 0.525549 0.718038 0.159833
H23   H     H_    0.884208 0.805717 0.510875 0.188193
H24   H     H_    0.740970 0.521123 0.719658 0.134651
H25   H     H_    0.039905 0.796692 0.587257 0.141833
H26   H     H_    0.438685 0.109569 0.383447 0.142738
N1    N     N_R   0.201257 0.480385 0.520987 -0.353951
N2    N     N_R   0.798014 0.491682 0.506974 -0.359230
N3    N     N_R   0.499540 0.498800 0.142780 -0.121904
N4    N     N_R   0.499520 0.498720 0.857170 -0.121438
N5    N     N_1   0.135578 0.033724 0.442195 -0.166499
N6    N     N_1   0.364175 0.621814 0.166786 -0.185731
O1    O     O_R   0.500000 0.316780 0.614690 -0.640680
O2    O     O_R   0.571250 0.499990 0.614680 -0.636308
O3    O     O_R   0.571240 0.499970 0.385350 -0.616005
O4    O     O_2   0.201517 0.263251 0.483699 -0.544554
O5    O     O_2   0.792682 0.270339 0.508444 -0.553189
O6    O     O_2   0.204777 0.698189 0.561577 -0.544616
O7    O     O_2   0.800852 0.713133 0.505792 -0.553362
O8    O     O_R   0.500000 0.316750 0.385360 -0.630553
O9    O     O_R   0.428760 0.500030 0.614650 -0.629087
O10   O     O_R   0.428750 0.500010 0.385320 -0.631113
O11   O     O_R   0.500000 0.683250 0.614640 -0.611830
O12   O     O_R   0.500000 0.683220 0.385310 -0.608550
Zn1   Zn    Zn3+2 0.500000 0.500020 0.653130 0.939247
Zn2   Zn    Zn3+2 0.500000 0.499980 0.346870 0.951230

loop_
_geom_bond_atom_site_label_1
_geom_bond_atom_site_label_2
_ccdc_geom_bond_type
C10   C27   A    
C15   H15   S    
C55   C56   S    
O2    Zn1   S    
C8    C13   A    
C57   N6    T    
C25   H20   S    
C15   C60   A    
C49   H8    S    
C35   C36   A    
O12   Zn2   S    
C53   C59   A    
C7    C8    A    
C39   C41   A    
C31   C32   A    
C12   C23   A    
C26   C27   A    
C38   H26   S    
C28   O3    A    
C40   N1    A    
C11   O7    S    
C36   C37   A    
C22   C29   A    
C18   C19   A    
C50   H14   S    
C30   C31   A    
C12   H4    S    
C6    H18   S    
C13   N2    A    
C44   H11   S    
C28   O2    A    
C17   H22   S    
C55   N5    T    
C24   H19   S    
O1    Zn1   S    
C50   N4    A    
C20   C24   A    
C45   C56   A    
C44   C46   A    
C8    C9    A    
C4    O10   A    
N3    Zn2   S    
C18   H24   S    
C9    C10   A    
C29   H25   S    
C1    C37   S    
C7    H17   S    
C51   O6    S    
C23   N1    S    
C21   C22   A    
O9    Zn1   S    
C2    C6    A    
C40   O4    S    
C1    O8    A    
C16   O12   A    
C33   H6    S    
C54   C59   A    
C28   C60   S    
C25   C29   A    
C40   C45   A    
C2    C20   A    
C31   H3    S    
C19   N2    S    
C51   N1    A    
C51   C58   A    
C53   C57   S    
C21   C34   A    
C42   H9    S    
C14   H16   S    
C43   C44   A    
C5    C9    A    
C37   C38   A    
C52   H12   S    
O3    Zn2   S    
C16   O11   A    
C47   C48   A    
C11   N2    A    
C4    O9    A    
C17   C18   A    
O11   Zn1   S    
C34   C45   A    
C42   C48   A    
C43   H10   S    
C48   N3    A    
C30   H2    S    
C47   N4    A    
C2    C5    A    
C24   C56   A    
C42   C43   A    
C52   C53   A    
C46   C47   A    
C39   H7    S    
C14   C19   A    
C3    C26   A    
N4    Zn1   S    
C49   N3    A    
C3    C5    A    
C6    C7    A    
C54   H1    S    
C26   H21   S    
O8    Zn2   S    
C30   C36   A    
C32   C33   A    
C27   H23   S    
C23   C52   A    
C38   C39   A    
C4    C59   S    
C33   C35   A    
O10   Zn2   S    
C13   O5    S    
C35   C41   A    
C10   C11   A    
C17   C60   A    
C20   C21   A    
C1    O1    A    
C49   C50   A    
C25   C58   A    
C34   C58   A    
C14   C15   A    
C3    C22   A    
C16   C41   S    
C46   H13   S    
C12   C54   A    
C32   H5    S    
