data_mof_unit_29302.cif
_audit_creation_date              2013-03-05T15:49:44-0500
_audit_creation_method            fapswitch 2.2
_symmetry_space_group_name_H-M    P1
_symmetry_Int_Tables_number       1
_space_group_crystal_system       triclinic
_cell_length_a                    11.998292
_cell_length_b                    12.892162
_cell_length_c                    13.096731
_cell_angle_alpha                 87.432385
_cell_angle_beta                  112.86925
_cell_angle_gamma                 93.337355
_cell_volume                      1862.902537

loop_
_atom_site_label
_atom_site_type_symbol
_atom_site_description
_atom_site_fract_x
_atom_site_fract_y
_atom_site_fract_z
_atom_type_partial_charge
O1    O     O_R   0.579910 0.341070 0.505280 -0.630233
O2    O     O_R   0.388440 0.353740 0.492580 -0.622542
C1    C     C_R   0.477400 0.299479 0.498143 0.888316
O3    O     O_R   0.643280 0.490550 0.663120 -0.618617
O4    O     O_R   0.451810 0.503220 0.650420 -0.618669
C2    C     C_R   0.566742 0.500780 0.708352 0.874904
Zn1   Zn    Zn3+2 0.627850 0.491540 0.508480 0.966808
Zn2   Zn    Zn3+2 0.372150 0.508460 0.491520 0.940802
O5    O     O_R   0.611560 0.646260 0.507420 -0.629025
O6    O     O_R   0.420090 0.658930 0.494720 -0.642013
O7    O     O_R   0.548190 0.496780 0.349580 -0.575549
O8    O     O_R   0.356720 0.509450 0.336880 -0.615504
C3    C     C_R   0.522711 0.700494 0.502172 0.880462
C4    C     C_R   0.434183 0.505779 0.291367 0.884235
C5    C     C_R   0.292659 0.634284 0.011245 -0.200273
H1    H     H_    0.241266 0.615260 0.151069 0.160254
H2    H     H_    0.297090 0.703994 0.817087 0.143458
H3    H     H_    0.217996 0.683238 0.965531 0.140289
C6    C     C_R   0.398741 0.528420 0.173639 -0.081306
C7    C     C_R   0.717862 0.459392 0.893822 -0.267063
C8    C     C_R   0.757256 0.457656 0.008347 -0.203858
C9    C     C_R   0.686065 0.497249 0.059058 0.311317
C10   C     C_R   0.570706 0.536223 0.991753 -0.033948
C11   C     C_R   0.543780 0.556802 0.878517 0.045510
C12   C     C_R   0.479149 0.552635 0.031191 0.109314
C13   C     C_R   0.380176 0.614452 0.968870 0.173434
C14   C     C_R   0.369897 0.654045 0.865006 -0.245565
C15   C     C_R   0.449378 0.623836 0.819059 -0.170379
C16   C     C_R   0.478907 0.502183 0.127061 -0.182461
C17   C     C_R   0.303695 0.593375 0.115109 -0.193360
C18   C     C_R   0.611325 0.508524 0.828319 -0.111015
H4    H     H_    0.544044 0.444204 0.169182 0.173924
H5    H     H_    0.771726 0.423376 0.856448 0.176031
H6    H     H_    0.844256 0.426259 0.057739 0.185726
H7    H     H_    0.436850 0.654525 0.737311 0.167427
C19   C     C_R   0.536158 0.811762 0.503302 -0.049808
C20   C     C_R   0.464373 0.188142 0.498032 -0.055805
C21   C     C_R   0.356725 0.029331 0.514674 -0.219049
C22   C     C_R   0.363779 0.136848 0.509774 -0.198783
C23   C     C_R   0.556829 0.132703 0.489424 -0.279627
C24   C     C_R   0.550868 0.025950 0.494734 0.184854
C25   C     C_R   0.450169 0.973922 0.507673 0.189690
C26   C     C_R   0.444076 0.867149 0.512691 -0.288446
C27   C     C_R   0.636877 0.863065 0.491825 -0.192202
C28   C     C_R   0.644247 0.970567 0.487584 -0.217500
H8    H     H_    0.366631 0.827425 0.522834 0.154656
H9    H     H_    0.708470 0.820362 0.484517 0.158580
H10   H     H_    0.279099 0.989699 0.524362 0.137256
H11   H     H_    0.721893 0.010207 0.477941 0.141958
H12   H     H_    0.291976 0.179578 0.516647 0.159174
H13   H     H_    0.634311 0.172371 0.479306 0.163749
N1    N     N_R   0.798200 0.480260 0.519790 -0.107027
N2    N     N_R   0.201820 0.519740 0.480210 -0.099222
C29   C     C_R   0.021831 0.618313 0.423781 -0.264386
C30   C     C_R   0.138610 0.604191 0.427128 0.003426
C31   C     C_R   0.151312 0.446580 0.530446 -0.031367
C32   C     C_R   0.033380 0.457057 0.528282 0.090890
C33   C     C_R   0.968206 0.544548 0.474850 0.121687
C34   C     C_R   0.850346 0.555097 0.472867 0.050520
C35   C     C_R   0.861230 0.395616 0.572556 0.017651
C36   C     C_R   0.979110 0.382655 0.578120 -0.316396
H14   H     H_    0.799519 0.622289 0.432627 0.149141
H15   H     H_    0.819844 0.337268 0.610235 0.130352
H16   H     H_    0.973908 0.686294 0.381444 0.160240
H17   H     H_    0.026889 0.314540 0.620249 0.142413
H18   H     H_    0.179284 0.661747 0.387984 0.132704
H19   H     H_    0.203182 0.380518 0.572916 0.122527
N3    N     N_R   0.738936 0.510497 0.176802 0.184540
O9    O     O_R   0.725699 0.596666 0.218085 -0.433757
O10   O     O_R   0.814006 0.443792 0.240930 -0.423465

loop_
_geom_bond_atom_site_label_1
_geom_bond_atom_site_label_2
_geom_bond_distance
_ccdc_geom_bond_type
Zn2   N2    2.004260 S    
O4    Zn2   1.922979 S    
C10   C11   1.405862 A    
C32   C36   1.404150 A    
N1    C34   1.369451 A    
C5    H3    1.083684 S    
C23   H13   1.085203 S    
C24   C25   1.411748 A    
C21   H10   1.084093 S    
C27   H9    1.083417 S    
C28   H11   1.084091 S    
Zn2   O8    1.960287 S    
C22   H12   1.083395 S    
N2    C30   1.364689 A    
O2    C1    1.286807 A    
C32   C33   1.407155 A    
C11   C18   1.409229 A    
C20   C22   1.399977 A    
C6    C16   1.387130 A    
O1    Zn1   1.988566 S    
C8    C9    1.397613 A    
C31   C32   1.418440 A    
Zn1   O7    1.922979 S    
C6    C17   1.401274 A    
C9    N3    1.435327 S    
C13   C14   1.393150 A    
C21   C22   1.383921 A    
C29   H16   1.083289 S    
C5    C17   1.396390 A    
O3    Zn1   1.960286 S    
C7    H5    1.083534 S    
O3    C2    1.286694 A    
C23   C24   1.374015 A    
C26   H8    1.085257 S    
O8    C4    1.288269 A    
Zn1   N1    2.004498 S    
C21   C25   1.398116 A    
C16   H4    1.081568 S    
C10   C12   1.412857 A    
C12   C16   1.388885 A    
O4    C2    1.291493 A    
C34   H14   1.082056 S    
O7    C4    1.290656 A    
C35   H15   1.081508 S    
C19   C27   1.399861 A    
C25   C26   1.374190 A    
H1    C17   1.083122 S    
C20   C23   1.396741 A    
C31   H19   1.082722 S    
C36   H17   1.083309 S    
C30   H18   1.081567 S    
O5    C3    1.286684 A    
C7    C8    1.385937 A    
C1    C20   1.434785 S    
C3    C19   1.434257 S    
Zn2   O6    1.988563 S    
C29   C33   1.404252 A    
N2    C31   1.370207 A    
C14   C15   1.390488 A    
Zn1   O5    2.014429 S    
N3    O10   1.301424 A    
C24   C28   1.398040 A    
C9    C10   1.427663 A    
N3    O9    1.301071 A    
C5    C13   1.404608 A    
C2    C18   1.455769 S    
C8    H6    1.082967 S    
N1    C35   1.364769 A    
O1    C1    1.283492 A    
C12   C13   1.417756 A    
C29   C30   1.406968 A    
C33   C34   1.418612 A    
C4    C6    1.451840 S    
O6    C3    1.283427 A    
O2    Zn2   2.014429 S    
C27   C28   1.383609 A    
C11   C15   1.415723 A    
C15   H7    1.081327 S    
C35   C36   1.407107 A    
C19   C26   1.396767 A    
C7    C18   1.401564 A    
H2    C14   1.083896 S    
