data_mof_unit_10944.cif
_audit_creation_date              2012-12-10T17:19:27-0500
_audit_creation_method            fapswitch 2.2
_symmetry_space_group_name_H-M    P1
_symmetry_Int_Tables_number       1
_space_group_crystal_system       triclinic
_cell_length_a                    15.075051
_cell_length_b                    10.775358
_cell_length_c                    9.601527
_cell_angle_alpha                 90.033855
_cell_angle_beta                  90.092147
_cell_angle_gamma                 92.548511
_cell_volume                      1558.11815935

loop_
_atom_site_label
_atom_site_type_symbol
_atom_type_description
_atom_site_fract_x
_atom_site_fract_y
_atom_site_fract_z
_atom_type_partial_charge
C1    C     C_R   0.496795 0.262591 0.499996 0.793861
C2    C     C_R   0.184788 0.467447 0.620747 -0.250765
C3    C     C_R   0.231797 0.497697 0.499292 -0.073239
C4    C     C_R   0.328759 0.499367 0.499882 0.785488
C5    C     C_R   0.186633 0.525730 0.376848 -0.236731
C6    C     C_R   0.355458 0.120595 0.646282 -0.187637
C7    C     C_R   0.289733 0.051603 0.717810 -0.138983
C8    C     C_R   0.289910 0.922528 0.718190 -0.126964
C9    C     C_R   0.355787 0.861636 0.646977 -0.171928
C10   C     C_R   0.424064 0.929669 0.575590 0.097388
C11   C     C_R   0.423917 0.060958 0.575347 0.099279
C12   C     C_R   0.907526 0.528723 0.376620 0.092684
C13   C     C_R   0.490627 0.128409 0.499806 -0.101810
C14   C     C_R   0.553087 0.067331 0.421201 -0.192136
C15   C     C_R   0.553204 0.939339 0.421323 -0.205522
C16   C     C_R   0.497116 0.737076 0.500051 0.767703
C17   C     C_R   0.490866 0.870486 0.500076 -0.089147
C18   C     C_R   0.618393 0.664625 0.144301 -0.152526
C19   C     C_R   0.676632 0.744553 0.072339 -0.225192
C20   C     C_R   0.676692 0.744492 0.928828 -0.199093
C21   C     C_R   0.618499 0.664519 0.856404 -0.138298
C22   C     C_R   0.558247 0.580848 0.925390 0.205433
C23   C     C_R   0.951060 0.435615 0.742477 -0.223025
C24   C     C_R   0.558213 0.580847 0.074943 0.216286
C25   C     C_R   0.444432 0.423305 0.073684 -0.058831
C26   C     C_R   0.444438 0.423350 0.925806 -0.056732
C27   C     C_R   0.671211 0.500714 0.500092 0.789168
C28   C     C_R   0.815095 0.529548 0.377872 -0.239788
C29   C     C_R   0.768026 0.501207 0.500238 -0.066681
C30   C     C_R   0.813650 0.472224 0.622301 -0.221864
C31   C     C_R   0.906004 0.469174 0.621984 0.030022
C32   C     C_R   0.953447 0.497636 0.498733 0.055330
C33   C     C_3   0.092776 0.595576 0.115914 -0.364725
C34   C     C_R   0.042997 0.427407 0.742339 0.378094
C35   C     C_3   0.130573 0.729409 0.120566 -0.848780
C36   C     C_R   0.091937 0.462069 0.621075 0.017843
C37   C     C_R   0.046479 0.495501 0.497864 -0.017542
C38   C     C_R   0.093848 0.527234 0.374141 0.099982
C39   C     C_R   0.046983 0.559382 0.251543 0.145729
C40   C     C_R   0.954124 0.558688 0.254793 -0.242948
Cu1   Cu    Cu3+1 0.499990 0.499990 0.640660 0.926451
Cu2   Cu    Cu3+1 0.500010 0.500010 0.359340 0.935576
H1    H     H_    0.779897 0.553015 0.283588 0.154945
H2    H     H_    0.722064 0.807146 0.872855 0.152565
H3    H     H_    0.623774 0.672712 0.746644 0.198119
H4    H     H_    0.777265 0.449710 0.716998 0.159116
H5    H     H_    0.398860 0.360489 0.870462 0.130771
H6    H     H_    0.914437 0.411574 0.836511 0.164087
H7    H     H_    0.221624 0.449246 0.714705 0.157742
H8    H     H_    0.225058 0.548478 0.284820 0.167074
H9    H     H_    0.917785 0.583139 0.161872 0.143151
H10   H     H_    0.603375 0.119273 0.361963 0.154109
H11   H     H_    0.132466 0.334267 0.835929 0.311075
H12   H     H_    0.350742 0.220391 0.645096 0.135453
H13   H     H_    0.179888 0.742824 0.205737 0.255357
H14   H     H_    0.163778 0.752605 0.020151 0.243546
H15   H     H_    0.076186 0.794141 0.136775 0.256685
H16   H     H_    0.145547 0.530587 0.090683 0.221137
H17   H     H_    0.044991 0.588190 0.027625 0.231215
H18   H     H_    0.237761 0.098501 0.771606 0.131564
H19   H     H_    0.238082 0.869234 0.772334 0.136044
H20   H     H_    0.351337 0.761296 0.646512 0.155774
H21   H     H_    0.603588 0.893750 0.362168 0.138405
H22   H     H_    0.398861 0.360409 0.128673 0.139944
H23   H     H_    0.623694 0.672834 0.254052 0.191732
H24   H     H_    0.721970 0.807212 0.128694 0.148148
N1    N     N_R   0.500860 0.501210 0.147910 -0.200178
N2    N     N_R   0.500890 0.501290 0.852040 -0.199997
O1    O     O_R   0.499990 0.319640 0.618810 -0.577336
O2    O     O_R   0.500000 0.319660 0.381240 -0.572882
O3    O     O_R   0.370250 0.499960 0.618800 -0.597109
O4    O     O_R   0.370260 0.499980 0.381230 -0.581473
O5    O     O_R   0.500000 0.680340 0.618760 -0.601371
O6    O     O_R   0.500010 0.680360 0.381190 -0.589644
O7    O     O_R   0.629740 0.500020 0.618770 -0.600191
O8    O     O_R   0.629750 0.500040 0.381200 -0.600044
O9    O     O_3   0.081695 0.384410 0.862227 -0.762961

loop_
_geom_bond_atom_site_label_1
_geom_bond_atom_site_label_2
_ccdc_geom_bond_type
C33   H16   S    
C27   C29   S    
Cu1   Cu2   S    
C19   C20   A    
C25   N1    A    
C7    C8    A    
C18   H23   S    
C33   C39   S    
C12   C28   A    
C16   O6    A    
C21   C22   A    
C36   C37   A    
C37   C38   A    
C34   O9    S    
C38   C39   A    
C10   C17   A    
Cu2   O2    S    
C19   H24   S    
C18   C19   A    
C24   N1    A    
C14   H10   S    
C8    C9    A    
C18   C24   A    
C9    C10   A    
C8    H19   S    
Cu1   O3    S    
C33   H17   S    
C13   C14   A    
C12   C32   A    
C6    H12   S    
C27   O7    A    
C20   H2    S    
Cu1   N2    S    
C21   H3    S    
Cu2   O6    S    
C35   H13   S    
C16   O5    A    
C6    C11   A    
C16   C17   S    
C25   C26   A    
C1    O1    A    
C9    H20   S    
C25   H22   S    
C23   C31   A    
C12   C40   A    
H11   O9    S    
C29   C30   A    
C2    H7    S    
Cu1   O7    S    
C31   C32   A    
C23   C34   A    
Cu2   O4    S    
C32   C37   A    
C22   N2    A    
C26   H5    S    
Cu2   N1    S    
C22   C24   A    
C5    H8    S    
C1    C13   S    
C27   O8    A    
C7    H18   S    
C4    O4    A    
Cu1   O1    S    
C2    C36   A    
C15   C17   A    
C28   C29   A    
C23   H6    S    
C35   H14   S    
C30   H4    S    
C3    C5    A    
C6    C7    A    
C40   H9    S    
C28   H1    S    
Cu2   O8    S    
C1    O2    A    
C35   H15   S    
C26   N2    A    
C2    C3    A    
C11   C13   A    
C30   C31   A    
C33   C35   S    
C34   C36   A    
C10   C11   A    
Cu1   O5    S    
C39   C40   A    
C20   C21   A    
C15   H21   S    
C14   C15   A    
C5    C38   A    
C4    O3    A    
C3    C4    S    
