data_mof_unit_54984.cif
_audit_creation_date              2012-12-11T16:51:05-0500
_audit_creation_method            fapswitch 2.2
_symmetry_space_group_name_H-M    P1
_symmetry_Int_Tables_number       1
_space_group_crystal_system       triclinic
_cell_length_a                    24.422203
_cell_length_b                    17.209408
_cell_length_c                    15.544798
_cell_angle_alpha                 89.986316
_cell_angle_beta                  128.87488
_cell_angle_gamma                 90.039725
_cell_volume                      5086.33087063

loop_
_atom_site_label
_atom_site_type_symbol
_atom_type_description
_atom_site_fract_x
_atom_site_fract_y
_atom_site_fract_z
_atom_type_partial_charge
C1    C     C_R   0.840726 0.871958 0.218119 -0.165324
C2    C     C_R   0.139739 0.186897 0.501259 0.068044
C3    C     C_3   0.686880 0.144290 0.402474 -0.845579
C4    C     C_3   0.073628 0.694128 0.893514 -0.981632
C5    C     C_3   0.926380 0.694376 0.106335 -0.981185
C6    C     C_3   0.564523 0.165967 0.865635 -0.948091
C7    C     C_3   0.450189 0.166645 0.169227 -0.946181
C8    C     C_R   0.315900 0.616955 0.498922 0.070406
C9    C     C_R   0.684123 0.616929 0.501075 0.069700
C10   C     C_R   0.853647 0.126200 0.136131 0.158921
C11   C     C_R   0.145601 0.128051 0.862513 0.149906
C12   C     C_R   0.357532 0.635807 0.144796 0.149222
C13   C     C_R   0.642511 0.635790 0.855252 0.149565
C14   C     C_R   0.849573 0.712446 0.605015 0.134945
C15   C     C_R   0.150569 0.712664 0.394961 0.134478
C16   C     C_R   0.280743 0.330301 0.602238 0.130310
C17   C     C_R   0.159269 0.872040 0.781898 -0.165909
C18   C     C_R   0.720118 0.335561 0.391501 0.121158
C19   C     C_R   0.829408 0.742434 0.505157 0.045273
C20   C     C_R   0.170674 0.742572 0.494814 0.045984
C21   C     C_R   0.260750 0.360577 0.503409 0.046083
C22   C     C_R   0.737471 0.361008 0.491406 0.055377
C23   C     C_R   0.777301 0.702551 0.407012 -0.199804
C24   C     C_R   0.222721 0.702653 0.592923 -0.199106
C25   C     C_R   0.192508 0.346432 0.405222 -0.201855
C26   C     C_R   0.807431 0.351705 0.588440 -0.208982
C27   C     C_R   0.147987 0.296317 0.405971 -0.177435
C28   C     C_R   0.350898 0.357550 0.244285 -0.154600
C29   C     C_R   0.852358 0.301010 0.588590 -0.195434
C30   C     C_R   0.733824 0.649521 0.406702 -0.183534
C31   C     C_R   0.266151 0.649610 0.593218 -0.190236
C32   C     C_R   0.171839 0.259095 0.504495 -0.002236
C33   C     C_R   0.826751 0.259081 0.492242 0.031226
C34   C     C_R   0.743366 0.636825 0.504716 -0.006083
C35   C     C_R   0.256668 0.636974 0.495243 -0.004551
C36   C     C_R   0.237890 0.278255 0.602889 0.115106
C37   C     C_R   0.762921 0.282873 0.392712 0.086683
C38   C     C_R   0.807293 0.659265 0.604789 0.148817
C39   C     C_R   0.650517 0.359040 0.759763 -0.135357
C40   C     C_R   0.192820 0.659517 0.395176 0.148486
C41   C     C_3   0.823736 0.694065 0.707621 -0.015195
C42   C     C_3   0.176526 0.694437 0.292503 -0.015194
C43   C     C_3   0.254396 0.315393 0.704197 0.006699
C44   C     C_3   0.700762 0.240478 0.293506 -0.001639
C45   C     C_R   0.091582 0.859441 0.407379 -0.141283
C46   C     C_R   0.908428 0.859407 0.592605 -0.141169
C47   C     C_R   0.613750 0.398894 0.406836 -0.159592
C48   C     C_R   0.385626 0.397583 0.592110 -0.136212
C49   C     C_3   0.869563 0.752328 0.706979 -0.625399
C50   C     C_R   0.909976 0.143323 0.591422 -0.135379
C51   C     C_3   0.130710 0.752645 0.293143 -0.624711
C52   C     C_3   0.298262 0.374646 0.699324 -0.581943
C53   C     C_3   0.654073 0.300149 0.290497 -0.573903
C54   C     C_2   0.157711 0.764931 0.891235 0.177280
C55   C     C_2   0.842314 0.764826 0.108871 0.176804
C56   C     C_2   0.642715 0.245036 0.857426 0.170347
C57   C     C_2   0.359982 0.241449 0.151188 0.168658
C58   C     C_2   0.201589 0.719823 0.888448 -0.196047
C59   C     C_2   0.798542 0.719575 0.111830 -0.195423
C60   C     C_2   0.693895 0.204146 0.868689 -0.177384
C61   C     C_R   0.088538 0.143921 0.408158 -0.117716
C62   C     C_2   0.304547 0.204306 0.132185 -0.204637
C63   C     C_2   0.807639 0.153736 0.021629 -0.240911
C64   C     C_2   0.190865 0.157037 0.976094 -0.223803
C65   C     C_2   0.313202 0.667237 0.033602 -0.230109
C66   C     C_2   0.686863 0.667132 0.966511 -0.230994
C67   C     C_2   0.737676 0.150543 0.961183 -0.096261
C68   C     C_2   0.260835 0.150129 0.040174 -0.116454
C69   C     C_2   0.243583 0.660653 0.970993 -0.120320
C70   C     C_2   0.756468 0.660433 0.029210 -0.119268
C71   C     C_R   0.167570 0.860193 0.590894 -0.123859
C72   C     C_R   0.384799 0.603169 0.591471 -0.111896
C73   C     C_R   0.832407 0.860156 0.409092 -0.124079
C74   C     C_R   0.688007 0.396746 0.589904 -0.136729
C75   C     C_R   0.311507 0.398276 0.408819 -0.135820
C76   C     C_R   0.068693 0.873044 0.783812 -0.127861
C77   C     C_R   0.931313 0.873035 0.216225 -0.127903
C78   C     C_R   0.558410 0.359737 0.759948 -0.135983
C79   C     C_R   0.442765 0.358021 0.243653 -0.124971
C80   C     C_R   0.869274 0.835506 0.175259 0.078777
C81   C     C_R   0.130725 0.835567 0.824786 0.078806
C82   C     C_R   0.384499 0.315092 0.213091 0.075512
C83   C     C_R   0.615201 0.603209 0.408527 -0.112323
C84   C     C_R   0.617710 0.317867 0.793527 0.039764
C85   C     C_R   0.144591 0.817559 0.498123 0.072835
C86   C     C_R   0.855420 0.817497 0.501856 0.072759
C87   C     C_R   0.681919 0.382044 0.496695 0.081416
C88   C     C_R   0.316810 0.383623 0.500845 0.070804
C89   C     C_R   0.838310 0.143276 0.406989 -0.090780
C90   C     C_R   0.163018 0.142726 0.592813 -0.151582
C91   C     C_R   0.311200 0.600127 0.408029 -0.165267
C92   C     C_R   0.688825 0.600087 0.591967 -0.165023
C93   C     C_R   0.923927 0.107018 0.198200 -0.158969
C94   C     C_R   0.858929 0.186139 0.497807 0.076503
C95   C     C_R   0.075517 0.108183 0.800784 -0.157627
C96   C     C_R   0.426681 0.613023 0.203687 -0.146353
C97   C     C_R   0.573338 0.613008 0.796325 -0.146902
C98   C     C_R   0.166411 0.108002 0.800842 -0.133875
C99   C     C_R   0.833333 0.106756 0.198626 -0.139629
C100  C     C_R   0.664564 0.613864 0.795581 -0.128680
C101  C     C_R   0.335469 0.613860 0.204466 -0.128395
C102  C     C_3   0.905660 0.581121 0.811591 -0.911134
C103  C     C_3   0.094425 0.581582 0.188075 -0.911128
C104  C     C_3   0.350034 0.215914 0.820587 -0.918725
H1    H     H_    0.787917 0.865397 0.190139 0.088134
H2    H     H_    0.073878 0.747290 0.221951 0.210444
H3    H     H_    0.355287 0.373827 0.770801 0.194750
H4    H     H_    0.617820 0.276423 0.304088 0.213833
H5    H     H_    0.713872 0.119274 0.990764 0.151471
H6    H     H_    0.284790 0.113679 0.015071 0.134893
H7    H     H_    0.219218 0.623555 0.994894 0.139900
H8    H     H_    0.780788 0.623327 0.005289 0.139936
H9    H     H_    0.215762 0.734867 0.836786 0.119921
H10   H     H_    0.784447 0.734544 0.163603 0.120019
H11   H     H_    0.712017 0.219993 0.822720 0.116546
H12   H     H_    0.212077 0.865569 0.809871 0.088438
H13   H     H_    0.283407 0.223419 0.172543 0.124770
H14   H     H_    0.831331 0.184853 0.991448 0.134922
H15   H     H_    0.166842 0.191992 0.002693 0.133130
H16   H     H_    0.337262 0.704163 0.008722 0.134252
H17   H     H_    0.662853 0.704084 0.991399 0.134336
H18   H     H_    0.064031 0.845026 0.322799 0.108606
H19   H     H_    0.936015 0.844984 0.677178 0.108669
H20   H     H_    0.593790 0.408129 0.322923 0.103367
H21   H     H_    0.405920 0.401723 0.676900 0.093452
H22   H     H_    0.211909 0.847094 0.674865 0.085528
H23   H     H_    0.303305 0.343281 0.231675 0.095589
H24   H     H_    0.788047 0.847043 0.325123 0.085256
H25   H     H_    0.736174 0.400612 0.674047 0.086419
H26   H     H_    0.263751 0.403096 0.324442 0.086983
H27   H     H_    0.039767 0.866794 0.814508 0.107783
H28   H     H_    0.960260 0.866807 0.185575 0.107752
H29   H     H_    0.521181 0.344520 0.772979 0.101424
H30   H     H_    0.480063 0.342382 0.230936 0.115608
H31   H     H_    0.801690 0.159935 0.321619 0.093328
H32   H     H_    0.203018 0.157586 0.678271 0.133268
H33   H     H_    0.264101 0.590087 0.324701 0.122610
H34   H     H_    0.698641 0.344862 0.773890 0.092634
H35   H     H_    0.735915 0.589967 0.675258 0.122499
H36   H     H_    0.953594 0.104238 0.168171 0.093440
H37   H     H_    0.045660 0.105913 0.830511 0.094019
H38   H     H_    0.457204 0.613052 0.175053 0.093393
H39   H     H_    0.542810 0.612997 0.824950 0.093152
H40   H     H_    0.219647 0.106054 0.829091 0.092235
H41   H     H_    0.780284 0.103852 0.170967 0.085837
H42   H     H_    0.717187 0.615843 0.821191 0.087181
H43   H     H_    0.282861 0.615843 0.178906 0.087183
H44   H     H_    0.937709 0.159256 0.676706 0.094808
H45   H     H_    0.778040 0.722023 0.694770 0.111163
H46   H     H_    0.059920 0.159776 0.322669 0.091642
H47   H     H_    0.405063 0.600063 0.676309 0.081493
H48   H     H_    0.594909 0.600113 0.323676 0.081183
H49   H     H_    0.764163 0.718853 0.328793 0.122019
H50   H     H_    0.235818 0.718892 0.671130 0.122037
H51   H     H_    0.175109 0.369174 0.326815 0.122011
H52   H     H_    0.825017 0.375572 0.666437 0.124321
H53   H     H_    0.097356 0.282555 0.328217 0.123590
H54   H     H_    0.903260 0.288083 0.666393 0.126630
H55   H     H_    0.688077 0.627606 0.328109 0.122828
H56   H     H_    0.222313 0.722413 0.305569 0.111384
H57   H     H_    0.311812 0.627593 0.671781 0.122949
H58   H     H_    0.886388 0.673028 0.877363 0.187033
H59   H     H_    0.932892 0.550420 0.891718 0.239179
H60   H     H_    0.945772 0.604476 0.806232 0.263099
H61   H     H_    0.871906 0.538271 0.744369 0.249372
H62   H     H_    0.114011 0.673566 0.122740 0.187046
H63   H     H_    0.067240 0.550945 0.107900 0.239209
H64   H     H_    0.054266 0.604928 0.193279 0.263037
H65   H     H_    0.128034 0.538677 0.255229 0.249813
H66   H     H_    0.311158 0.294594 0.872949 0.178415
H67   H     H_    0.207393 0.340464 0.690185 0.107700
H68   H     H_    0.371017 0.177545 0.892419 0.237493
H69   H     H_    0.394279 0.250664 0.838002 0.251033
H70   H     H_    0.328392 0.177625 0.748283 0.252275
H71   H     H_    0.654222 0.130050 0.243184 0.168523
H72   H     H_    0.699551 0.082067 0.425465 0.236668
H73   H     H_    0.632961 0.154910 0.374002 0.233142
H74   H     H_    0.725068 0.179411 0.477367 0.258029
H75   H     H_    0.848201 0.812316 0.690926 0.190158
H76   H     H_    0.152134 0.812648 0.309368 0.190479
H77   H     H_    0.274601 0.433754 0.676146 0.187625
H78   H     H_    0.699590 0.244223 0.220892 0.090435
H79   H     H_    0.628154 0.339474 0.217893 0.170395
H80   H     H_    0.173678 0.726628 0.032682 0.165416
H81   H     H_    0.088972 0.633921 0.891069 0.257551
H82   H     H_    0.033055 0.714995 0.807537 0.261014
H83   H     H_    0.050060 0.693795 0.935465 0.247599
H84   H     H_    0.826217 0.726569 0.967301 0.165413
H85   H     H_    0.911138 0.634072 0.108740 0.257695
H86   H     H_    0.966958 0.715267 0.192322 0.260916
H87   H     H_    0.949911 0.694294 0.064327 0.247382
H88   H     H_    0.607382 0.271260 0.945440 0.159900
H89   H     H_    0.926399 0.746973 0.778096 0.210661
H90   H     H_    0.552176 0.150138 0.921054 0.247218
H91   H     H_    0.582055 0.112736 0.848673 0.261120
H92   H     H_    0.516065 0.188785 0.786847 0.254223
H93   H     H_    0.354738 0.198749 0.020721 0.168965
H94   H     H_    0.433892 0.110355 0.182023 0.256380
H95   H     H_    0.491086 0.194124 0.250592 0.254777
H96   H     H_    0.473384 0.155481 0.127720 0.248503
N1    N     N_R   0.888400 0.921830 0.294620 -0.033151
N2    N     N_R   0.874350 0.922400 0.443380 -0.038947
N3    N     N_R   0.625650 0.422400 0.556620 -0.035423
N4    N     N_R   0.374350 0.422400 0.443380 -0.035756
N5    N     N_R   0.054230 0.922730 0.705400 -0.040122
N6    N     N_R   0.945770 0.922730 0.294600 -0.040008
N7    N     N_R   0.554230 0.422730 0.705400 -0.039427
N8    N     N_R   0.445770 0.422730 0.294600 -0.044074
N9    N     N_R   0.873790 0.077030 0.443380 -0.046361
N10   N     N_R   0.126210 0.077030 0.556620 -0.042129
N11   N     N_R   0.373790 0.577030 0.443380 -0.037701
N12   N     N_R   0.111600 0.921830 0.705380 -0.033296
N13   N     N_R   0.626210 0.577030 0.556620 -0.037640
N14   N     N_R   0.945200 0.076700 0.294600 -0.040205
N15   N     N_R   0.054800 0.076700 0.705400 -0.039724
N16   N     N_R   0.445200 0.576700 0.294600 -0.042542
N17   N     N_R   0.554800 0.576700 0.705400 -0.042728
N18   N     N_R   0.111030 0.077600 0.705380 -0.042536
N19   N     N_R   0.888970 0.077600 0.294620 -0.044552
N20   N     N_R   0.611030 0.577600 0.705380 -0.043727
N21   N     N_R   0.388970 0.577600 0.294620 -0.043419
N22   N     N_R   0.919490 0.077280 0.556590 -0.042920
N23   N     N_R   0.388400 0.421830 0.294620 -0.037827
N24   N     N_R   0.080510 0.077280 0.443410 -0.042274
N25   N     N_R   0.419490 0.577280 0.556590 -0.039159
N26   N     N_R   0.580510 0.577280 0.443410 -0.038751
N27   N     N_2   0.862982 0.643439 0.804375 -0.105847
N28   N     N_2   0.137284 0.643898 0.195620 -0.106016
N29   N     N_2   0.295750 0.266162 0.802511 -0.106696
N30   N     N_2   0.690376 0.161055 0.314429 -0.096465
N31   N     N_2   0.134536 0.744554 0.952690 -0.106782
N32   N     N_2   0.865389 0.744584 0.047255 -0.106794
N33   N     N_2   0.619241 0.224353 0.918497 -0.111394
N34   N     N_R   0.611600 0.421830 0.705380 -0.037703
N35   N     N_2   0.390075 0.217389 0.101161 -0.110480
N36   N     N_R   0.079940 0.922160 0.443410 -0.041971
N37   N     N_R   0.920060 0.922160 0.556590 -0.041627
N38   N     N_R   0.579940 0.422160 0.443410 -0.037676
N39   N     N_R   0.420060 0.422160 0.556590 -0.038584
N40   N     N_R   0.125650 0.922400 0.556620 -0.039034
Ni1   Ni    Ni4+2 0.882160 0.999430 0.370180 0.213355
Ni2   Ni    Ni4+2 0.117840 0.999430 0.629820 0.214167
Ni3   Ni    Ni4+2 0.382160 0.499430 0.370180 0.209900
Ni4   Ni    Ni4+2 0.617840 0.499430 0.629820 0.209866
Ni5   Ni    Ni4+2 0.012460 0.999430 0.370180 0.212075
Ni6   Ni    Ni4+2 0.987540 0.999430 0.629820 0.212559
Ni7   Ni    Ni4+2 0.512460 0.499430 0.370180 0.205966
Ni8   Ni    Ni4+2 0.487540 0.499430 0.629820 0.206621

loop_
_geom_bond_atom_site_label_1
_geom_bond_atom_site_label_2
_ccdc_geom_bond_type
C31   H57   S    
C103  H63   S    
C16   C21   A    
C89   H31   S    
C55   C59   D    
C25   H51   S    
C95   N15   A    
C26   H52   S    
C10   C63   S    
C53   H4    S    
N17   Ni8   S    
C17   N12   A    
C1    N1    A    
C33   C94   S    
N4    Ni3   S    
N2    N37   A    
C41   N27   S    
H58   N27   S    
H93   N35   S    
C57   C62   D    
N17   N20   A    
N20   Ni4   S    
C64   H15   S    
C49   H89   S    
C11   C98   A    
C32   C36   A    
C4    H83   S    
C3    H74   S    
C5    H86   S    
N8    Ni7   S    
N14   N19   A    
C59   H10   S    
C54   C58   D    
C76   H27   S    
C43   C52   S    
C77   C80   A    
C14   C49   S    
C41   H45   S    
C74   N3    A    
C50   H44   S    
C79   N8    A    
C57   C82   S    
H66   N29   S    
C29   C33   A    
C7    H96   S    
N1    Ni1   S    
C43   N29   S    
C3    N30   S    
C2    C32   S    
N24   Ni5   S    
C46   N37   A    
C4    H82   S    
C89   C94   A    
C2    C90   A    
C44   N30   S    
C78   N7    A    
C97   H39   S    
C62   H13   S    
N12   Ni2   S    
N13   N26   A    
C18   C53   S    
C48   H21   S    
C71   C85   A    
C44   C53   S    
C67   H5    S    
C101  H43   S    
C20   C24   A    
C52   H3    S    
C100  H42   S    
C102  H59   S    
N3    N38   A    
N38   Ni7   S    
C5    H87   S    
C58   H9    S    
N1    N6    A    
C48   C88   A    
C71   H22   S    
C26   C29   A    
N36   Ni5   S    
C15   C51   S    
C74   C87   A    
C18   C22   A    
C61   H46   S    
C2    C61   A    
C42   C51   S    
C104  H68   S    
C19   C86   S    
N25   Ni8   S    
C40   C42   S    
C99   H41   S    
C21   C88   S    
C103  H64   S    
H71   N30   S    
C91   H33   S    
N7    Ni8   S    
C7    H95   S    
N9    N22   A    
C15   C20   A    
N4    N39   A    
C14   C19   A    
C9    C92   A    
C6    H92   S    
C6    H91   S    
C57   N35   S    
C24   H50   S    
C56   C84   S    
C7    N35   S    
C13   C66   S    
C30   H55   S    
C73   C86   A    
C63   C67   D    
C5    N32   S    
N10   N24   A    
C30   C34   A    
C28   C82   A    
C23   C30   A    
N11   Ni3   S    
H88   N33   S    
N6    Ni5   S    
C51   H2    S    
C52   H77   S    
C60   C67   S    
C38   C41   S    
C91   N11   A    
N5    Ni6   S    
N15   N18   A    
N23   Ni3   S    
C90   N10   A    
C63   H14   S    
C43   H67   S    
C50   C94   A    
C45   N36   A    
C104  H70   S    
N3    Ni4   S    
C10   C93   A    
C103  N28   S    
N2    Ni1   S    
C33   C37   A    
N19   Ni1   S    
N39   Ni8   S    
N16   Ni7   S    
C8    C35   S    
C47   C87   A    
C4    H81   S    
C19   C23   A    
C4    N31   S    
C78   C84   A    
C14   C38   A    
C47   N38   A    
C90   H32   S    
C3    H72   S    
C72   H47   S    
C20   C85   S    
N40   Ni2   S    
C17   H12   S    
C66   H17   S    
C92   N13   A    
C8    C91   A    
C68   H6    S    
C22   C87   S    
N10   Ni2   S    
C104  H69   S    
C70   H8    S    
C9    C83   A    
H62   N28   S    
C6    N33   S    
C99   N19   A    
C11   C64   S    
C102  H61   S    
C72   N25   A    
C98   N18   A    
C22   C26   A    
C9    C34   S    
C97   N17   A    
C46   H19   S    
C27   H53   S    
C73   N2    A    
N9    Ni1   S    
C51   H76   S    
C73   H24   S    
C64   C68   D    
C54   N31   S    
C6    H90   S    
C48   N39   A    
C76   N5    A    
C83   H48   S    
N21   Ni3   S    
C44   H78   S    
C101  N21   A    
C79   H30   S    
C21   C25   A    
C50   N22   A    
N36   N40   A    
C98   H40   S    
C93   N14   A    
C34   C38   A    
C8    C72   A    
N8    N23   A    
C55   N32   S    
C18   C37   A    
N13   Ni4   S    
C42   H56   S    
C16   C52   S    
H80   N31   S    
C53   H79   S    
C60   H11   S    
C75   H26   S    
C96   N16   A    
C76   C81   A    
C39   C84   A    
C79   C82   A    
C89   N9    A    
C75   N4    A    
C28   H23   S    
C58   C69   S    
C95   H37   S    
C29   H54   S    
C42   N28   S    
C45   H18   S    
C25   C27   A    
C41   C49   S    
C12   C65   S    
C61   N24   A    
N5    N12   A    
C62   C68   S    
C45   C85   A    
C71   N40   A    
C13   C100  A    
C23   H49   S    
C35   C40   A    
C3    H73   S    
C24   C31   A    
C5    H85   S    
C12   C101  A    
C93   H36   S    
C77   N6    A    
C16   C36   A    
C55   C80   S    
N22   Ni6   S    
C39   N34   A    
C47   H20   S    
C66   C70   D    
C104  N29   S    
C37   C44   S    
C28   N23   A    
C65   C69   D    
C31   C35   A    
C102  N27   S    
C65   H16   S    
N16   N21   A    
N37   Ni6   S    
N14   Ni5   S    
C17   C81   A    
N18   Ni2   S    
C13   C97   A    
C10   C99   A    
C69   H7    S    
C78   H29   S    
C15   C40   A    
C39   H34   S    
C27   C32   A    
C59   C70   S    
C96   H38   S    
C56   C60   D    
C75   C88   A    
C11   C95   A    
C100  N20   A    
N15   Ni6   S    
C102  H60   S    
N11   N25   A    
C74   H25   S    
C1    H1    S    
C103  H65   S    
C1    C80   A    
C56   N33   S    
C12   C96   A    
C36   C43   S    
C46   C86   A    
C7    H94   S    
H84   N32   S    
C92   H35   S    
C77   H28   S    
C54   C81   S    
N7    N34   A    
N34   Ni4   S    
C49   H75   S    
C83   N26   A    
N26   Ni7   S    
