data_mof_unit_10725.cif
_audit_creation_date              2012-12-10T17:36:48-0500
_audit_creation_method            fapswitch 2.2
_symmetry_space_group_name_H-M    P1
_symmetry_Int_Tables_number       1
_space_group_crystal_system       triclinic
_cell_length_a                    10.604227
_cell_length_b                    12.326802
_cell_length_c                    13.1071
_cell_angle_alpha                 116.478494
_cell_angle_beta                  77.702526
_cell_angle_gamma                 100.966305
_cell_volume                      1489.48215285

loop_
_atom_site_label
_atom_site_type_symbol
_atom_type_description
_atom_site_fract_x
_atom_site_fract_y
_atom_site_fract_z
_atom_type_partial_charge
C1    C     C_R   0.510427 0.855179 0.286314 0.770318
C2    C     C_3   0.018019 0.013086 0.603210 -0.163951
C3    C     C_3   0.933646 0.905975 0.521419 -0.134899
C4    C     C_3   0.877129 0.998150 0.499771 0.019449
C5    C     C_R   0.333704 0.279307 0.029468 -0.240385
C6    C     C_R   0.456019 0.228020 0.837987 -0.126559
C7    C     C_R   0.588780 0.816227 0.082625 -0.178210
C8    C     C_R   0.610233 0.737705 0.966625 -0.137695
C9    C     C_R   0.564159 0.614767 0.929389 -0.190366
C10   C     C_R   0.489994 0.568487 0.007853 0.085083
C11   C     C_R   0.454166 0.652317 0.123340 0.084440
C12   C     C_R   0.740367 0.999148 0.499702 0.783403
C13   C     C_R   0.450756 0.441952 0.976178 0.076856
C14   C     C_R   0.366947 0.403465 0.056424 0.141749
C15   C     C_R   0.317699 0.489328 0.163576 -0.227405
C16   C     C_R   0.358974 0.612129 0.195980 -0.202334
C17   C     C_R   0.494976 0.352276 0.868246 -0.266657
C18   C     C_R   0.380342 0.190636 0.922203 -0.004179
C19   C     C_R   0.514051 0.774221 0.162589 -0.107020
C20   C     C_R   0.708413 0.347156 0.329220 -0.296435
C21   C     C_R   0.322399 0.758490 0.643865 0.092046
C22   C     C_R   0.284101 0.662048 0.675618 -0.260234
C23   C     C_R   0.481589 0.145056 0.714429 0.806225
C24   C     C_R   0.351272 0.559268 0.621800 -0.201747
C25   C     C_R   0.458193 0.551601 0.534802 -0.005147
C26   C     C_R   0.494411 0.653352 0.505727 0.289893
C27   C     C_R   0.530276 0.447307 0.475568 -0.036869
C28   C     C_R   0.636318 0.447304 0.388950 0.175429
C29   C     C_R   0.670143 0.547197 0.362272 -0.285183
C30   C     C_R   0.601058 0.647776 0.419382 -0.185869
C31   C     C_R   0.502314 0.342098 0.497900 0.016307
C32   C     C_R   0.675906 0.246939 0.355304 0.078274
C33   C     C_R   0.259656 0.000614 0.500001 0.774662
C34   C     C_3   0.981995 0.986090 0.396027 -0.168887
C35   C     C_3   0.040879 0.894020 0.417690 -0.171603
C36   C     C_3   0.122902 0.001109 0.499496 0.022619
C37   C     C_3   0.066357 0.093211 0.477808 -0.134063
C38   C     C_3   0.959189 0.105166 0.581553 -0.163155
Cu1   Cu    Cu3+1 0.529830 0.098270 0.475420 0.933081
Cu2   Cu    Cu3+1 0.470170 0.901730 0.524580 0.940954
H1    H     H_    0.077731 0.807826 0.350639 0.126964
H2    H     H_    0.560692 0.376823 0.805203 0.158606
H3    H     H_    0.633346 0.909586 0.110053 0.157965
H4    H     H_    0.586244 0.559200 0.838384 0.130382
H5    H     H_    0.666925 0.771474 0.905545 0.152518
H6    H     H_    0.313610 0.674812 0.278134 0.170807
H7    H     H_    0.731172 0.169323 0.309543 0.122801
H8    H     H_    0.751334 0.547818 0.296237 0.152463
H9    H     H_    0.789514 0.346477 0.262799 0.139368
H10   H     H_    0.423585 0.334159 0.562195 0.122880
H11   H     H_    0.269445 0.837688 0.685883 0.152007
H12   H     H_    0.963873 0.974853 0.311312 0.133477
H13   H     H_    0.317310 0.487343 0.649752 0.136869
H14   H     H_    0.201959 0.666948 0.742127 0.157653
H15   H     H_    0.635084 0.719180 0.392415 0.205881
H16   H     H_    0.123367 0.169910 0.460020 0.140250
H17   H     H_    0.922432 0.191369 0.648639 0.133403
H18   H     H_    0.036174 0.024302 0.687912 0.141070
H19   H     H_    0.876549 0.829227 0.539090 0.146626
H20   H     H_    0.248430 0.461356 0.223538 0.144992
H21   H     H_    0.273330 0.251260 0.093437 0.154221
N1    N     N_R   0.575030 0.246270 0.438190 -0.180070
N2    N     N_R   0.425760 0.754330 0.561190 -0.206391
O1    O     O_R   0.537510 0.972500 0.318130 -0.578362
O2    O     O_R   0.487140 0.806530 0.359650 -0.604619
O3    O     O_R   0.708330 0.082950 0.479220 -0.583277
O4    O     O_R   0.657960 0.916980 0.520740 -0.596515
O5    O     O_R   0.512860 0.193470 0.640350 -0.590444
O6    O     O_R   0.462490 0.027500 0.681870 -0.549619
O7    O     O_R   0.342040 0.083020 0.479260 -0.586320
O8    O     O_R   0.291670 0.917050 0.520780 -0.597767
C39   C     C_2   0.351122 0.061718 0.904246 0.836490
O9    O     O_2   0.239533 0.021028 0.926648 -0.630992
O10   O     O_R   0.452380 0.988904 0.868515 -0.743535
H22   H     H_    0.421114 0.904073 0.863951 0.328284

loop_
_geom_bond_atom_site_label_1
_geom_bond_atom_site_label_2
_ccdc_geom_bond_type
Cu2   O8    S    
C34   C37   S    
C15   H20   S    
C23   O6    A    
C35   C36   S    
C7    C8    A    
C22   H14   S    
Cu1   O1    S    
C11   C19   A    
C29   C30   A    
Cu2   N2    S    
C36   C37   S    
C37   C38   S    
C15   C16   A    
C33   C36   S    
C34   C35   S    
Cu1   O5    S    
C6    C17   A    
C8    H5    S    
C17   H2    S    
C37   H16   S    
C8    C9    A    
Cu2   O4    S    
C1    O2    A    
C7    H3    S    
C4    C12   S    
C9    C10   A    
C21   C22   A    
C31   N1    A    
C18   C39   S    
C6    C18   A    
C12   O4    A    
C4    C34   S    
C1    C19   S    
Cu2   O6    S    
C29   H8    S    
C27   C31   A    
C24   C25   A    
C39   O10   S    
O10   H22   S    
C16   H6    S    
Cu1   Cu2   S    
C5    C18   A    
C20   C28   A    
C25   C26   A    
C12   O3    A    
C23   O5    A    
C26   N2    A    
C20   H9    S    
C38   H17   S    
C11   C16   A    
C2    C38   S    
C3    C35   S    
C5    H21   S    
C5    C14   A    
C33   O7    A    
C4    C38   S    
C26   C30   A    
C7    C19   A    
Cu2   O2    S    
Cu1   O3    S    
C22   C24   A    
C31   H10   S    
C3    C4    S    
C1    O1    A    
C21   H11   S    
C20   C32   A    
C2    C36   S    
Cu1   N1    S    
C28   C29   A    
C9    H4    S    
C39   O9    D    
C10   C13   A    
C2    H18   S    
C25   C27   A    
C30   H15   S    
C34   H12   S    
C13   C17   A    
C2    C3    S    
C24   H13   S    
C32   N1    A    
C6    C23   S    
C32   H7    S    
Cu1   O7    S    
C35   H1    S    
C21   N2    A    
C10   C11   A    
C33   O8    A    
C27   C28   A    
C14   C15   A    
C13   C14   A    
C3    H19   S    
