data_mof_unit_48822.cif
_audit_creation_date              2013-03-05T15:53:06-0500
_audit_creation_method            fapswitch 2.2
_symmetry_space_group_name_H-M    P1
_symmetry_Int_Tables_number       1
_space_group_crystal_system       triclinic
_cell_length_a                    6.95114
_cell_length_b                    20.442127
_cell_length_c                    24.415431
_cell_angle_alpha                 89.612761
_cell_angle_beta                  90.432482
_cell_angle_gamma                 89.478924
_cell_volume                      3469.01403645

loop_
_atom_site_label
_atom_site_type_symbol
_atom_site_description
_atom_site_fract_x
_atom_site_fract_y
_atom_site_fract_z
_atom_type_partial_charge
O1    O     O_R   0.507320 0.423560 0.460500 -0.595234
O2    O     O_R   0.170760 0.556250 0.437010 -0.593804
O3    O     O_R   0.004030 0.576440 0.539500 -0.577469
C1    C     C_R   0.338884 0.576303 0.420957 0.973986
O4    O     O_R   0.177370 0.422820 0.454110 -0.587721
O5    O     O_R   0.010680 0.442050 0.556720 -0.581110
C2    C     C_R   0.346229 0.398987 0.443208 0.936695
O6    O     O_R   0.500680 0.557950 0.443280 -0.597149
O7    O     O_3   0.340380 0.506470 0.533650 -0.249699
V1    V     V_3+5 0.064130 0.498800 0.493760 1.218170
O8    O     O_R   0.681160 0.443750 0.562990 -0.586939
C3    C     C_R   0.850788 0.423620 0.578772 1.034340
O9    O     O_R   0.674560 0.577180 0.545890 -0.590242
C4    C     C_R   0.842622 0.601078 0.556546 1.029466
V2    V     V_3+5 0.564560 0.501200 0.506240 1.216272
O10   O     O_3   0.838180 0.493530 0.466350 -0.283181
C5    C     C_R   0.973395 0.838072 0.911800 -0.100663
C6    C     C_R   0.846417 0.660840 0.590083 -0.249572
C7    C     C_R   0.982006 0.719990 0.909656 -0.153627
C8    C     C_R   0.990464 0.778037 0.938965 -0.169135
C9    C     C_R   0.949495 0.839939 0.854616 -0.227596
C10   C     C_R   0.939069 0.781298 0.823644 0.106844
C11   C     C_R   0.956008 0.721033 0.852587 0.172530
C12   C     C_R   0.909727 0.780172 0.765365 0.045717
C13   C     C_R   0.910115 0.718967 0.736849 0.079547
C14   C     C_R   0.914947 0.660937 0.768400 -0.088184
C15   C     C_R   0.940929 0.661997 0.824779 -0.245562
C16   C     C_R   0.870049 0.837777 0.735079 -0.160325
C17   C     C_R   0.823890 0.835505 0.679752 -0.168722
C18   C     C_R   0.828049 0.776536 0.651391 0.142669
C19   C     C_R   0.886930 0.717773 0.678215 -0.032151
C20   C     C_R   0.771274 0.776189 0.596254 -0.143005
C21   C     C_R   0.772316 0.718376 0.566779 -0.206133
C22   C     C_R   0.914782 0.660722 0.644979 0.269386
H1    H     H_    0.945484 0.615915 0.847027 0.147820
H2    H     H_    0.720658 0.718944 0.524780 0.125982
H3    H     H_    0.784036 0.880668 0.658867 0.154008
H4    H     H_    0.994340 0.673979 0.931786 0.125303
H5    H     H_    0.009579 0.776152 0.983036 0.111255
H6    H     H_    0.941496 0.887717 0.835785 0.115561
H7    H     H_    0.888132 0.613712 0.750808 0.178423
H8    H     H_    0.862861 0.885410 0.753529 0.153144
H9    H     H_    0.721047 0.820677 0.576166 0.129558
C23   C     C_3   0.863491 0.308278 0.768976 -0.086091
C24   C     C_3   0.049732 0.269077 0.783831 -0.180912
H10   H     H_    0.164021 0.285629 0.812413 0.142293
H11   H     H_    0.824612 0.357238 0.785118 0.139875
H12   H     H_    0.217197 0.255763 0.699747 0.164636
C25   C     C_1   0.960968 0.121480 0.875268 -0.262952
C26   C     C_1   0.863089 0.378079 0.624418 -0.224219
C27   C     C_3   0.742747 0.245071 0.776324 -0.254450
C28   C     C_3   0.929060 0.206410 0.790708 0.082208
C29   C     C_3   0.773053 0.229155 0.715003 -0.204266
C30   C     C_3   0.892683 0.291604 0.707923 0.095875
C31   C     C_3   0.957275 0.191169 0.729968 0.350553
C32   C     C_3   0.079242 0.253049 0.722174 -0.243205
C33   C     C_1   0.947734 0.159666 0.837108 0.099933
C34   C     C_1   0.875600 0.339389 0.662230 0.102052
H13   H     H_    0.604085 0.241890 0.798433 0.152566
C35   C     C_3   0.554044 0.728240 0.216965 -0.148715
C36   C     C_3   0.366256 0.690605 0.229373 -0.140446
H14   H     H_    0.328089 0.641926 0.212787 0.133684
H15   H     H_    0.671562 0.710927 0.189963 0.122496
H16   H     H_    0.112273 0.759009 0.196465 0.119997
C37   C     C_1   0.349021 0.621713 0.374810 -0.277368
C38   C     C_1   0.475264 0.877760 0.124849 -0.292287
C39   C     C_3   0.576308 0.744226 0.278690 -0.154910
C40   C     C_3   0.388765 0.707193 0.290520 0.215903
C41   C     C_3   0.458071 0.808207 0.269873 -0.158980
C42   C     C_3   0.435567 0.791650 0.208722 0.215408
C43   C     C_3   0.270297 0.770591 0.282266 -0.159176
C44   C     C_3   0.248021 0.754602 0.220545 -0.158732
C45   C     C_1   0.364517 0.660039 0.336670 -0.031080
C46   C     C_1   0.459795 0.839083 0.162753 -0.035301
H17   H     H_    0.152776 0.787901 0.309268 0.116366
H18   H     H_    0.496278 0.856860 0.286497 0.118390
H19   H     H_    0.712053 0.739814 0.302771 0.118697
C47   C     C_R   0.469385 0.162369 0.088516 -0.107871
C48   C     C_R   0.350357 0.338328 0.410693 -0.119258
C49   C     C_R   0.490165 0.280838 0.089451 -0.049405
C50   C     C_R   0.505287 0.221274 0.061868 -0.209746
C51   C     C_R   0.425042 0.162313 0.144474 -0.233061
C52   C     C_R   0.414350 0.221582 0.174950 0.125888
C53   C     C_R   0.445857 0.281407 0.146357 0.066245
C54   C     C_R   0.375014 0.223220 0.232770 0.080216
C55   C     C_R   0.370563 0.284464 0.261526 -0.018923
C56   C     C_R   0.376549 0.343075 0.229741 -0.100944
C57   C     C_R   0.428360 0.340643 0.174649 -0.228875
C58   C     C_R   0.335460 0.165489 0.262636 -0.188459
C59   C     C_R   0.297641 0.166745 0.318305 -0.226115
C60   C     C_R   0.309166 0.224718 0.347633 0.178880
C61   C     C_R   0.355357 0.284073 0.320553 0.119768
C62   C     C_R   0.276197 0.223365 0.404290 -0.164991
C63   C     C_R   0.290946 0.280099 0.435141 -0.149458
C64   C     C_R   0.390472 0.339564 0.354238 -0.171789
H20   H     H_    0.444914 0.386609 0.153222 0.199679
H21   H     H_    0.449094 0.384158 0.337807 0.112274
H22   H     H_    0.257502 0.278476 0.478406 0.123773
H23   H     H_    0.263745 0.121208 0.338969 0.133702
H24   H     H_    0.538569 0.220883 0.018520 0.130812
H25   H     H_    0.402337 0.114997 0.162771 0.096890
H26   H     H_    0.327821 0.118024 0.244068 0.127306
H27   H     H_    0.236193 0.178311 0.424722 0.131269
O11   O     O_R   0.323550 0.942140 0.056770 -0.591560
O12   O     O_R   0.647080 0.077200 0.045890 -0.590582
O13   O     O_R   0.813610 0.057920 0.943260 -0.587692
C65   C     C_R   0.477983 0.100981 0.056934 0.931046
O14   O     O_R   0.653470 0.943760 0.063000 -0.593143
O15   O     O_R   0.820050 0.923540 0.960490 -0.589489
C66   C     C_R   0.485365 0.923579 0.078966 0.972913
O16   O     O_R   0.317110 0.076520 0.039540 -0.589039
O17   O     O_3   0.483830 0.993580 0.966380 -0.265471
V3    V     V_3+5 0.760140 0.001190 0.006240 1.174419
O18   O     O_R   0.149510 0.922740 0.954070 -0.589313
C67   C     C_R   0.981205 0.898787 0.943643 0.933181
O19   O     O_R   0.143120 0.056170 0.936970 -0.586353
C68   C     C_R   0.973469 0.076234 0.921128 0.984506
V4    V     V_3+5 0.259690 0.998700 0.993700 1.181410
O20   O     O_3   0.986130 0.006420 0.033620 -0.275838
N1    N     N_R   0.009043 0.127798 0.707081 0.254316
O21   O     O_R   0.032395 0.122042 0.654539 -0.371155
O22   O     O_R   0.033796 0.076996 0.738771 -0.378220
C69   C     C_2   0.617373 0.204806 0.677780 1.054664
O23   O     O_2   0.534345 0.154119 0.689173 -0.585896
O24   O     O_R   0.567219 0.240118 0.630538 -0.813348
H28   H     H_    0.459411 0.218879 0.609067 0.330680
N2    N     N_R   0.030987 0.606478 0.663797 0.217275
O25   O     O_R   0.201263 0.616746 0.684343 -0.389411
O26   O     O_R   0.969669 0.546768 0.659442 -0.447539
C70   C     C_2   0.515807 0.341226 0.056379 0.988373
O27   O     O_2   0.656019 0.346386 0.026737 -0.624908
O28   O     O_R   0.375220 0.390582 0.056753 -0.792402
H29   H     H_    0.408167 0.428715 0.031869 0.332694
C71   C     C_2   0.298718 0.406852 0.248631 1.003727
O29   O     O_2   0.149886 0.408817 0.275026 -0.635910
O30   O     O_R   0.391458 0.464897 0.234371 -0.796771
H30   H     H_    0.323930 0.505112 0.249283 0.319734

loop_
_geom_bond_atom_site_label_1
_geom_bond_atom_site_label_2
_geom_bond_distance
_ccdc_geom_bond_type
C13   C19   1.439809 A    
O17   V4    1.702060 S    
C56   C57   1.396200 A    
C57   H20   1.079854 S    
C62   C63   1.391299 A    
C58   H26   1.075330 S    
C4    C6    1.475606 S    
C70   O28   1.398331 S    
C7    C8    1.391273 A    
C39   H19   1.110636 S    
C1    O6    1.297302 A    
C62   H27   1.083955 S    
O18   C67   1.296480 A    
C25   C33   1.213848 T    
C69   O23   1.222079 D    
C24   H10   1.110094 S    
C23   C24   1.555566 S    
O12   C65   1.298774 A    
C5    C67   1.470185 S    
C14   C15   1.387305 A    
O16   V4    1.992853 S    
O12   V3    1.994672 S    
C16   C17   1.387225 A    
O5    C3    1.296535 A    
C1    C37   1.457521 S    
C69   O24   1.396830 S    
C63   H22   1.083682 S    
V2    O10   2.148305 S    
C38   C46   1.219120 T    
C5    C8    1.394733 A    
C37   C45   1.218904 T    
O19   C68   1.300260 A    
C41   H18   1.110420 S    
C41   C43   1.551643 S    
V4    O20   2.148343 S    
V3    O20   1.707095 S    
O8    V2    1.974766 S    
C20   H9    1.084031 S    
C25   C68   1.449071 S    
C35   C39   1.551131 S    
O14   C66   1.304247 A    
O28   H29   1.013990 S    
C42   C46   1.489755 S    
C21   H2    1.083876 S    
O1    V2    1.988261 S    
C11   C15   1.393090 A    
C18   C20   1.400061 A    
C23   H11   1.109989 S    
O7    V1    2.154019 S    
C28   C31   1.531113 S    
C49   C53   1.425500 A    
H16   C44   1.110634 S    
O9    C4    1.295604 A    
C56   C71   1.484652 S    
C36   H14   1.110513 S    
O17   V3    2.153963 S    
N1    O22   1.300226 A    
O11   V4    1.965036 S    
C31   N1    1.457472 S    
C29   C31   1.532100 S    
C30   C32   1.547524 S    
C49   C70   1.483370 S    
O13   V3    1.959551 S    
C27   C28   1.547880 S    
C26   C34   1.213698 T    
C53   C57   1.402904 A    
C12   C13   1.435938 A    
C24   C32   1.557476 S    
C48   C63   1.395273 A    
C29   C69   1.498597 S    
C60   C61   1.418419 A    
O4    C2    1.296913 A    
C8    H5    1.083580 S    
C54   C58   1.413285 A    
C55   C56   1.424196 A    
C22   N2    1.436789 S    
C71   O30   1.398715 S    
C24   C28   1.546488 S    
C15   H1    1.084298 S    
C13   C14   1.410053 A    
C54   C55   1.439713 A    
C42   C44   1.541786 S    
C61   C64   1.427360 A    
C5    C9    1.404999 A    
C39   C40   1.541644 S    
C35   C36   1.551988 S    
C39   C41   1.551265 S    
O14   V3    1.964152 S    
C7    C11   1.403678 A    
N2    O26   1.301285 A    
C48   C64   1.408454 A    
C17   C18   1.394408 A    
C7    H4    1.083940 S    
C60   C62   1.404000 A    
C47   C51   1.402844 A    
C52   C53   1.423574 A    
C35   C42   1.540610 S    
C31   C32   1.540728 S    
C19   C22   1.437765 A    
C38   C66   1.457876 S    
C6    C22   1.418647 A    
O18   V4    1.991150 S    
O3    C4    1.298189 A    
C23   C27   1.557244 S    
C52   C54   1.440523 A    
O6    V2    1.965240 S    
C35   H15   1.110494 S    
O13   C68   1.296471 A    
O24   H28   1.013880 S    
C10   C12   1.436289 A    
O11   C66   1.297333 A    
C27   H13   1.110472 S    
N2    O25   1.301393 A    
O2    V1    1.964119 S    
C59   H23   1.084446 S    
N1    O21   1.300282 A    
C36   C44   1.551564 S    
C2    C48   1.477054 S    
C30   C34   1.481215 S    
H12   C32   1.109474 S    
O1    C2    1.300156 A    
C65   O16   1.298756 A    
C12   C16   1.410235 A    
C49   C50   1.398919 A    
O5    V1    1.959381 S    
C3    C26   1.448836 S    
O8    C3    1.300106 A    
C64   H21   1.078080 S    
C29   C30   1.539339 S    
C71   O29   1.223480 D    
C50   H24   1.085109 S    
O15   V3    1.989902 S    
C20   C21   1.387834 A    
O9    V2    1.991224 S    
C70   O27   1.223222 D    
C40   C45   1.489412 S    
O4    V1    1.994685 S    
O3    V1    1.989875 S    
V1    O10   1.707182 S    
C43   H17   1.110497 S    
C36   C40   1.540334 S    
C59   C60   1.391376 A    
C18   C19   1.419801 A    
C9    H6    1.077482 S    
C40   C43   1.540410 S    
O2    C1    1.304173 A    
C16   H8    1.076532 S    
C51   H25   1.076121 S    
O19   V4    1.974583 S    
C47   C50   1.390281 A    
O7    V2    1.703366 S    
C41   C42   1.540280 S    
C6    C21   1.395670 A    
C28   C33   1.481289 S    
O15   C67   1.295980 A    
C23   C30   1.545825 S    
C43   C44   1.551068 S    
C51   C52   1.427764 A    
C17   H3    1.084426 S    
C10   C11   1.419594 A    
C47   C65   1.478266 S    
C55   C61   1.445805 A    
C27   C29   1.549815 S    
C58   C59   1.386665 A    
C9    C10   1.423756 A    
O30   H30   1.014050 S    
C14   H7    1.076495 S    
