data_mof_unit_38186.cif
_audit_creation_date              2012-12-10T20:28:41-0500
_audit_creation_method            fapswitch 2.2
_symmetry_space_group_name_H-M    P1
_symmetry_Int_Tables_number       1
_space_group_crystal_system       triclinic
_cell_length_a                    10.689474
_cell_length_b                    10.697553
_cell_length_c                    9.820155
_cell_angle_alpha                 90.578004
_cell_angle_beta                  88.639539
_cell_angle_gamma                 90.870844
_cell_volume                      1122.44729243

loop_
_atom_site_label
_atom_site_type_symbol
_atom_type_description
_atom_site_fract_x
_atom_site_fract_y
_atom_site_fract_z
_atom_type_partial_charge
C1    C     C_R   0.499038 0.259758 0.499371 0.887959
C2    C     C_R   0.451369 0.933243 0.380678 -0.226192
C3    C     C_R   0.473608 0.871009 0.502830 -0.140104
C4    C     C_R   0.262201 0.520788 0.502378 0.885733
C5    C     C_R   0.475766 0.938066 0.625367 0.111295
C6    C     C_3   0.561426 0.930472 0.743647 -0.125986
C7    C     C_3   0.579927 0.071028 0.732779 -0.437930
C8    C     C_R   0.458550 0.397058 0.071236 0.156643
C9    C     C_R   0.557888 0.593286 0.071660 -0.126628
C10   C     C_R   0.559484 0.592190 0.927227 -0.166119
C11   C     C_R   0.458408 0.397110 0.928469 0.179789
C12   C     C_R   0.061336 0.529956 0.631203 0.083826
C13   C     C_3   0.331259 0.338591 0.924988 0.278913
C14   C     C_3   0.331849 0.337109 0.079941 -0.574565
C15   C     C_R   0.494843 0.740094 0.500795 0.868889
C16   C     C_R   0.741317 0.495932 0.498627 0.900464
C17   C     C_R   0.108428 0.554223 0.762367 -0.149801
C18   C     C_R   0.044566 0.509996 0.878205 -0.193317
C19   C     C_R   0.937327 0.436472 0.863865 -0.141644
C20   C     C_R   0.886096 0.420459 0.735518 -0.138263
C21   C     C_R   0.940163 0.482027 0.620485 0.051505
C22   C     C_3   0.221178 0.184050 0.806503 0.138477
C23   C     C_R   0.130492 0.551368 0.509552 -0.215744
C24   C     C_3   0.121161 0.146425 0.913624 -0.367465
C25   C     C_3   0.004128 0.093105 0.846850 -0.971410
C26   C     C_R   0.068241 0.580237 0.389806 0.045474
C27   C     C_R   0.940168 0.558455 0.384593 0.097415
C28   C     C_R   0.876564 0.503215 0.497687 -0.195443
C29   C     C_R   0.486518 0.065160 0.621956 0.150307
C30   C     C_R   0.484126 0.127915 0.499136 -0.131183
C31   C     C_R   0.455982 0.062553 0.379054 -0.226341
H1    H     H_    0.647046 0.874448 0.724029 0.153257
H2    H     H_    0.081813 0.527483 0.978235 0.126320
H3    H     H_    0.892339 0.394104 0.952269 0.138775
H4    H     H_    0.803854 0.360874 0.728170 0.149239
H5    H     H_    0.445418 0.110032 0.283287 0.172533
H6    H     H_    0.439298 0.882947 0.285449 0.171106
H7    H     H_    0.176982 0.575600 0.216702 0.197980
H8    H     H_    0.195664 0.707187 0.313991 0.193928
H9    H     H_    0.238978 0.102156 0.738785 0.164390
H10   H     H_    0.187090 0.259298 0.739621 0.135663
H11   H     H_    0.159552 0.074818 0.981743 0.234974
H12   H     H_    0.547182 0.124439 0.823924 0.256474
H13   H     H_    0.094835 0.229262 0.976494 0.215004
H14   H     H_    0.965209 0.162112 0.776216 0.264873
H15   H     H_    0.932025 0.070657 0.926505 0.266134
H16   H     H_    0.026714 0.006113 0.789225 0.266119
H17   H     H_    0.914117 0.545275 0.180850 0.185709
H18   H     H_    0.887777 0.689080 0.249406 0.194499
H19   H     H_    0.556710 0.886012 0.945432 0.176400
H20   H     H_    0.445810 0.812329 0.853758 0.203264
H21   H     H_    0.675043 0.098449 0.694285 0.154086
H22   H     H_    0.602222 0.669796 0.125917 0.152241
H23   H     H_    0.607436 0.666111 0.871929 0.153861
H24   H     H_    0.263651 0.403288 0.881548 0.094720
H25   H     H_    0.260147 0.398228 0.127608 0.169336
H26   H     H_    0.334554 0.241639 0.123164 0.216818
H27   H     H_    0.193277 0.608828 0.776408 0.152126
N1    N     N_R   0.499160 0.499140 0.142800 -0.102671
N2    N     N_R   0.499160 0.499180 0.857150 -0.140049
N3    N     N_3   0.130805 0.641658 0.277256 -0.475686
N4    N     N_3   0.875077 0.593065 0.264575 -0.421559
N5    N     N_3   0.491980 0.897970 0.868661 -0.426106
O1    O     O_R   0.500020 0.316790 0.614690 -0.600713
O2    O     O_R   0.500000 0.316760 0.385350 -0.618051
O3    O     O_R   0.316770 0.500020 0.614690 -0.636204
O4    O     O_R   0.316760 0.499980 0.385350 -0.619207
O5    O     O_R   0.500000 0.683240 0.614650 -0.635667
O6    O     O_R   0.499980 0.683210 0.385310 -0.630892
O7    O     O_R   0.683240 0.500020 0.614650 -0.625849
O8    O     O_R   0.683230 0.499980 0.385310 -0.583038
O9    O     O_3   0.335682 0.216831 0.867866 -0.630157
Zn1   Zn    Zn3+2 0.500010 0.500020 0.653130 0.933469
Zn2   Zn    Zn3+2 0.499990 0.499980 0.346870 0.943996

loop_
_geom_bond_atom_site_label_1
_geom_bond_atom_site_label_2
_ccdc_geom_bond_type
C6    N5    S    
C16   C28   S    
O8    Zn2   S    
C10   N2    A    
O1    Zn1   S    
C16   O7    A    
C29   C30   A    
C7    C29   S    
C13   O9    S    
C7    H12   S    
C4    O4    A    
C24   H11   S    
C9    C10   A    
C25   H16   S    
C14   H25   S    
C19   C20   A    
C12   C23   A    
C17   H27   S    
O3    Zn1   S    
H7    N3    S    
C22   H9    S    
C3    C5    A    
O7    Zn1   S    
C17   C18   A    
C3    C15   S    
O6    Zn2   S    
O4    Zn2   S    
C13   C14   S    
C24   C25   S    
C12   C17   A    
C4    O3    A    
H19   N5    S    
C11   C13   S    
C2    H6    S    
C26   C27   A    
C6    C7    S    
C16   O8    A    
C8    C11   A    
C15   O6    A    
C15   O5    A    
C12   C21   A    
C22   O9    S    
C1    C30   S    
C27   N4    S    
C26   N3    S    
C7    H21   S    
C2    C3    A    
C5    C29   A    
C8    N1    A    
C5    C6    S    
H8    N3    S    
C18   H2    S    
C22   C24   S    
C1    O2    A    
C22   H10   S    
C9    H22   S    
C10   H23   S    
N1    Zn2   S    
C11   N2    A    
C1    O1    A    
C25   H14   S    
N2    Zn1   S    
C24   H13   S    
H20   N5    S    
C20   C21   A    
C6    H1    S    
C23   C26   A    
C27   C28   A    
C14   H26   S    
C4    C23   S    
C30   C31   A    
C18   C19   A    
C8    C14   S    
H18   N4    S    
C9    N1    A    
O5    Zn1   S    
C31   H5    S    
C20   H4    S    
H17   N4    S    
C25   H15   S    
C21   C28   A    
O2    Zn2   S    
C2    C31   A    
C13   H24   S    
C19   H3    S    
