data_mof_unit_67306.cif
_audit_creation_date              2013-03-05T16:02:34-0500
_audit_creation_method            fapswitch 2.2
_symmetry_space_group_name_H-M    P1
_symmetry_Int_Tables_number       1
_space_group_crystal_system       triclinic
_cell_length_a                    8.500953
_cell_length_b                    14.525764
_cell_length_c                    16.635132
_cell_angle_alpha                 106.886411
_cell_angle_beta                  81.567385
_cell_angle_gamma                 92.446394
_cell_volume                      1944.33344982

loop_
_atom_site_label
_atom_site_type_symbol
_atom_site_description
_atom_site_fract_x
_atom_site_fract_y
_atom_site_fract_z
_atom_type_partial_charge
P1    P     P_3+3 0.619500 0.379780 0.307000 0.500506
O1    O     O_2   0.449810 0.404330 0.292300 -0.364604
O2    O     O_3   0.665430 0.428070 0.399450 -0.431531
O3    O     O_3   0.183150 0.584440 0.337010 -0.456512
O4    O     O_2   0.361004 0.482417 0.194408 -0.346469
O5    O     O_3   0.609754 0.255377 0.290076 -0.548651
O6    O     O_3   0.240275 0.637533 0.183380 -0.484299
H1    H     H_    0.253908 0.742617 0.297634 0.128842
C1    C     C_3   0.185898 0.803595 0.204289 -0.943166
H2    H     H_    0.310357 0.822601 0.185248 0.242765
H3    H     H_    0.124945 0.781159 0.147179 0.328715
P2    P     P_3+3 0.105540 0.727570 0.557610 0.665505
P3    P     P_3+3 0.604434 0.763143 0.381602 0.526691
O7    O     O_2   0.286000 0.735700 0.531070 -0.329989
O8    O     O_3   0.580930 0.641410 0.378050 -0.308441
O9    O     O_2   0.460051 0.815026 0.442245 -0.375537
O10   O     O_3   0.084902 0.787957 0.667091 -0.508640
O11   O     O_3   0.563408 0.776833 0.285276 -0.588204
C2    C     C_3   0.695638 0.755342 0.221215 0.605474
H4    H     H_    0.799403 0.800524 0.241895 -0.049330
C3    C     C_3   0.647450 0.776236 0.142583 -0.128351
H5    H     H_    0.543138 0.730721 0.123199 0.166602
H6    H     H_    0.610521 0.852307 0.157660 0.087992
C4    C     C_3   0.586286 0.822901 0.729876 0.997202
C5    C     C_3   0.547959 0.912612 0.810478 0.519029
H7    H     H_    0.623658 0.973662 0.799949 -0.042508
Ba1   Ba    Ba6+2 0.356390 0.534880 0.456030 1.671115
C6    C     C_3   0.555397 0.229267 0.364186 0.209169
H8    H     H_    0.424554 0.236573 0.376855 0.027014
H9    H     H_    0.605729 0.275132 0.420438 0.076082
C7    C     C_3   0.605392 0.123979 0.350121 0.855267
H10   H     H_    0.694075 0.127528 0.394039 -0.005960
C8    C     C_3   0.153688 0.746938 0.720056 0.511773
H11   H     H_    0.278627 0.766153 0.715703 0.098748
C9    C     C_3   0.072360 0.790782 0.812873 0.528254
H12   H     H_    0.944939 0.768791 0.815230 0.106390
P4    P     P_3+3 0.570190 0.620290 0.693000 0.645648
O12   O     O_2   0.739870 0.595710 0.707750 -0.297203
O13   O     O_3   0.524260 0.572010 0.600550 -0.318126
O14   O     O_3   0.006540 0.415640 0.663000 -0.312348
O15   O     O_3   0.517858 0.741420 0.752016 -0.618750
P5    P     P_3+3 0.581251 0.238328 0.620975 0.435104
O16   O     O_3   0.149240 0.378950 0.461440 -0.395730
O17   O     O_3   0.608760 0.358670 0.621950 -0.417802
O18   O     O_2   0.727501 0.182608 0.564552 -0.412783
O19   O     O_3   0.596708 0.228609 0.722436 -0.523915
Ba2   Ba    Ba6+2 0.833430 0.465200 0.543970 1.680087
P6    P     P_3+3 0.204162 0.539662 0.225451 0.485135
C10   C     C_3   0.181088 0.722178 0.244851 0.514228
H13   H     H_    0.055508 0.713889 0.270514 0.031214
H14   H     H_    0.124795 0.867887 0.250016 0.194229
O20   O     O_3   0.040450 0.621130 0.538560 -0.292152
C11   C     C_3   0.108596 0.253466 0.278625 1.102407
H15   H     H_    0.127490 0.329889 0.312822 0.032196
C12   C     C_3   0.250418 0.229421 0.206447 -1.148353
H16   H     H_    0.248611 0.153670 0.166415 0.246985
H17   H     H_    0.252874 0.279101 0.166608 0.232865
H18   H     H_    0.362043 0.237562 0.233543 0.287828
P7    P     P_3+3 0.089219 0.256399 0.440026 0.412572
O21   O     O_2   0.903680 0.264350 0.468980 -0.365065
O22   O     O_3   0.112820 0.192925 0.330885 -0.653648
C13   C     C_3   0.560127 0.318461 0.782237 0.411780
H19   H     H_    0.645828 0.373825 0.769176 0.088931
H20   H     H_    0.438560 0.340486 0.779559 0.044765
C14   C     C_3   0.569877 0.313854 0.872110 0.165571
H21   H     H_    0.578519 0.389028 0.913475 0.044015
H22   H     H_    0.678503 0.273659 0.871760 0.133794
P8    P     P_3+3 0.003587 0.422197 0.769464 0.502201
C15   C     C_3   0.032409 0.237832 0.745554 0.802422
O23   O     O_2   0.871256 0.496753 0.817010 -0.339417
O24   O     O_3   0.926414 0.314418 0.786206 -0.604632
H23   H     H_    0.099065 0.246221 0.685502 -0.038309
H24   H     H_    0.019520 0.081108 0.702684 0.238294
C16   C     C_3   0.938163 0.143953 0.723501 -0.858353
H25   H     H_    0.870529 0.141181 0.670983 0.266086
H26   H     H_    0.854512 0.137518 0.779535 0.252596
C17   C     C_2   0.313549 0.489592 0.742445 -0.405326
C18   C     C_R   0.921623 0.437930 0.241902 -0.475345
C19   C     C_2   0.471342 0.585279 0.848822 -0.256211
C20   C     C_2   0.450960 0.555060 0.766246 0.256528
C21   C     C_2   0.200694 0.468577 0.801580 0.224888
C22   C     C_3   0.242345 0.480289 0.889785 -0.150306
C23   C     C_3   0.352719 0.565926 0.919308 0.234587
C24   C     C_2   0.106640 0.473537 0.958146 0.059045
C25   C     C_2   0.136083 0.459094 0.030953 -0.101137
C26   C     C_R   0.861457 0.403258 0.076674 0.088117
C27   C     C_R   0.009828 0.442501 0.097695 0.046971
C28   C     C_R   0.741880 0.387049 0.139079 -0.224400
C29   C     C_R   0.769513 0.407753 0.223407 0.395224
C30   C     C_R   0.036634 0.463635 0.183180 0.202808
H27   H     H_    0.566028 0.635509 0.868065 0.237505
H28   H     H_    0.629269 0.357170 0.121627 0.132179
H29   H     H_    0.298530 0.463342 0.676319 0.195515
H30   H     H_    0.952224 0.439877 0.302602 0.113962
H31   H     H_    0.984580 0.479147 0.948413 0.172583
H32   H     H_    0.258879 0.458929 0.041509 0.146400
C31   C     C_R   0.180832 0.949314 0.545047 -0.084274
C32   C     C_R   0.009704 0.802747 0.501778 0.095692
C33   C     C_R   0.873210 0.764341 0.464622 0.290584
C34   C     C_R   0.786358 0.816527 0.426821 0.083533
C35   C     C_R   0.829956 0.910379 0.429852 -0.448155
C36   C     C_R   0.964103 0.952080 0.465934 0.093167
C37   C     C_R   0.054192 0.900169 0.504112 -0.081699
C38   C     C_R   0.133991 0.094266 0.503529 0.011548
C39   C     C_R   0.222325 0.044615 0.543881 0.053406
C40   C     C_R   0.178825 0.189711 0.502129 0.249636
C41   C     C_R   0.309179 0.233234 0.541338 -0.515341
C42   C     C_R   0.398809 0.183448 0.578931 0.290303
C43   C     C_R   0.353219 0.090687 0.581541 -0.177039
C44   C     C_R   0.005134 0.046702 0.465411 -0.168508
H33   H     H_    0.754568 0.952574 0.407544 0.184132
H34   H     H_    0.419843 0.055534 0.613859 0.133462
H35   H     H_    0.345683 0.304895 0.539209 0.157433
H36   H     H_    0.247600 0.914537 0.578393 0.174615
H37   H     H_    0.935365 0.082703 0.434501 0.164059
N1    N     N_R   0.587662 0.896301 0.888640 0.246915
O25   O     O_R   0.640500 0.813878 0.889431 -0.393679
O26   O     O_R   0.585625 0.968370 0.956955 -0.433300
O27   O     O_3   0.384881 0.935651 0.820821 -0.613353
C45   C     C_3   0.358056 0.035082 0.859653 0.058592
H38   H     H_    0.439479 0.080476 0.828507 0.163816
H39   H     H_    0.366242 0.054245 0.928498 0.129815
H40   H     H_    0.235648 0.052433 0.853454 0.208611
O28   O     O_3   0.474996 0.068662 0.374625 -0.697862
C46   C     C_3   0.382437 0.030705 0.308490 -0.102926
H41   H     H_    0.362720 0.083396 0.274226 0.160289
H42   H     H_    0.264882 0.009231 0.335618 0.148566
H43   H     H_    0.439242 0.965089 0.263162 0.165432
O29   O     O_3   0.675131 0.083295 0.264316 -0.606205
C47   C     C_3   0.780532 0.008837 0.257839 -0.280672
H44   H     H_    0.716831 0.952236 0.281546 0.149922
H45   H     H_    0.884068 0.036366 0.291532 0.152132
H46   H     H_    0.826597 0.976401 0.190035 0.205011
N2    N     N_R   0.136694 0.643442 0.696015 0.169664
O30   O     O_R   0.227379 0.589704 0.631886 -0.381484
O31   O     O_R   0.019638 0.604844 0.732921 -0.358324
O32   O     O_3   0.080033 0.892413 0.835276 -0.585627
C48   C     C_3   0.002581 0.934348 0.918616 0.017589
H47   H     H_    0.087361 0.941443 0.964901 0.155173
H48   H     H_    0.896346 0.893687 0.936590 0.189337
H49   H     H_    0.962537 0.007677 0.923380 0.130766
N3    N     N_R   0.146005 0.753204 0.871395 0.190870
O33   O     O_R   0.067679 0.693827 0.907776 -0.339008
O34   O     O_R   0.283828 0.784361 0.892724 -0.345537
O35   O     O_3   0.955596 0.247390 0.252018 -0.642944
C49   C     C_3   0.945603 0.181131 0.171589 -0.152529
H50   H     H_    0.990363 0.108977 0.167349 0.146116
H51   H     H_    0.008917 0.208841 0.120018 0.113108
H52   H     H_    0.819521 0.173245 0.161009 0.219443
N4    N     N_R   0.776495 0.755889 0.071784 0.290802
O36   O     O_R   0.899054 0.812701 0.073269 -0.411063
O37   O     O_R   0.762574 0.685938 0.003613 -0.301068
O38   O     O_3   0.432702 0.268752 0.901750 -0.540230
C50   C     C_3   0.440464 0.266138 0.985038 -0.187534
H53   H     H_    0.446044 0.339815 0.028851 0.138509
H54   H     H_    0.543135 0.222264 0.987104 0.132407
H55   H     H_    0.330289 0.232015 0.007641 0.170058
N5    N     N_R   0.143249 0.230449 0.802183 0.210829
O39   O     O_R   0.272113 0.180615 0.769616 -0.461544
O40   O     O_R   0.094112 0.247326 0.882979 -0.417505
N6    N     N_R   0.738869 0.654396 0.198836 0.205919
O41   O     O_R   0.880783 0.629228 0.159696 -0.458059
O42   O     O_R   0.627626 0.589677 0.192810 -0.354123
O43   O     O_3   0.812843 0.678112 0.473225 -0.577278
C51   C     C_3   0.873895 0.605962 0.400605 0.136529
H56   H     H_    0.954376 0.558484 0.415406 0.149817
H57   H     H_    0.916260 0.629960 0.343686 -0.022848
H58   H     H_    0.781453 0.557198 0.380374 0.155710
N7    N     N_R   0.755861 0.811444 0.707581 0.154278
O44   O     O_R   0.847951 0.885982 0.729059 -0.478848
O45   O     O_R   0.801654 0.742038 0.640788 -0.361929
O46   O     O_3   0.517715 0.833121 0.659748 -0.636397
C52   C     C_3   0.584772 0.910376 0.630422 -0.200824
H59   H     H_    0.559536 0.980734 0.678509 0.124606
H60   H     H_    0.530943 0.911344 0.574580 0.190468
H61   H     H_    0.714108 0.902060 0.608616 0.166151

loop_
_geom_bond_atom_site_label_1
_geom_bond_atom_site_label_2
_geom_bond_distance
_ccdc_geom_bond_type
O14   Ba2   2.894435 S    
C19   C23   1.513690 S    
C12   H16   1.109202 S    
C51   H56   1.092088 S    
N7    O44   1.302983 A    
C2    H4    1.111576 S    
C1    H14   1.110588 S    
C38   C40   1.427925 A    
C21   C22   1.519708 S    
C52   H59   1.106274 S    
Ba1   O20   2.979008 S    
C35   C36   1.399356 A    
O10   C8    1.399679 S    
P3    O11   1.756064 S    
O19   C13   1.406920 S    
P8    C21   1.871898 S    
C6    H8    1.105077 S    
C2    C3    1.539264 S    
P4    O12   1.570667 D    
C7    O28   1.422073 S    
O11   C2    1.407838 S    
C2    N6    1.453443 S    
C25   H32   1.083860 S    
C26   C28   1.406591 A    
C17   C20   1.499228 S    
C40   C41   1.402036 A    
C32   C37   1.440087 A    
C32   C33   1.412235 A    
C42   C43   1.397190 A    
P1    O1    1.570314 D    
P5    O19   1.758110 S    
C17   H29   1.079393 S    
C15   O24   1.405911 S    
C12   H18   1.096588 S    
C41   H35   1.082461 S    
C14   O38   1.409243 S    
P2    O20   1.578239 S    
Ba2   O21   2.870626 S    
C11   O22   1.409401 S    
C8    N2    1.445690 S    
O5    C6    1.402438 S    
C28   H28   1.077924 S    
Ba1   O13   2.879994 S    
C14   H22   1.111819 S    
P2    O10   1.763076 S    
C46   H43   1.106877 S    
C13   H20   1.105593 S    
C41   C42   1.394319 A    
O1    Ba1   2.852844 S    
O7    Ba1   2.870550 S    
P4    Ba2   3.433305 S    
C1    H2    1.106139 S    
C50   H54   1.112710 S    
O17   Ba2   2.812873 S    
O16   P7    1.778628 S    
C31   C39   1.418819 A    
C11   C12   1.544324 S    
P7    O21   1.579081 D    
C51   H57   1.108511 S    
P6    C30   1.857569 S    
C3    H5    1.112374 S    
N5    O40   1.301432 A    
C4    O15   1.416509 S    
N7    O45   1.287791 A    
P1    Ba1   3.432737 S    
P5    O17   1.749395 S    
C5    O27   1.414092 S    
C38   C39   1.417732 A    
N6    O42   1.298185 A    
C45   H39   1.109257 S    
O35   C49   1.414883 S    
C49   H51   1.111015 S    
C52   H60   1.097887 S    
C18   C29   1.396002 A    
P4    O13   1.592364 S    
O4    P6    1.542425 D    
P7    O22   1.767233 S    
P7    C40   1.860396 S    
C16   H25   1.104689 S    
P2    Ba1   3.455722 S    
P1    O5    1.746439 S    
C5    N1    1.474849 S    
C1    C10   1.518880 S    
C24   C25   1.347056 D    
O6    C10   1.407862 S    
C50   H55   1.108881 S    
C43   H34   1.069587 S    
C26   C27   1.410764 A    
N2    O31   1.286326 A    
C15   N5    1.454101 S    
C5    H7    1.113393 S    
C11   H15   1.107446 S    
C18   C30   1.396487 A    
C33   O43   1.371275 S    
P1    O2    1.592386 S    
C9    H12   1.114529 S    
C15   H23   1.110262 S    
C47   H45   1.110476 S    
P4    C20   1.906903 S    
C49   H52   1.107255 S    
O8    Ba1   2.812223 S    
C7    H10   1.114048 S    
P3    O8    1.755788 S    
C17   C21   1.361598 D    
C13   H19   1.108952 S    
C11   O35   1.425387 S    
C8    H11   1.084011 S    
O12   Ba2   2.853412 S    
C15   C16   1.529176 S    
C12   H17   1.110358 S    
C3    N4    1.457532 S    
C4    C5    1.579601 S    
C4    N7    1.439139 S    
C1    H3    1.107854 S    
C50   H53   1.109711 S    
C31   C37   1.413958 A    
C48   H48   1.109820 S    
P2    O7    1.542223 D    
C10   H13   1.105273 S    
C51   H58   1.060240 S    
C22   C24   1.517905 S    
C3    H6    1.108136 S    
C24   H31   1.083367 S    
N5    O39   1.297444 A    
N3    O34   1.298761 A    
C27   C30   1.415596 A    
C47   H46   1.106807 S    
C16   H26   1.110775 S    
H24   C16   1.109769 S    
O3    Ba1   2.894980 S    
O46   C52   1.415671 S    
O13   Ba2   2.995814 S    
C49   H50   1.109730 S    
O3    P6    1.763627 S    
C52   H61   1.106322 S    
Ba1   Ba2   4.749788 S    
C39   C43   1.405635 A    
O43   C51   1.397903 S    
P1    C29   1.867887 S    
C13   C14   1.530176 S    
N3    O33   1.299826 A    
C19   H27   1.082804 S    
C6    C7    1.546882 S    
C48   H49   1.109380 S    
O27   C45   1.413584 S    
C45   H40   1.107222 S    
Ba2   O20   2.822615 S    
C35   H33   1.076806 S    
O32   C48   1.415102 S    
N2    O30   1.291530 A    
N4    O36   1.299772 A    
C33   C34   1.405723 A    
O6    P6    1.755818 S    
P3    C34   1.859803 S    
O2    Ba1   2.994869 S    
C47   H44   1.101125 S    
O29   C47   1.403894 S    
C6    H9    1.110619 S    
C7    O29   1.424704 S    
N6    O41   1.296911 A    
C9    O32   1.414844 S    
C38   C44   1.401408 A    
C46   H41   1.109580 S    
O16   Ba2   2.978066 S    
C18   H30   1.071387 S    
P8    O24   1.752432 S    
H1    C10   1.111125 S    
O2    Ba2   2.880666 S    
C34   C35   1.385935 A    
C8    C9    1.555889 S    
N1    O26   1.300898 A    
N1    O25   1.300824 A    
N4    O37   1.300834 A    
C14   H21   1.114779 S    
P4    O15   1.786833 S    
C36   C37   1.424295 A    
C4    O46   1.424854 S    
C36   C44   1.405701 A    
C48   H47   1.110490 S    
C9    N3    1.467755 S    
C19   C20   1.350059 D    
Ba1   O16   2.823261 S    
C25   C27   1.492177 S    
C28   C29   1.399646 A    
P8    O23   1.552205 D    
C22   C23   1.532829 S    
O14   P8    1.742264 S    
P3    O9    1.538272 D    
P2    C32   1.898911 S    
C46   H42   1.105673 S    
C45   H38   1.112046 S    
C31   H36   1.079199 S    
P5    C42   1.848982 S    
C44   H37   1.077866 S    
P5    O18   1.544055 D    
O28   C46   1.413483 S    
O38   C50   1.408205 S    
