data_mof_unit_32116.cif
_audit_creation_date              2012-12-10T17:21:41-0500
_audit_creation_method            fapswitch 2.2
_symmetry_space_group_name_H-M    P1
_symmetry_Int_Tables_number       1
_space_group_crystal_system       triclinic
_cell_length_a                    10.734928
_cell_length_b                    10.856351
_cell_length_c                    9.570257
_cell_angle_alpha                 90.518637
_cell_angle_beta                  90.176269
_cell_angle_gamma                 92.91024
_cell_volume                      1113.84722212

loop_
_atom_site_label
_atom_site_type_symbol
_atom_type_description
_atom_site_fract_x
_atom_site_fract_y
_atom_site_fract_z
_atom_type_partial_charge
C1    C     C_R   0.510566 0.263284 0.500160 0.800467
C2    C     C_R   0.537898 0.066596 0.630204 0.101529
C3    C     C_R   0.523326 0.129786 0.502478 -0.126177
C4    C     C_R   0.260283 0.504440 0.499535 0.765908
C5    C     C_R   0.504177 0.062874 0.378044 -0.212588
C6    C     C_R   0.494315 0.935576 0.379950 -0.158425
C7    C     C_R   0.490806 0.872590 0.507136 -0.110511
C8    C     C_R   0.662373 0.668908 0.145929 -0.244555
C9    C     C_R   0.739353 0.755106 0.074818 -0.027716
C10   C     C_R   0.740742 0.751199 0.930062 -0.250976
C11   C     C_R   0.663830 0.666205 0.857575 -0.197724
C12   C     C_3   0.878304 0.506169 0.499272 0.145036
C13   C     C_R   0.580283 0.582262 0.926135 0.202323
C14   C     C_R   0.579993 0.582785 0.075676 0.194005
C15   C     C_R   0.424807 0.420518 0.072917 -0.093232
C16   C     C_R   0.493922 0.737731 0.501657 0.800516
C17   C     C_R   0.424372 0.420984 0.924825 -0.078465
C18   C     C_R   0.740200 0.503389 0.500068 0.752531
C19   C     C_3   0.066502 0.376886 0.531750 -0.413571
C20   C     C_3   0.922649 0.375999 0.532379 -0.378079
C21   C     C_3   0.076997 0.596561 0.613297 -0.372042
C22   C     C_3   0.071611 0.544277 0.349843 -0.122532
C23   C     C_3   0.933419 0.599455 0.609973 -0.394438
C24   C     C_3   0.122431 0.508030 0.497797 0.116156
C25   C     C_2   0.817490 0.850598 0.151397 0.832580
C26   C     C_R   0.130753 0.662067 0.285482 0.111402
C27   C     C_R   0.110149 0.780609 0.339392 -0.132496
C28   C     C_R   0.165496 0.885756 0.277281 -0.119621
C29   C     C_R   0.239700 0.874648 0.158832 -0.122409
C30   C     C_R   0.258610 0.758293 0.102097 -0.125501
C31   C     C_R   0.203867 0.653000 0.164071 -0.082834
C32   C     C_3   0.928355 0.545990 0.353437 -0.402274
C33   C     C_R   0.586620 0.124793 0.753375 -0.153219
C34   C     C_R   0.574000 0.067467 0.882471 -0.139083
C35   C     C_R   0.512355 0.952367 0.890911 -0.152247
C36   C     C_R   0.474991 0.889326 0.769021 -0.166344
C37   C     C_R   0.500409 0.940555 0.635480 0.089722
Cu1   Cu    Cu3+1 0.499990 0.499990 0.640660 0.912145
Cu2   Cu    Cu3+1 0.500010 0.500010 0.359340 0.928843
H1    H     H_    0.100133 0.346770 0.635568 0.173337
H2    H     H_    0.487079 0.886533 0.280977 0.166593
H3    H     H_    0.362923 0.355746 0.127522 0.129925
H4    H     H_    0.097584 0.308800 0.453177 0.151026
H5    H     H_    0.671373 0.672327 0.255970 0.228761
H6    H     H_    0.800548 0.815293 0.871533 0.197502
H7    H     H_    0.672967 0.671868 0.747546 0.214269
H8    H     H_    0.362274 0.356424 0.868454 0.142235
H9    H     H_    0.884380 0.308082 0.453511 0.160752
H10   H     H_    0.887355 0.345827 0.636501 0.169044
H11   H     H_    0.105745 0.563627 0.717860 0.179948
H12   H     H_    0.895695 0.638770 0.328795 0.186043
H13   H     H_    0.896699 0.576028 0.715567 0.183122
H14   H     H_    0.092928 0.466457 0.278334 0.125026
H15   H     H_    0.889337 0.482170 0.270665 0.168822
H16   H     H_    0.946424 0.992180 0.141262 0.326768
H17   H     H_    0.048504 0.793258 0.426485 0.144768
H18   H     H_    0.149361 0.976199 0.319999 0.124960
H19   H     H_    0.281917 0.956278 0.110635 0.120380
H20   H     H_    0.315262 0.749345 0.009654 0.114353
H21   H     H_    0.218599 0.564089 0.116811 0.111050
H22   H     H_    0.121517 0.690412 0.603555 0.147921
H23   H     H_    0.905029 0.694113 0.586059 0.160757
H24   H     H_    0.496655 0.108799 0.278549 0.156239
H25   H     H_    0.636909 0.213564 0.751239 0.158071
H26   H     H_    0.608806 0.113946 0.976366 0.141434
H27   H     H_    0.496323 0.910425 0.991861 0.131688
H28   H     H_    0.422728 0.802944 0.782748 0.162162
N1    N     N_R   0.501200 0.501210 0.147910 -0.188277
N2    N     N_R   0.501250 0.501290 0.852040 -0.199042
O1    O     O_R   0.499990 0.319640 0.618810 -0.585859
O2    O     O_R   0.900362 0.929627 0.078104 -0.768888
O3    O     O_R   0.500000 0.319660 0.381240 -0.578961
O4    O     O_R   0.317680 0.499970 0.618790 -0.587750
O5    O     O_R   0.317700 0.499990 0.381210 -0.586163
O6    O     O_R   0.500000 0.680340 0.618760 -0.615377
O7    O     O_R   0.500010 0.680360 0.381190 -0.588590
O8    O     O_R   0.682300 0.500010 0.618790 -0.607565
O9    O     O_R   0.682320 0.500030 0.381210 -0.601463
O10   O     O_2   0.808471 0.861900 0.278228 -0.645127

loop_
_geom_bond_atom_site_label_1
_geom_bond_atom_site_label_2
_ccdc_geom_bond_type
Cu1   O1    S    
C17   N2    A    
C16   O6    A    
Cu2   N1    S    
C19   C20   S    
C36   H28   S    
C9    C25   S    
C28   H18   S    
C12   C23   S    
C26   C27   A    
C29   C30   A    
C22   C32   S    
C36   C37   A    
C33   H25   S    
Cu1   Cu2   S    
C4    C24   S    
C5    H24   S    
C34   C35   A    
Cu2   O5    S    
C23   H23   S    
C35   C36   A    
C8    C9    A    
C6    H2    S    
Cu2   O3    S    
C25   O2    S    
C9    C10   A    
C4    O5    A    
Cu1   N2    S    
C26   C31   A    
C25   O10   D    
C13   C14   A    
C12   C32   S    
C34   H26   S    
C32   H15   S    
C21   H11   S    
C19   H4    S    
C22   H14   S    
Cu1   O6    S    
C1    O3    A    
Cu2   O9    S    
C17   H8    S    
C19   H1    S    
C27   H17   S    
C35   H27   S    
C1    C3    S    
C31   H21   S    
C32   H12   S    
C20   H10   S    
C30   C31   A    
C18   O9    A    
C30   H20   S    
C12   C20   S    
C10   H6    S    
C33   C34   A    
C7    C37   A    
Cu2   O7    S    
C4    O4    A    
C20   H9    S    
C2    C33   A    
C7    C16   S    
C21   C23   S    
C22   C24   S    
C15   C17   A    
C28   C29   A    
C8    C14   A    
C16   O7    A    
C21   H22   S    
C8    H5    S    
C15   H3    S    
C3    C5    A    
C6    C7    A    
Cu1   O8    S    
C1    O1    A    
C19   C24   S    
C11   C13   A    
C2    C37   A    
C23   H13   S    
C5    C6    A    
C13   N2    A    
C18   O8    A    
C15   N1    A    
C2    C3    A    
C10   C11   A    
C29   H19   S    
C22   C26   S    
C21   C24   S    
C12   C18   S    
C27   C28   A    
C14   N1    A    
C11   H7    S    
H16   O2    S    
Cu1   O4    S    
