data_mof_unit_10956.cif
_audit_creation_date              2012-12-11T16:15:03-0500
_audit_creation_method            fapswitch 2.2
_symmetry_space_group_name_H-M    P1
_symmetry_Int_Tables_number       1
_space_group_crystal_system       triclinic
_cell_length_a                    8.310502
_cell_length_b                    14.934812
_cell_length_c                    17.338347
_cell_angle_alpha                 97.033901
_cell_angle_beta                  96.421467
_cell_angle_gamma                 98.322325
_cell_volume                      2094.8015893

loop_
_atom_site_label
_atom_site_type_symbol
_atom_type_description
_atom_site_fract_x
_atom_site_fract_y
_atom_site_fract_z
_atom_type_partial_charge
Ba1   Ba    Ba6+2 0.159600 0.544390 0.464780 1.663877
Ba2   Ba    Ba6+2 0.650580 0.455600 0.535150 1.641502
C1    C     C_3   0.382507 0.810641 0.183543 0.605903
C2    C     C_R   0.888818 0.792559 0.519710 0.052014
C3    C     C_R   0.072512 0.235938 0.524988 -0.245749
C4    C     C_3   0.965715 0.793499 0.291772 0.613538
C5    C     C_R   0.169277 0.173905 0.551146 0.012857
C6    C     C_R   0.105640 0.081233 0.543510 -0.161117
C7    C     C_R   0.943644 0.047354 0.507208 -0.008464
C8    C     C_R   0.850625 0.110647 0.474491 -0.010911
C9    C     C_R   0.873730 0.952074 0.499397 0.005215
C10   C     C_R   0.711661 0.922332 0.459262 -0.013618
C11   C     C_R   0.625604 0.985948 0.427152 -0.119226
C12   C     C_3   0.452396 0.798170 0.267043 0.167458
C13   C     C_R   0.695552 0.076851 0.432624 -0.025517
C14   C     C_R   0.958456 0.885352 0.530631 -0.141400
C15   C     C_R   0.731817 0.765253 0.478897 -0.218169
C16   C     C_3   0.009667 0.885039 0.260577 -0.056460
C17   C     C_R   0.916016 0.206010 0.483668 0.082172
C18   C     C_R   0.601916 0.539877 0.283262 -0.254348
C19   C     C_R   0.441140 0.495789 0.257907 0.084185
C20   C     C_R   0.376204 0.490562 0.178697 -0.113927
C21   C     C_R   0.472716 0.527875 0.125117 0.032335
C22   C     C_R   0.635334 0.570338 0.151197 -0.131928
C23   C     C_3   0.573295 0.733162 0.652750 0.275785
C24   C     C_R   0.700708 0.574932 0.230009 0.002302
C25   C     C_R   0.412988 0.523116 0.837621 -0.119460
C26   C     C_R   0.359802 0.512024 0.756868 0.020952
C27   C     C_R   0.098465 0.428142 0.777449 0.017761
C28   C     C_3   0.756850 0.330644 0.288720 0.282018
C29   C     C_R   0.151274 0.439223 0.858414 -0.097083
C30   C     C_R   0.309461 0.486320 0.888740 -0.003908
C31   C     C_1   0.363410 0.501139 0.972449 0.021084
C32   C     C_1   0.411487 0.513884 0.042155 0.055552
C33   C     C_R   0.205139 0.462125 0.727124 -0.292475
C34   C     C_3   0.611479 0.836420 0.675387 -0.338859
C35   C     C_3   0.750972 0.291964 0.201551 0.362955
C36   C     C_3   0.060608 0.655756 0.702958 0.280996
C37   C     C_3   0.091891 0.680580 0.792356 -0.118948
C38   C     C_3   0.294546 0.253928 0.343087 0.380235
C39   C     C_3   0.355137 0.165504 0.312874 0.240708
C40   C     C_3   0.925601 0.210688 0.733081 0.736350
C41   C     C_3   0.835214 0.113466 0.703432 0.265455
C42   C     C_3   0.406347 0.261556 0.740770 0.317819
C43   C     C_3   0.432223 0.236351 0.823116 -0.309239
C44   C     C_R   0.640339 0.828974 0.450668 0.034353
H1    H     H_    0.478610 0.726918 0.265547 0.051296
H2    H     H_    0.485431 0.180899 0.303383 0.029860
H3    H     H_    0.564002 0.850080 0.285010 0.058971
H4    H     H_    0.687239 0.708149 0.638376 0.013073
H5    H     H_    0.478799 0.717807 0.600256 0.066767
H6    H     H_    0.708342 0.854410 0.726801 0.149850
H7    H     H_    0.655369 0.869068 0.625824 0.051328
H8    H     H_    0.499259 0.863278 0.690249 0.140080
H9    H     H_    0.934965 0.883947 0.203012 0.117972
H10   H     H_    0.992590 0.231960 0.684519 -0.154711
H11   H     H_    0.746428 0.113723 0.650314 0.027341
H12   H     H_    0.656372 0.229404 0.188300 0.118017
H13   H     H_    0.925639 0.069479 0.685894 0.044209
H14   H     H_    0.278176 0.273861 0.728314 0.009141
H15   H     H_    0.491231 0.325631 0.739037 0.095062
H16   H     H_    0.398911 0.290274 0.865621 0.091560
H17   H     H_    0.562765 0.230280 0.839475 0.139391
H18   H     H_    0.038822 0.796019 0.349923 0.101962
H19   H     H_    0.354242 0.170237 0.826167 0.162066
H20   H     H_    0.676976 0.694104 0.472898 0.060782
H21   H     H_    0.503552 0.966169 0.395548 0.092049
H22   H     H_    0.077750 0.903131 0.564807 0.089011
H23   H     H_    0.171810 0.634207 0.682118 -0.010666
H24   H     H_    0.124489 0.307588 0.531389 0.068531
H25   H     H_    0.187194 0.037467 0.565153 0.084443
H26   H     H_    0.624529 0.120267 0.403654 0.089597
H27   H     H_    0.532039 0.562801 0.860735 0.085429
H28   H     H_    0.712962 0.595877 0.109889 0.086862
H29   H     H_    0.068384 0.413570 0.897542 0.084236
H30   H     H_    0.254123 0.453292 0.158064 0.094761
H31   H     H_    0.654109 0.540948 0.343460 0.075562
H32   H     H_    0.163251 0.455302 0.664984 0.064485
H33   H     H_    0.139232 0.895280 0.251208 0.107199
H34   H     H_    0.956637 0.598357 0.687141 0.062154
H35   H     H_    0.638293 0.352577 0.298938 -0.094274
H36   H     H_    0.857758 0.389522 0.305651 0.040302
H37   H     H_    0.587951 0.368134 0.156796 0.126393
H38   H     H_    0.787219 0.416960 0.163280 0.163466
H39   H     H_    0.985038 0.322329 0.196047 0.317806
H40   H     H_    0.851861 0.645799 0.810211 0.198674
H41   H     H_    0.904865 0.756688 0.799268 0.217879
H42   H     H_    0.052804 0.201620 0.307744 0.273756
H43   H     H_    0.093249 0.295331 0.374550 0.155732
H44   H     H_    0.299792 0.152758 0.199948 0.333061
H45   H     H_    0.192291 0.740031 0.808592 0.143375
H46   H     H_    0.564068 0.779022 0.129791 0.310966
H47   H     H_    0.379854 0.941032 0.211941 0.303792
H48   H     H_    0.978785 0.203404 0.844254 0.335914
H49   H     H_    0.646772 0.096386 0.759691 0.334631
H50   H     H_    0.742299 0.765033 0.246096 0.261781
H51   H     H_    0.052431 0.962524 0.369059 0.178303
H52   H     H_    0.860107 0.956463 0.321753 0.208348
H53   H     H_    0.132271 0.622680 0.819188 0.060803
H54   H     H_    0.372691 0.285287 0.398359 0.049318
H55   H     H_    0.247534 0.789514 0.174356 0.115519
H56   H     H_    0.346597 0.118508 0.357725 0.047827
N1    N     N_3   0.705634 0.355653 0.148715 -0.493470
N2    N     N_3   0.944915 0.702500 0.824732 -0.468603
N3    N     N_3   0.127933 0.232082 0.359421 -0.521528
N4    N     N_3   0.984210 0.963005 0.314717 -0.461504
O1    O     O_2   0.167760 0.722240 0.545330 -0.449561
O2    O     O_2   0.765074 0.438148 0.771170 -0.497096
O3    O     O_3   0.811915 0.268693 0.752465 -0.615069
O4    O     O_3   0.895630 0.608830 0.542770 -0.495648
O5    O     O_3   0.421020 0.453750 0.407560 -0.492277
O6    O     O_2   0.649640 0.543870 0.686710 -0.462891
O7    O     O_3   0.515758 0.693485 0.715892 -0.638540
O8    O     O_2   0.502973 0.172769 0.541615 -0.489249
O9    O     O_3   0.438552 0.190501 0.686533 -0.599779
O10   O     O_3   0.383340 0.666720 0.405900 -0.464233
O11   O     O_2   0.313093 0.825564 0.468531 -0.491401
O12   O     O_3   0.298010 0.311863 0.285340 -0.650136
O13   O     O_3   0.027021 0.733020 0.669938 -0.641019
O14   O     O_3   0.342228 0.813595 0.320636 -0.645852
O15   O     O_2   0.160650 0.456070 0.313260 -0.467456
O16   O     O_3   0.956180 0.620960 0.366010 -0.464962
O17   O     O_2   0.024948 0.548926 0.227075 -0.489000
O18   O     O_3   0.901758 0.266031 0.186808 -0.669982
O19   O     O_3   0.259606 0.121328 0.243012 -0.686223
O20   O     O_3   0.446084 0.753987 0.127876 -0.720657
O21   O     O_3   0.420663 0.902026 0.170398 -0.701166
O22   O     O_3   0.040350 0.210151 0.798873 -0.772398
O23   O     O_3   0.001065 0.721754 0.238486 -0.620050
O24   O     O_3   0.755516 0.076177 0.762126 -0.713938
O25   O     O_3   0.799790 0.780682 0.300412 -0.818759
O26   O     O_2   0.642530 0.277700 0.454650 -0.487845
O27   O     O_3   0.914670 0.391160 0.457170 -0.494049
O28   O     O_3   0.426950 0.333280 0.594040 -0.482462
O29   O     O_3   0.781368 0.258752 0.330824 -0.645881
O30   O     O_3   0.389270 0.546240 0.592370 -0.474801
O31   O     O_3   0.854110 0.379030 0.633930 -0.472145
P1    P     P_3+3 0.994810 0.708030 0.567580 0.988930
P2    P     P_3+3 0.329370 0.428660 0.324010 0.976580
P3    P     P_3+3 0.920447 0.615712 0.264197 0.996533
P4    P     P_3+3 0.815490 0.291960 0.432360 0.971878
P5    P     P_3+3 0.884793 0.379718 0.735559 0.965079
P6    P     P_3+3 0.422157 0.785658 0.411076 0.951450
P7    P     P_3+3 0.477223 0.574480 0.690449 0.944040
P8    P     P_3+3 0.384338 0.215679 0.592063 0.959524

loop_
_geom_bond_atom_site_label_1
_geom_bond_atom_site_label_2
_ccdc_geom_bond_type
C38   O12   S    
O31   P5    S    
C28   H36   S    
C5    C6    A    
C20   H30   S    
H40   N2    S    
C16   N4    S    
C1    O20   S    
O5    P2    S    
C37   N2    S    
C13   H26   S    
Ba2   O6    S    
C15   H20   S    
Ba2   O28   S    
H37   N1    S    
C18   H31   S    
O11   P6    D    
C40   O3    S    
C22   C24   A    
C24   P3    S    
C8    C13   A    
C36   C37   S    
C1    O21   S    
C12   H3    S    
C4    H18   S    
H47   O21   S    
O10   P6    S    
C43   H16   S    
C39   H56   S    
H39   O18   S    
Ba1   Ba2   S    
C37   H45   S    
C23   H4    S    
C34   H7    S    
C40   H10   S    
Ba1   O16   S    
C37   H53   S    
C39   H2    S    
C42   O9    S    
C6    C7    A    
C36   H34   S    
H49   O24   S    
Ba2   O26   S    
C21   C22   A    
O3    P5    S    
C14   H22   S    
Ba1   O10   S    
Ba1   O30   S    
C7    C8    A    
C35   H12   S    
Ba1   P2    S    
C41   H13   S    
C1    H55   S    
C36   H23   S    
C17   P4    S    
C19   C20   A    
O13   P1    S    
O14   P6    S    
C4    O23   S    
Ba1   O27   S    
O2    P5    D    
C4    C16   S    
Ba2   O5    S    
Ba2   O27   S    
C39   O19   S    
O4    P1    S    
C15   C44   A    
C26   C33   A    
C10   C44   A    
C35   N1    S    
C16   H33   S    
O17   P3    D    
C43   H17   S    
Ba2   O30   S    
C28   C35   S    
C2    C14   A    
C23   H5    S    
C3    H24   S    
C23   O7    S    
Ba1   O4    S    
C35   O18   S    
C9    C14   A    
C29   H29   S    
C29   C30   A    
C8    C17   A    
C21   C32   S    
C31   C32   T    
O6    P7    D    
C10   C11   A    
C7    C9    A    
C44   P6    S    
C1    C12   S    
C16   H9    S    
Ba1   O1    S    
H50   O25   S    
C26   P7    S    
C2    C15   A    
C38   C39   S    
C12   O14   S    
C11   C13   A    
C43   H19   S    
C40   C41   S    
C36   O13   S    
O12   P2    S    
C42   C43   S    
C3    C5    A    
C11   H21   S    
O26   P4    D    
H38   N1    S    
O28   P8    S    
C27   C33   A    
Ba2   O4    S    
C6    H25   S    
C25   C30   A    
Ba2   O31   S    
H48   O22   S    
C41   O24   S    
O8    P8    D    
C4    O25   S    
H46   O20   S    
C38   H54   S    
C9    C10   A    
C12   H1    S    
C3    C17   A    
C40   O22   S    
C42   H15   S    
C34   H6    S    
O9    P8    S    
C33   H32   S    
O27   P4    S    
H52   N4    S    
O7    P7    S    
C30   C31   S    
O15   P2    D    
O1    P1    D    
O16   P3    S    
O30   P7    S    
Ba1   O5    S    
H42   N3    S    
C22   H28   S    
O23   P3    S    
C18   C24   A    
C42   H14   S    
C27   P5    S    
H44   O19   S    
Ba1   O15   S    
C34   H8    S    
C41   H11   S    
C23   C34   S    
C2    P1    S    
H41   N2    S    
O29   P4    S    
C18   C19   A    
C27   C29   A    
C28   O29   S    
H43   N3    S    
C25   C26   A    
Ba2   P4    S    
C19   P2    S    
C20   C21   A    
C25   H27   S    
C28   H35   S    
Ba1   P1    S    
C38   N3    S    
C5    P8    S    
H51   N4    S    
