data_mof_unit_59383.cif
_audit_creation_date              2012-12-10T18:13:51-0500
_audit_creation_method            fapswitch 2.2
_symmetry_space_group_name_H-M    P1
_symmetry_Int_Tables_number       1
_space_group_crystal_system       triclinic
_cell_length_a                    11.347069
_cell_length_b                    9.672424
_cell_length_c                    23.466118
_cell_angle_alpha                 90.689793
_cell_angle_beta                  90.26416
_cell_angle_gamma                 94.998985
_cell_volume                      2565.46850314

loop_
_atom_site_label
_atom_site_type_symbol
_atom_type_description
_atom_site_fract_x
_atom_site_fract_y
_atom_site_fract_z
_atom_type_partial_charge
C1    C     C_R   0.258821 0.495694 0.502814 1.027068
C2    C     C_R   0.424536 0.754222 0.972717 -0.113803
C3    C     C_R   0.422687 0.747943 0.031926 -0.124080
C4    C     C_R   0.501581 0.669639 0.061005 -0.018272
C5    C     C_R   0.586592 0.602005 0.030056 -0.002405
C6    C     C_R   0.664930 0.522877 0.059186 -0.113241
C7    C     C_R   0.751706 0.459688 0.028723 -0.185672
C8    C     C_R   0.760521 0.469657 0.969264 0.425272
C9    C     C_R   0.495910 0.654752 0.120404 0.615702
C10   C     C_R   0.653369 0.506704 0.118466 0.660833
C11   C     C_R   0.636135 0.612916 0.248176 0.481571
C12   C     C_R   0.499349 0.500507 0.390418 1.005540
C13   C     C_R   0.614955 0.590024 0.306151 -0.276832
C14   C     C_R   0.515498 0.509353 0.326442 -0.216921
C15   C     C_R   0.435144 0.450373 0.284909 0.708109
C16   C     C_R   0.456334 0.469124 0.226854 -0.224009
C17   C     C_R   0.555808 0.550395 0.207934 0.110411
C18   C     C_R   0.557994 0.686253 0.752411 -0.058947
C19   C     C_R   0.535868 0.655496 0.695004 -0.171540
C20   C     C_R   0.514500 0.516844 0.673941 -0.113446
C21   C     C_R   0.513938 0.408067 0.715281 0.352007
C22   C     C_R   0.535183 0.443056 0.772879 -0.176179
C23   C     C_R   0.739276 0.504981 0.499044 1.016954
C24   C     C_R   0.558268 0.579847 0.791642 0.232948
C25   C     C_3   0.062681 0.463257 0.566183 0.383352
C26   C     C_3   0.054991 0.400556 0.448665 0.368738
C27   C     C_3   0.921138 0.445613 0.558721 0.682642
C28   C     C_3   0.915126 0.414555 0.447541 0.682578
C29   C     C_3   0.080478 0.644247 0.490750 -0.465779
C30   C     C_3   0.117727 0.491748 0.502833 -0.527637
C31   C     C_3   0.876891 0.509158 0.499157 -0.555113
C32   C     C_3   0.943790 0.655583 0.491311 1.004983
C33   C     C_3   0.620471 0.093984 0.511525 0.306442
C34   C     C_3   0.616690 0.929590 0.520795 0.227121
C35   C     C_3   0.431593 0.077424 0.549944 0.529962
C36   C     C_3   0.415336 0.910907 0.543937 0.508845
C37   C     C_3   0.443151 0.059664 0.447915 0.643015
C38   C     C_3   0.481019 0.908881 0.442959 0.675985
C39   C     C_R   0.500822 0.501702 0.609684 0.904956
C40   C     C_R   0.669292 0.546849 0.878125 0.607637
C41   C     C_R   0.501393 0.679339 0.881651 0.580983
C42   C     C_R   0.506282 0.683738 0.941257 -0.002014
C43   C     C_R   0.590598 0.610246 0.969897 -0.054855
C44   C     C_R   0.676136 0.542438 0.938561 -0.147995
Cu1   Cu    Cu3+1 0.499860 0.642410 0.500030 1.177005
Cu2   Cu    Cu3+1 0.499860 0.357590 0.500030 1.229847
H1    H     H_    0.359984 0.812388 0.951620 0.204891
H2    H     H_    0.538182 0.743616 0.666978 0.236865
H3    H     H_    0.534748 0.362992 0.804689 0.205713
H4    H     H_    0.121196 0.722792 0.520539 0.321996
H5    H     H_    0.119206 0.686871 0.451204 0.297686
H6    H     H_    0.357167 0.801737 0.054691 0.203300
H7    H     H_    0.678253 0.124910 0.475950 0.239165
H8    H     H_    0.693222 0.890540 0.499400 0.257333
H9    H     H_    0.478396 0.101739 0.590237 0.195017
H10   H     H_    0.429965 0.866370 0.586542 0.147134
H11   H     H_    0.813206 0.401203 0.051702 0.237481
H12   H     H_    0.676574 0.637465 0.336050 0.287315
H13   H     H_    0.392568 0.423214 0.196075 0.205995
H14   H     H_    0.575682 0.793326 0.766223 0.202446
N1    N     N_R   0.579496 0.607751 0.851517 -0.462466
N2    N     N_R   0.570222 0.572859 0.147793 -0.439785
N3    N     N_3   0.500250 0.143650 0.501250 -0.421868
N4    N     N_3   0.500250 0.856350 0.501250 -0.410306
O1    O     O_R   0.317570 0.620260 0.500030 -0.480190
O2    O     O_R   0.317570 0.379740 0.500030 -0.477717
O3    O     O_R   0.499840 0.620290 0.417900 -0.511031
O4    O     O_R   0.499840 0.379710 0.417900 -0.511402
O5    O     O_R   0.682190 0.620260 0.500010 -0.533034
O6    O     O_R   0.682190 0.379740 0.500010 -0.463488
O7    O     O_R   0.499920 0.620230 0.582140 -0.589670
O8    O     O_R   0.499920 0.379770 0.582140 -0.496659
O9    O     O_2   0.749187 0.488849 0.845457 -0.440575
O10   O     O_2   0.416187 0.741605 0.854062 -0.493655
O11   O     O_2   0.416035 0.720458 0.150560 -0.478761
O12   O     O_2   0.723166 0.423721 0.146420 -0.450553
S1    S     S_3+6 0.490182 0.227338 0.701714 0.052695
O13   O     O_2   0.475404 0.148474 0.756455 -0.278101
O14   O     O_2   0.379513 0.195154 0.667575 -0.199485
O15   O     O_3   0.607333 0.171736 0.667808 -0.416456
H15   H     H_    0.672303 0.180465 0.696317 0.393686
S2    S     S_3+6 0.116892 0.604612 0.618068 0.101976
O16   O     O_2   0.240597 0.659909 0.603785 -0.303932
O17   O     O_2   0.041240 0.724227 0.619401 -0.145009
O18   O     O_3   0.125753 0.547650 0.685366 -0.409400
H16   H     H_    0.162229 0.627954 0.707701 0.388950
S3    S     S_3+6 0.131100 0.468116 0.382136 0.109293
O19   O     O_2   0.260410 0.498137 0.392242 -0.296739
O20   O     O_2   0.118114 0.366342 0.333380 -0.117758
O21   O     O_3   0.085887 0.618055 0.358415 -0.447730
H17   H     H_    0.134106 0.640680 0.324139 0.409659
S4    S     S_3+6 0.116095 0.313813 0.602351 0.219488
O22   O     O_2   0.101549 0.178188 0.571355 -0.061391
O23   O     O_2   0.244911 0.348792 0.614803 -0.251027
O24   O     O_3   0.045329 0.287249 0.664562 -0.379614
H18   H     H_    0.095941 0.229452 0.687063 0.395881
S5    S     S_3+6 0.067539 0.211322 0.448221 0.211011
O25   O     O_2   0.186110 0.187325 0.468501 -0.118892
O26   O     O_2   0.981527 0.126885 0.485316 -0.067040
O27   O     O_3   0.046648 0.141809 0.382551 -0.444360
H19   H     H_    0.064647 0.043851 0.386123 0.404239
F1    F     F_    0.890453 0.304167 0.556470 -0.489623
F2    F     F_    0.853209 0.288012 0.456592 -0.541994
S6    S     S_3+6 0.835385 0.498271 0.620286 0.128605
O28   O     O_2   0.797574 0.642551 0.615160 -0.214072
O29   O     O_2   0.726734 0.399398 0.621915 -0.251370
O30   O     O_3   0.902091 0.485605 0.683643 -0.396864
H20   H     H_    0.840901 0.502737 0.712251 0.380883
S7    S     S_3+6 0.853584 0.440374 0.377032 0.127180
O31   O     O_2   0.867089 0.585308 0.355035 -0.175330
O32   O     O_2   0.901844 0.344938 0.333850 -0.154093
O33   O     O_3   0.711632 0.387119 0.379873 -0.542513
H21   H     H_    0.694157 0.352894 0.340627 0.398516
F3    F     F_    0.914894 0.746145 0.533649 -0.520390
F4    F     F_    0.911409 0.716558 0.441726 -0.544111
F5    F     F_    0.673786 0.160054 0.558720 -0.449307
F6    F     F_    0.638223 0.901587 0.577696 -0.557403
F7    F     F_    0.324514 0.034039 0.457140 -0.511426
F8    F     F_    0.387072 0.825600 0.419037 -0.504091
S8    S     S_3+6 0.426185 0.124380 0.376565 0.180561
O34   O     O_2   0.535726 0.187923 0.348956 -0.250587
O35   O     O_2   0.376728 0.007497 0.338111 -0.174383
O36   O     O_3   0.321959 0.235043 0.380176 -0.394539
H22   H     H_    0.255710 0.190077 0.357348 0.432952
S9    S     S_3+6 0.608290 0.896863 0.393497 0.040241
O37   O     O_2   0.686680 0.788619 0.411801 -0.284544
O38   O     O_2   0.559651 0.858173 0.335334 -0.191045
O39   O     O_3   0.696849 0.044112 0.386515 -0.509462
H23   H     H_    0.760330 0.020367 0.360259 0.442912
F9    F     F_    0.323827 0.130848 0.555438 -0.473879
F10   F     F_    0.299513 0.867712 0.530437 -0.508015
S10   S     S_3+6 0.877410 0.385769 0.937016 0.082134
O40   O     O_2   0.953841 0.489296 0.903136 -0.208122
O41   O     O_2   0.953019 0.324787 0.981355 -0.260497
O42   O     O_3   0.819909 0.256914 0.893764 -0.471987
H24   H     H_    0.888717 0.223332 0.873675 0.395424
S11   S     S_3+6 0.762105 0.722076 0.227993 0.119408
O43   O     O_2   0.735801 0.802914 0.175831 -0.259651
O44   O     O_2   0.799260 0.821634 0.275743 -0.197707
O45   O     O_3   0.873377 0.623130 0.213937 -0.439724
H25   H     H_    0.942059 0.689756 0.205278 0.390114
F11   F     F_    0.331652 0.382599 0.298199 -0.575090

loop_
_geom_bond_atom_site_label_1
_geom_bond_atom_site_label_2
_ccdc_geom_bond_type
S3    O19   D    
C24   N1    S    
Cu1   O7    S    
O36   H22   S    
C41   C42   A    
C23   O5    A    
O24   H18   S    
C41   N1    A    
O39   H23   S    
S5    O27   S    
S6    O29   D    
S5    O25   D    
O42   H24   S    
O18   H16   S    
S11   O44   D    
C29   C30   S    
C18   C24   A    
C1    C30   S    
Cu2   O2    S    
C29   C32   S    
S7    O32   D    
C5    C6    A    
C15   C16   A    
C27   S6    S    
C40   O9    S    
C18   C19   A    
S4    O22   D    
C37   N3    S    
C41   O10   S    
C10   O12   S    
C37   F7    S    
C19   C20   A    
C26   S3    S    
C33   F5    S    
C8    S10   S    
S9    O39   S    
C1    O1    A    
O30   H20   S    
C13   C14   A    
Cu2   O8    S    
S8    O36   S    
S1    O13   D    
C34   F6    S    
C5    C43   A    
C21   C22   A    
C23   O6    A    
C10   N2    A    
C34   N4    S    
S6    O28   D    
S5    O26   D    
S8    O35   D    
C1    O2    A    
C38   N4    S    
C29   H4    S    
S1    O14   D    
C33   H7    S    
S11   O45   S    
C27   C31   S    
C9    N2    A    
C7    C8    A    
O45   H25   S    
S7    O33   S    
C20   C39   S    
C19   H2    S    
C16   C17   A    
C12   O3    A    
Cu1   Cu2   S    
Cu1   O5    S    
S4    O24   S    
C40   N1    A    
C35   C36   S    
C23   C31   S    
C43   C44   A    
Cu2   O4    S    
C37   C38   S    
C36   H10   S    
C17   N2    S    
C15   F11   S    
C12   O4    A    
C31   C32   S    
C33   N3    S    
S4    O23   D    
C33   C34   S    
C35   F9    S    
C35   H9    S    
C6    C7    A    
C39   O8    A    
C22   H3    S    
C38   F8    S    
C18   H14   S    
C12   C14   S    
C34   H8    S    
S2    O17   D    
S3    O20   D    
Cu1   O1    S    
C25   S2    S    
C28   S7    S    
C22   C24   A    
C36   F10   S    
C42   C43   A    
C3    C4    A    
C38   S9    S    
S8    O34   D    
C29   H5    S    
S1    O15   S    
C25   C30   S    
C11   C17   A    
C25   S4    S    
C27   F1    S    
C28   C31   S    
C8    C44   A    
O15   H15   S    
C6    C10   A    
C3    H6    S    
C26   C30   S    
Cu1   O3    S    
C13   H12   S    
C2    H1    S    
C25   C27   S    
S2    O18   S    
S11   O43   D    
Cu1   N4    S    
C26   C28   S    
Cu2   N3    S    
C2    C3    A    
C11   S11   S    
S7    O31   D    
C11   C13   A    
C28   F2    S    
O21   H17   S    
S9    O37   D    
C37   S8    S    
C2    C42   A    
S10   O42   S    
C4    C5    A    
O27   H19   S    
C7    H11   S    
S10   O40   D    
O33   H21   S    
C32   F4    S    
Cu2   O6    S    
C26   S5    S    
C40   C44   A    
C20   C21   A    
S10   O41   D    
S2    O16   D    
S3    O21   S    
C21   S1    S    
S9    O38   D    
C39   O7    A    
C14   C15   A    
C35   N3    S    
C9    O11   S    
C32   F3    S    
C4    C9    A    
C36   N4    S    
C16   H13   S    
S6    O30   S    
