data_mof_unit_11517.cif
_audit_creation_date              2012-12-10T16:56:34-0500
_audit_creation_method            fapswitch 2.2
_symmetry_space_group_name_H-M    P1
_symmetry_Int_Tables_number       1
_space_group_crystal_system       triclinic
_cell_length_a                    7.817824
_cell_length_b                    8.558511
_cell_length_c                    15.700837
_cell_angle_alpha                 91.638269
_cell_angle_beta                  85.117728
_cell_angle_gamma                 93.413709
_cell_volume                      1044.56509285

loop_
_atom_site_label
_atom_site_type_symbol
_atom_type_description
_atom_site_fract_x
_atom_site_fract_y
_atom_site_fract_z
_atom_type_partial_charge
C1    C     C_R   0.545429 0.794498 0.497903 0.959792
C2    C     C_3   0.453270 0.357384 0.027111 0.061012
C3    C     C_1   0.503029 0.500054 0.750662 -0.171813
C4    C     C_1   0.496971 0.499945 0.249338 -0.171811
C5    C     C_3   0.340988 0.457424 0.976836 -0.219806
C6    C     C_3   0.659012 0.542576 0.023164 -0.219807
C7    C     C_3   0.501887 0.499875 0.916889 0.141266
C8    C     C_3   0.498113 0.500125 0.083111 0.141266
C9    C     C_1   0.503251 0.499900 0.825961 -0.054253
C10   C     C_1   0.496749 0.500100 0.174039 -0.054252
C11   C     C_1   0.598251 0.799700 0.941423 0.165370
C12   C     C_R   0.454571 0.205502 0.502097 0.959793
C13   C     C_1   0.401749 0.200300 0.058577 0.165370
C14   C     C_R   0.501062 0.500305 0.661860 0.899124
C15   C     C_R   0.498938 0.499694 0.338140 0.899124
C16   C     C_2   0.569428 0.957922 0.496662 -0.374275
C17   C     C_2   0.430572 0.042078 0.503338 -0.374276
C18   C     C_3   0.386593 0.602474 0.034135 -0.205608
C19   C     C_3   0.613407 0.397526 0.965865 -0.205608
C20   C     C_3   0.546730 0.642616 0.972889 0.061012
H1    H     H_    0.295297 0.686902 0.063716 0.157901
H2    H     H_    0.025848 0.760361 0.560922 0.169077
H3    H     H_    0.704703 0.313098 0.936284 0.157900
H4    H     H_    0.788170 0.578535 0.043875 0.147844
H5    H     H_    0.211830 0.421465 0.956124 0.147844
H6    H     H_    0.700793 0.008431 0.490255 0.174337
H7    H     H_    0.299206 0.991569 0.509745 0.174339
H8    H     H_    0.998946 0.371602 0.361361 0.179781
H9    H     H_    0.974153 0.239631 0.439097 0.169079
H10   H     H_    0.001040 0.628366 0.638646 0.179783
N1    N     N_2   0.950320 0.457950 0.477300 -0.004596
N2    N     N_2   0.049680 0.542050 0.522700 -0.004594
N3    N     N_1   0.638861 0.923553 0.916586 -0.213314
N4    N     N_1   0.361139 0.076447 0.083414 -0.213313
N5    N     N_3   0.030888 0.349589 0.422982 -0.314939
N6    N     N_3   0.969109 0.650398 0.577026 -0.314940
O1    O     O_R   0.389250 0.738570 0.505570 -0.624169
O2    O     O_R   0.610750 0.261430 0.494430 -0.624171
O3    O     O_R   0.678390 0.711630 0.491020 -0.613426
O4    O     O_R   0.321610 0.288370 0.508980 -0.613428
O5    O     O_R   0.355460 0.513480 0.630490 -0.622928
O6    O     O_R   0.644540 0.486520 0.369510 -0.622926
O7    O     O_R   0.644600 0.486540 0.615950 -0.603824
O8    O     O_R   0.355400 0.513460 0.384050 -0.603821
Zn1   Zn    Zn3+2 0.306940 0.517990 0.509710 0.967444
Zn2   Zn    Zn3+2 0.693060 0.482010 0.490290 0.967443

loop_
_geom_bond_atom_site_label_1
_geom_bond_atom_site_label_2
_ccdc_geom_bond_type
C12   C17   S    
C12   O4    A    
C19   H3    S    
C5    C7    S    
C3    C9    T    
C1    O1    A    
C18   H1    S    
C6    C20   S    
N2    Zn1   S    
H9    N5    S    
C18   C20   S    
N1    N2    D    
H10   N6    S    
C6    H4    S    
C4    C15   S    
C13   N4    T    
C1    C16   S    
C12   O2    A    
C6    C19   S    
C3    C14   S    
C14   O5    A    
C5    H5    S    
N2    N6    S    
C15   O8    A    
C7    C19   S    
O3    Zn2   S    
C16   H6    S    
O4    Zn1   S    
O7    Zn2   S    
N1    N5    S    
C11   C20   S    
O2    Zn2   S    
C2    C5    S    
C1    O3    A    
O1    Zn1   S    
C17   H7    S    
C11   N3    T    
H2    N6    S    
O8    Zn1   S    
H8    N5    S    
C8    C10   S    
C7    C20   S    
O6    Zn2   S    
C2    C8    S    
C7    C9    S    
C2    C13   S    
O5    Zn1   S    
C16   C17   D    
C6    C8    S    
C5    C18   S    
C2    C19   S    
C4    C10   T    
C8    C18   S    
C15   O6    A    
C14   O7    A    
N1    Zn2   S    
