data_mof_unit_60083.cif
_audit_creation_date              2013-03-05T16:45:51-0500
_audit_creation_method            fapswitch 2.2
_symmetry_space_group_name_H-M    P1
_symmetry_Int_Tables_number       1
_space_group_crystal_system       triclinic
_cell_length_a                    15.800099
_cell_length_b                    15.86377
_cell_length_c                    17.104931
_cell_angle_alpha                 90.299426
_cell_angle_beta                  96.497789
_cell_angle_gamma                 92.222469
_cell_volume                      4256.39142411

loop_
_atom_site_label
_atom_site_type_symbol
_atom_site_description
_atom_site_fract_x
_atom_site_fract_y
_atom_site_fract_z
_atom_type_partial_charge
O1    O     O_R   0.579470 0.503780 0.617500 -0.547966
O2    O     O_R   0.420530 0.496220 0.382500 -0.548174
O3    O     O_R   0.436280 0.496950 0.611050 -0.600851
O4    O     O_R   0.563720 0.503050 0.388950 -0.600760
C1    C     C_R   0.510602 0.497797 0.651357 0.843146
C2    C     C_R   0.489399 0.502204 0.348649 0.843590
O5    O     O_R   0.571580 0.624340 0.503230 -0.594769
O6    O     O_R   0.428420 0.375660 0.496770 -0.594685
O7    O     O_R   0.428390 0.617510 0.496780 -0.556303
O8    O     O_R   0.571610 0.382490 0.503220 -0.556446
C3    C     C_R   0.499664 0.660366 0.500033 0.845252
C4    C     C_R   0.500336 0.339634 0.499968 0.844780
Cu1   Cu    Cu3+1 0.584780 0.504040 0.503820 0.991250
Cu2   Cu    Cu3+1 0.415220 0.495960 0.496180 0.991133
C5    C     C_3   0.546730 0.029924 0.565474 -0.140944
C6    C     C_3   0.453269 0.970075 0.434522 -0.140827
C7    C     C_3   0.465868 0.971247 0.563689 -0.159395
C8    C     C_3   0.534131 0.028753 0.436307 -0.159370
H1    H     H_    0.437821 0.946285 0.615959 0.139831
H2    H     H_    0.562178 0.053715 0.384036 0.139831
H3    H     H_    0.585113 0.055852 0.619211 0.151681
H4    H     H_    0.414885 0.944147 0.380785 0.151784
H5    H     H_    0.353826 0.047740 0.496820 0.141480
H6    H     H_    0.646173 0.952260 0.503176 0.141477
C9    C     C_1   0.499027 0.750093 0.499958 -0.144800
C10   C     C_1   0.500973 0.249907 0.500041 -0.145129
C11   C     C_3   0.580275 0.974534 0.501744 -0.155530
C12   C     C_3   0.419724 0.025466 0.498252 -0.155549
C13   C     C_3   0.499415 0.917391 0.499958 0.177142
C14   C     C_3   0.500583 0.082608 0.500038 0.177163
C15   C     C_1   0.498984 0.825676 0.499934 -0.055504
C16   C     C_1   0.501015 0.174323 0.500063 -0.055601
C17   C     C_R   0.516602 0.493360 0.737378 -0.144041
C18   C     C_R   0.483399 0.506653 0.262639 -0.143855
C19   C     C_R   0.451510 0.527642 0.775290 -0.286424
C20   C     C_R   0.548225 0.471919 0.224693 -0.286589
C21   C     C_R   0.455362 0.526949 0.856765 -0.143600
C22   C     C_R   0.544341 0.472601 0.143215 -0.143464
C23   C     C_R   0.525022 0.491765 0.902205 0.322699
C24   C     C_R   0.474921 0.508241 0.097818 0.322694
C25   C     C_R   0.590212 0.458071 0.864663 -0.246193
C26   C     C_R   0.409985 0.542373 0.135398 -0.246231
C27   C     C_R   0.586373 0.456908 0.782540 0.308236
C28   C     C_R   0.413871 0.543558 0.217527 0.308116
N1    N     N_2   0.531820 0.487784 0.985453 -0.240337
N2    N     N_2   0.468120 0.512231 0.014571 -0.240386
H7    H     H_    0.601780 0.443206 0.258179 0.169935
H8    H     H_    0.397754 0.556004 0.741780 0.170147
H9    H     H_    0.595575 0.444990 0.116127 0.167045
H10   H     H_    0.403903 0.554185 0.883815 0.167088
H11   H     H_    0.642993 0.429876 0.899761 0.181685
H12   H     H_    0.357398 0.570908 0.100325 0.181759
N3    N     N_R   0.287870 0.489880 0.490440 -0.167858
N4    N     N_R   0.712130 0.510120 0.509560 -0.167906
C29   C     C_R   0.248561 0.539253 0.539876 0.061755
C30   C     C_R   0.751438 0.460756 0.460117 0.061785
C31   C     C_R   0.159182 0.537046 0.537494 -0.267965
C32   C     C_R   0.840818 0.462961 0.462501 -0.267979
C33   C     C_R   0.108718 0.483253 0.483310 0.383818
C34   C     C_R   0.891282 0.516743 0.516695 0.383733
C35   C     C_R   0.151075 0.433391 0.433205 -0.288803
C36   C     C_R   0.848926 0.566595 0.566809 -0.288572
C37   C     C_R   0.240551 0.437511 0.437570 0.101214
C38   C     C_R   0.759449 0.562477 0.562441 0.101705
N5    N     N_2   0.017000 0.476987 0.476824 -0.233528
N6    N     N_2   0.983000 0.523008 0.523183 -0.233506
H13   H     H_    0.713382 0.419223 0.418489 0.124437
H14   H     H_    0.286618 0.580793 0.581496 0.124418
H15   H     H_    0.869645 0.422920 0.422346 0.158374
H16   H     H_    0.130355 0.577095 0.577643 0.158373
H17   H     H_    0.114808 0.391315 0.390740 0.150293
H18   H     H_    0.885192 0.608661 0.609282 0.150346
H19   H     H_    0.272148 0.398692 0.398501 0.129737
H20   H     H_    0.727852 0.601287 0.601517 0.129824
N7    N     N_R   0.651121 0.414822 0.746474 0.131156
O9    O     O_R   0.730045 0.420902 0.778030 -0.352335
O10   O     O_R   0.629675 0.359186 0.690861 -0.353187
N8    N     N_R   0.349457 0.586120 0.253649 0.131167
O11   O     O_R   0.270555 0.580851 0.221965 -0.352170
O12   O     O_R   0.371304 0.641390 0.309501 -0.353546

loop_
_geom_bond_atom_site_label_1
_geom_bond_atom_site_label_2
_geom_bond_distance
_ccdc_geom_bond_type
C9    C15   1.199060 T    
C22   C24   1.409113 A    
C6    C12   1.548622 S    
C11   C13   1.534920 S    
C7    C13   1.534722 S    
H6    C11   1.110125 S    
O7    Cu2   1.931244 S    
C29   H14   1.081729 S    
C23   C25   1.395617 A    
C22   H9    1.082622 S    
N1    N2    1.246256 D    
C10   C16   1.199061 T    
O1    C1    1.289794 A    
C19   C21   1.388185 A    
N8    O12   1.301426 A    
C31   C33   1.412328 A    
C3    C9    1.423849 S    
C32   C34   1.412329 A    
C20   H7    1.083741 S    
C34   C36   1.404241 A    
O4    Cu1   1.955218 S    
C35   C37   1.406202 A    
C36   C38   1.406202 A    
C7    H1    1.110108 S    
C1    C17   1.465934 S    
C6    H4    1.110117 S    
C8    C14   1.534721 S    
C31   H16   1.082308 S    
C8    H2    1.110110 S    
C23   N1    1.417758 S    
C35   H17   1.082830 S    
C24   C26   1.395626 A    
C34   N6    1.440332 S    
Cu1   Cu2   2.665490 S    
C13   C15   1.454697 S    
C25   C27   1.399140 A    
O2    C2    1.289767 A    
C26   C28   1.399177 A    
C19   H8    1.083740 S    
N3    C29   1.365250 A    
C27   N7    1.436808 S    
N4    C30   1.365250 A    
C33   C35   1.404241 A    
C17   C27   1.416958 A    
C28   N8    1.436914 S    
C18   C28   1.416943 A    
O4    C2    1.292192 A    
N8    O11   1.301308 A    
C37   H19   1.081715 S    
C6    C13   1.534683 S    
C2    C18   1.465751 S    
C4    C10   1.423850 S    
O5    C3    1.287386 A    
N7    O9    1.301341 A    
N7    O10   1.301437 A    
C5    C11   1.548621 S    
O5    Cu1   1.927751 S    
O6    C4    1.287387 A    
C36   H18   1.082831 S    
H5    C12   1.110126 S    
O7    C3    1.288227 A    
O3    Cu2   1.955219 S    
O8    C4    1.288227 A    
C29   C31   1.407244 A    
O1    Cu1   1.955779 S    
C24   N2    1.417744 S    
C5    C14   1.534685 S    
Cu1   N4    2.001950 S    
C5    C7    1.548668 S    
O6    Cu2   1.927754 S    
C7    C12   1.548615 S    
C8    C11   1.548614 S    
O3    C1    1.292264 A    
O8    Cu1   1.931247 S    
C32   H15   1.082308 S    
C30   H13   1.081729 S    
C12   C14   1.534918 S    
C21   C23   1.409112 A    
C33   N5    1.440331 S    
C14   C16   1.454696 S    
C21   H10   1.082636 S    
N3    C37   1.363052 A    
N4    C38   1.363051 A    
C20   C22   1.388189 A    
C17   C19   1.401663 A    
C30   C32   1.407242 A    
C18   C20   1.401611 A    
O2    Cu2   1.955779 S    
C5    H3    1.110117 S    
Cu2   N3    2.001950 S    
C6    C8    1.548668 S    
N5    N6    1.253461 D    
C38   H20   1.081715 S    
C25   H11   1.083688 S    
C26   H12   1.083680 S    
