data_mof_unit_25776.cif
_audit_creation_date              2012-12-10T17:17:24-0500
_audit_creation_method            fapswitch 2.2
_symmetry_space_group_name_H-M    P1
_symmetry_Int_Tables_number       1
_space_group_crystal_system       triclinic
_cell_length_a                    10.18009
_cell_length_b                    10.862366
_cell_length_c                    12.502863
_cell_angle_alpha                 90.781783
_cell_angle_beta                  109.787984
_cell_angle_gamma                 95.769784
_cell_volume                      1292.65658319

loop_
_atom_site_label
_atom_site_type_symbol
_atom_type_description
_atom_site_fract_x
_atom_site_fract_y
_atom_site_fract_z
_atom_type_partial_charge
C1    C     C_R   0.050326 0.732017 0.490382 0.929767
C2    C     C_R   0.439470 0.564904 0.985569 0.083759
C3    C     C_R   0.368496 0.576198 0.869071 0.058464
C4    C     C_R   0.578814 0.533684 0.019385 0.086953
C5    C     C_R   0.649682 0.529895 0.939398 0.177440
C6    C     C_R   0.585023 0.564924 0.829225 -0.251276
C7    C     C_R   0.447338 0.591974 0.795789 -0.178768
C8    C     C_R   0.648716 0.503680 0.130073 -0.260125
C9    C     C_R   0.858173 0.476643 0.085750 -0.206847
C10   C     C_R   0.220993 0.573901 0.829480 -0.162279
C11   C     C_2   0.074626 0.863089 0.477714 -0.379478
C12   C     C_R   0.138689 0.529681 0.711078 0.878895
C13   C     C_2   0.973185 0.932380 0.476283 -0.145110
C14   C     C_2   0.912418 0.135342 0.500830 -0.385942
C15   C     C_2   0.996192 0.063907 0.472976 -0.147285
C16   C     C_2   0.430404 0.518271 0.499705 -0.135158
C17   C     C_2   0.567472 0.488604 0.489922 -0.133947
C18   C     C_R   0.946976 0.267665 0.505145 0.958884
C19   C     C_R   0.864249 0.485696 0.286788 0.871725
C20   C     C_R   0.786074 0.495271 0.972011 -0.212503
C21   C     C_R   0.789964 0.485025 0.165290 -0.055704
C22   C     C_R   0.154876 0.608956 0.906315 0.117162
C23   C     C_R   0.230651 0.615480 0.023139 -0.179597
C24   C     C_R   0.368938 0.587763 0.062737 -0.227155
H1    H     H_    0.966875 0.458251 0.111526 0.163168
H2    H     H_    0.873926 0.892954 0.483141 0.188674
H3    H     H_    0.173678 0.902949 0.470947 0.148150
H4    H     H_    0.567028 0.410839 0.434343 0.160732
H5    H     H_    0.429394 0.602934 0.545724 0.147987
H6    H     H_    0.682341 0.628203 0.595115 0.154040
H7    H     H_    0.319488 0.366510 0.412231 0.160822
H8    H     H_    0.837518 0.485588 0.910086 0.171853
H9    H     H_    0.595263 0.496606 0.191135 0.157398
H10   H     H_    0.420055 0.592652 0.153847 0.143234
H11   H     H_    0.181932 0.640080 0.084022 0.142434
H12   H     H_    0.403648 0.628545 0.713151 0.159429
H13   H     H_    0.087345 0.102346 0.452666 0.188040
N1    N     N_2   0.313640 0.446500 0.454900 -0.191886
N2    N     N_2   0.686360 0.553430 0.545150 -0.194139
O1    O     O_R   0.936910 0.692950 0.509080 -0.615764
O2    O     O_R   0.138320 0.658600 0.480130 -0.623062
O3    O     O_R   0.002900 0.525670 0.675280 -0.584352
O4    O     O_R   0.204310 0.491320 0.646330 -0.606984
O5    O     O_R   0.861680 0.341400 0.519870 -0.608428
O6    O     O_R   0.063090 0.307050 0.490920 -0.608144
O7    O     O_R   0.795690 0.508680 0.353670 -0.617959
O8    O     O_R   0.997100 0.474330 0.324720 -0.614746
Zn1   Zn    Zn3+2 0.865520 0.522940 0.519330 0.937744
Zn2   Zn    Zn3+2 0.134480 0.477060 0.480670 0.934255
H14   H     H_    0.821545 0.096464 0.521164 0.149547
H15   H     H_    0.640952 0.571928 0.769352 0.146569
N3    N     N_3   0.014576 0.643871 0.865545 -0.449305
H16   H     H_    0.987028 0.675900 0.933448 0.172641
H17   H     H_    0.015310 0.720087 0.815460 0.186177

loop_
_geom_bond_atom_site_label_1
_geom_bond_atom_site_label_2
_ccdc_geom_bond_type
H6    N2    S    
C2    C4    A    
C23   C24   A    
C18   O6    A    
C6    C7    A    
C18   O5    A    
C6    H15   S    
C7    H12   S    
C14   C18   S    
C9    C20   A    
C23   H11   S    
C1    C11   S    
H7    N1    S    
O6    Zn2   S    
C4    C8    A    
C2    C3    A    
C19   O7    A    
C9    H1    S    
O8    Zn2   S    
N1    Zn2   S    
O3    Zn1   S    
C10   C22   A    
C11   C13   D    
C9    C21   A    
C14   H14   S    
C10   C12   S    
O2    Zn2   S    
C17   N2    D    
C19   C21   S    
N3    H17   S    
C11   H3    S    
C8    C21   A    
C12   O4    A    
C3    C7    A    
C8    H9    S    
C13   C15   S    
C2    C24   A    
C5    C6    A    
C5    C20   A    
C13   H2    S    
C16   C17   S    
O7    Zn1   S    
N3    H16   S    
C22   N3    S    
C20   H8    S    
C19   O8    A    
C1    O2    A    
C3    C10   A    
O1    Zn1   S    
C14   C15   D    
C15   H13   S    
C12   O3    A    
C1    O1    A    
C16   H5    S    
C22   C23   A    
C17   H4    S    
O4    Zn2   S    
O5    Zn1   S    
C16   N1    D    
C4    C5    A    
N2    Zn1   S    
C24   H10   S    
