data_mof_unit_17055.cif
_audit_creation_date              2012-12-11T14:17:49-0500
_audit_creation_method            fapswitch 2.2
_symmetry_space_group_name_H-M    P1
_symmetry_Int_Tables_number       1
_space_group_crystal_system       triclinic
_cell_length_a                    6.94095
_cell_length_b                    13.647206
_cell_length_c                    20.402736
_cell_angle_alpha                 102.131387
_cell_angle_beta                  90.441991
_cell_angle_gamma                 90.330876
_cell_volume                      1889.370972

loop_
_atom_site_label
_atom_site_type_symbol
_atom_type_description
_atom_site_fract_x
_atom_site_fract_y
_atom_site_fract_z
_atom_type_partial_charge
O1    O     O_R   0.506860 0.599390 0.449240 -0.537890
O2    O     O_R   0.180220 0.594600 0.586780 -0.549611
O3    O     O_R   0.004500 0.400610 0.550760 -0.538238
C1    C     C_R   0.349059 0.612411 0.614614 0.636090
O4    O     O_R   0.177490 0.611290 0.451970 -0.540462
O5    O     O_R   0.001750 0.417420 0.414990 -0.538008
C2    C     C_R   0.345845 0.637980 0.435171 0.703689
O6    O     O_R   0.509610 0.582580 0.585010 -0.542806
O7    O     O_3   0.337420 0.436370 0.488020 -0.368653
V1    V     V_3+5 0.064680 0.511800 0.502220 1.414390
O8    O     O_R   0.671710 0.405400 0.413220 -0.544744
C3    C     C_R   0.839600 0.383485 0.386714 0.741646
O9    O     O_R   0.674440 0.388710 0.548030 -0.542356
C4    C     C_R   0.843404 0.362576 0.565068 0.692588
V2    V     V_3+5 0.564010 0.488200 0.497780 1.414053
O10   O     O_3   0.841140 0.563630 0.511980 -0.371360
C5    C     C_R   0.876709 0.112396 0.612011 -0.145691
H1    H     H_    0.876748 0.163424 0.519575 0.105388
H2    H     H_    0.889749 0.034913 0.586084 0.152817
C6    C     C_R   0.852721 0.285824 0.605035 -0.025863
C7    C     C_R   0.855203 0.315965 0.929666 0.410037
C8    C     C_R   0.839649 0.391527 0.892886 -0.225918
C9    C     C_R   0.838720 0.368235 0.823086 -0.191776
C10   C     C_R   0.850193 0.267791 0.786976 0.079803
C11   C     C_R   0.858964 0.190535 0.824144 -0.062067
C12   C     C_R   0.853671 0.241646 0.715332 0.035710
C13   C     C_R   0.865929 0.138915 0.682451 0.034812
C14   C     C_R   0.865808 0.063673 0.720092 0.384395
C15   C     C_R   0.866071 0.089677 0.789811 -0.258700
C16   C     C_R   0.846087 0.314078 0.674892 -0.185248
C17   C     C_R   0.869723 0.185349 0.573715 -0.192527
C18   C     C_R   0.860018 0.215509 0.895263 -0.134880
H3    H     H_    0.834983 0.393159 0.695729 0.089663
H4    H     H_    0.827836 0.431134 0.799131 0.133127
H5    H     H_    0.826341 0.469182 0.918273 0.118946
H6    H     H_    0.871121 0.029241 0.816699 0.128251
C19   C     C_2   0.005249 0.288517 0.285421 -0.136958
C20   C     C_2   0.842069 0.314153 0.320263 -0.315053
H7    H     H_    0.142110 0.318385 0.307245 0.144081
H8    H     H_    0.703772 0.284680 0.300135 0.135201
C21   C     C_2   0.014141 0.220355 0.217868 -0.148507
C22   C     C_2   0.859093 0.183967 0.180137 -0.295753
H9    H     H_    0.157138 0.200523 0.198435 0.136938
H10   H     H_    0.714949 0.203625 0.197897 0.135410
C23   C     C_2   0.206691 0.789508 0.781938 -0.084311
C24   C     C_2   0.365145 0.824992 0.817388 -0.281293
H11   H     H_    0.065528 0.808805 0.803241 0.135687
H12   H     H_    0.505755 0.812689 0.794631 0.183790
C25   C     C_2   0.214189 0.730539 0.711625 -0.132540
C26   C     C_2   0.359745 0.669011 0.685488 0.180480
H13   H     H_    0.088874 0.736534 0.680618 0.113808
C27   C     C_R   0.311406 0.887823 0.386971 -0.167223
H14   H     H_    0.307654 0.837633 0.479814 0.107679
H15   H     H_    0.270010 0.009816 0.302577 0.121534
H16   H     H_    0.284055 0.964889 0.411472 0.114137
C28   C     C_R   0.352187 0.715394 0.395383 -0.060973
C29   C     C_R   0.412477 0.687118 0.072415 -0.358812
C30   C     C_R   0.464735 0.615274 0.109013 0.328971
C31   C     C_R   0.468041 0.640882 0.179256 0.384632
C32   C     C_R   0.392831 0.734621 0.213914 -0.114836
C33   C     C_R   0.352364 0.808781 0.175847 0.011411
C34   C     C_R   0.367713 0.759628 0.285143 0.098228
C35   C     C_R   0.328656 0.860515 0.316962 0.144205
C36   C     C_R   0.301804 0.932964 0.278708 -0.207796
C37   C     C_R   0.308548 0.907153 0.209275 -0.159048
C38   C     C_R   0.370215 0.687366 0.325743 -0.208892
C39   C     C_R   0.324497 0.815705 0.425970 -0.169201
C40   C     C_R   0.365486 0.784384 0.105081 -0.110382
H17   H     H_    0.373356 0.608129 0.304513 0.163554
H18   H     H_    0.421856 0.669326 0.018187 0.126755
H19   H     H_    0.280988 0.965706 0.182008 0.116085
O11   O     O_R   0.203230 0.917310 0.915020 -0.540677
O12   O     O_R   0.535500 0.888690 0.048040 -0.541924
O13   O     O_R   0.711080 0.082610 0.085000 -0.539777
C41   C     C_R   0.367473 0.862285 0.065156 0.725415
O14   O     O_R   0.532630 0.905370 0.913230 -0.548187
O15   O     O_R   0.708190 0.099410 0.949230 -0.537718
C42   C     C_R   0.364309 0.886148 0.886058 0.718414
O16   O     O_R   0.206120 0.900510 0.050790 -0.545131
O17   O     O_3   0.375360 0.063570 0.011990 -0.369696
V3    V     V_3+5 0.648170 0.988200 0.997780 1.439893
O18   O     O_R   0.038240 0.111390 0.951940 -0.543468
C43   C     C_R   0.869313 0.137357 0.934772 0.765762
O19   O     O_R   0.041120 0.094710 0.086750 -0.546478
C44   C     C_R   0.872777 0.115971 0.113462 0.765111
V4    V     V_3+5 0.148810 0.011930 0.002180 1.432760
O20   O     O_3   0.871750 0.936430 0.988010 -0.378277
O21   O     O_3   0.511655 0.653139 0.726274 -0.653045
H20   H     H_    0.596641 0.600682 0.700984 0.284461
O22   O     O_3   0.873560 0.963449 0.688968 -0.561603
C45   C     C_3   0.683503 0.928040 0.673279 0.060547
H21   H     H_    0.599229 0.978751 0.647713 0.118212
H22   H     H_    0.607095 0.920504 0.719688 0.130579
C46   C     C_3   0.690409 0.826008 0.625905 -0.647979
H23   H     H_    0.754235 0.769987 0.651856 0.221095
H24   H     H_    0.542259 0.801677 0.608798 0.159545
H25   H     H_    0.778226 0.830399 0.581316 0.209025
O23   O     O_3   0.562198 0.576619 0.212601 -0.548720
C47   C     C_3   0.754690 0.610421 0.225034 0.105621
H26   H     H_    0.762503 0.690975 0.250810 0.117186
H27   H     H_    0.835616 0.599809 0.177165 0.137164
C48   C     C_3   0.852254 0.550076 0.270328 -0.693381
H28   H     H_    0.846466 0.469227 0.246561 0.230806
H29   H     H_    0.005237 0.573789 0.278741 0.174468
H30   H     H_    0.778227 0.562334 0.319421 0.217552
O24   O     O_3   0.526422 0.521170 0.077624 -0.622463
H31   H     H_    0.517065 0.514709 0.028366 0.288444
O25   O     O_3   0.849264 0.336979 0.999292 -0.555253
C49   C     C_3   0.987291 0.410945 0.027182 0.098824
H32   H     H_    0.927427 0.486863 0.029105 0.136354
H33   H     H_    0.124763 0.402736 0.998572 0.118044
C50   C     C_3   0.033334 0.401174 0.098505 -0.639394
H34   H     H_    0.104089 0.328232 0.097997 0.216240
H35   H     H_    0.131572 0.462828 0.122939 0.189516
H36   H     H_    0.898466 0.405007 0.127771 0.242515

loop_
_geom_bond_atom_site_label_1
_geom_bond_atom_site_label_2
_ccdc_geom_bond_type
C21   H9    S    
C21   C22   D    
C1    O6    A    
C50   H35   S    
O22   C45   S    
C6    C16   A    
C23   C24   D    
C40   C41   S    
C8    H5    S    
C15   H6    S    
C12   C13   A    
C19   C20   D    
C14   C15   A    
O14   C42   A    
C49   H33   S    
O5    C3    A    
C38   H17   S    
O24   H31   S    
O15   C43   A    
V2    O10   S    
O23   C47   S    
O25   C49   S    
C48   H30   S    
C32   C34   A    
O17   V4    S    
O8    V2    S    
C25   H13   S    
O11   C42   A    
C9    C10   A    
O1    V2    S    
C23   C25   S    
C29   H18   S    
O7    V1    S    
C27   H16   S    
C26   O21   S    
C46   H24   S    
C11   C18   A    
C31   C32   A    
O9    C4    A    
C3    C20   S    
O12   C41   A    
C46   H23   S    
C22   H10   S    
C2    C28   S    
O12   V3    S    
C50   H34   S    
C14   O22   S    
C23   H11   S    
C11   C15   A    
C7    C18   A    
C24   H12   S    
C34   C38   A    
C5    C13   A    
C4    C6    S    
C10   C11   A    
C49   C50   S    
C45   H21   S    
O4    C2    A    
V4    O20   S    
C46   H25   S    
C30   C31   A    
O18   V4    S    
O18   C43   A    
C1    C26   S    
C32   C33   A    
C30   O24   S    
O2    C1    A    
C34   C35   A    
C45   H22   S    
C47   H26   S    
O15   V3    S    
C9    H4    S    
C22   C44   S    
O19   C44   A    
C48   H29   S    
O3    C4    A    
V3    O20   S    
C27   C39   A    
C47   H27   S    
C12   C16   A    
O6    V2    S    
O9    V2    S    
C5    C17   A    
C29   C40   A    
O2    V1    S    
C24   C42   S    
C18   C43   S    
C16   H3    S    
O1    C2    A    
C10   C12   A    
O17   V3    S    
C27   C35   A    
O14   V3    S    
O5    V1    S    
O11   V4    S    
O8    C3    A    
C28   C39   A    
C36   C37   A    
O7    V2    S    
O4    V1    S    
C19   H7    S    
O3    V1    S    
C37   H19   S    
C49   H32   S    
C45   C46   S    
C20   H8    S    
C33   C40   A    
C29   C30   A    
H15   C36   S    
C28   C38   A    
C5    H2    S    
C50   H36   S    
O13   C44   A    
C19   C21   S    
C48   H28   S    
H14   C39   S    
C7    O25   S    
C35   C36   A    
C33   C37   A    
C47   C48   S    
O21   H20   S    
C25   C26   D    
C13   C14   A    
C31   O23   S    
C8    C9    A    
O19   V4    S    
V1    O10   S    
H1    C17   S    
O13   V3    S    
C7    C8    A    
C41   O16   A    
O16   V4    S    
C6    C17   A    
