data_mof_unit_33818.cif
_audit_creation_date              2012-12-10T20:49:43-0500
_audit_creation_method            fapswitch 2.2
_symmetry_space_group_name_H-M    P1
_symmetry_Int_Tables_number       1
_space_group_crystal_system       triclinic
_cell_length_a                    8.090832
_cell_length_b                    8.924562
_cell_length_c                    16.626255
_cell_angle_alpha                 89.999982
_cell_angle_beta                  85.138785
_cell_angle_gamma                 90.000033
_cell_volume                      1196.21573147

loop_
_atom_site_label
_atom_site_type_symbol
_atom_type_description
_atom_site_fract_x
_atom_site_fract_y
_atom_site_fract_z
_atom_type_partial_charge
C1    C     C_R   0.500000 0.782065 0.500000 0.935579
C2    C     C_R   0.420256 0.354457 0.235612 -0.244971
C3    C     C_R   0.563377 0.296142 0.841579 -0.168191
C4    C     C_R   0.436625 0.296144 0.158420 -0.168187
C5    C     C_R   0.431211 0.341356 0.895732 0.190840
C6    C     C_R   0.568790 0.341360 0.104268 0.190840
C7    C     C_R   0.309474 0.438034 0.870348 -0.217892
C8    C     C_R   0.690525 0.438040 0.129651 -0.217894
C9    C     C_R   0.323709 0.497307 0.792153 -0.003669
C10   C     C_R   0.676289 0.497312 0.207847 -0.003668
C11   C     C_2   0.429182 0.306468 0.981691 -0.226495
C12   C     C_R   0.500000 0.217914 0.500000 0.939037
C13   C     C_2   0.570820 0.306473 0.018308 -0.226492
C14   C     C_R   0.803719 0.605052 0.231290 0.128085
C15   C     C_R   0.756881 0.746005 0.263574 -0.126993
C16   C     C_R   0.877105 0.846091 0.286703 -0.119469
C17   C     C_R   0.044903 0.807087 0.277155 -0.114135
C18   C     C_R   0.092823 0.668113 0.244217 -0.120151
C19   C     C_R   0.973023 0.567395 0.221220 -0.152549
C20   C     C_R   0.196278 0.605047 0.768711 0.128087
C21   C     C_R   0.243115 0.746000 0.736425 -0.126988
C22   C     C_R   0.122889 0.846087 0.713299 -0.119469
C23   C     C_1   0.500000 0.934787 0.500000 -0.216575
C24   C     C_R   0.955091 0.807083 0.722851 -0.114134
C25   C     C_R   0.907172 0.668110 0.755789 -0.120152
C26   C     C_R   0.026974 0.567391 0.778784 -0.152552
C27   C     C_1   0.500000 0.065168 0.500000 -0.212985
C28   C     C_R   0.477076 0.496844 0.654095 0.843046
C29   C     C_R   0.522924 0.496844 0.345905 0.843046
C30   C     C_R   0.462315 0.455982 0.739149 -0.087394
C31   C     C_R   0.537685 0.455984 0.260850 -0.087394
C32   C     C_R   0.579746 0.354456 0.764387 -0.244970
H1    H     H_    0.208097 0.473758 0.912896 0.126475
H2    H     H_    0.840126 0.953990 0.311962 0.133606
H3    H     H_    0.137838 0.884684 0.295081 0.125640
H4    H     H_    0.222862 0.638447 0.236598 0.142397
H5    H     H_    0.012088 0.459564 0.196452 0.122774
H6    H     H_    0.372594 0.778218 0.729062 0.098192
H7    H     H_    0.159868 0.953986 0.688040 0.133606
H8    H     H_    0.862154 0.884681 0.704928 0.125639
H9    H     H_    0.777132 0.638444 0.763412 0.142396
H10   H     H_    0.987910 0.459560 0.803553 0.122773
H11   H     H_    0.791902 0.473765 0.087103 0.126475
H12   H     H_    0.344165 0.217747 0.140768 0.132168
H13   H     H_    0.655839 0.217747 0.859231 0.132169
H14   H     H_    0.683115 0.317072 0.723583 0.163630
H15   H     H_    0.316887 0.317070 0.276416 0.163628
H16   H     H_    0.689600 0.314785 0.982887 0.144911
H17   H     H_    0.310401 0.314771 0.017112 0.144912
H18   H     H_    0.627402 0.778223 0.270935 0.098194
N1    N     N_1   0.926360 0.500000 0.499990 -0.028719
N2    N     N_1   0.073640 0.500000 0.500010 -0.028719
O1    O     O_R   0.363150 0.714660 0.500000 -0.609866
O2    O     O_R   0.636850 0.285340 0.500000 -0.617790
O3    O     O_R   0.636850 0.714660 0.500000 -0.609865
O4    O     O_R   0.363150 0.285340 0.500000 -0.617790
O5    O     O_R   0.346950 0.500000 0.615800 -0.598588
O6    O     O_R   0.653050 0.500000 0.384200 -0.598587
O7    O     O_R   0.620700 0.500000 0.615800 -0.622593
O8    O     O_R   0.379300 0.500000 0.384200 -0.622594
Zn1   Zn    Zn3+2 0.317220 0.500000 0.500010 0.985167
Zn2   Zn    Zn3+2 0.682780 0.500000 0.499990 0.985168

loop_
_geom_bond_atom_site_label_1
_geom_bond_atom_site_label_2
_ccdc_geom_bond_type
O6    Zn2   S    
C13   H16   S    
C2    C4    A    
C24   C25   A    
C8    H11   S    
C5    C11   S    
C11   H17   S    
C23   C27   T    
C2    H15   S    
C11   C13   D    
C9    C20   S    
C29   O8    A    
C32   H14   S    
C21   C22   A    
C28   C30   S    
C17   C18   A    
C1    O3    A    
C29   C31   S    
C28   O5    A    
C29   O6    A    
C6    C13   S    
C30   C32   A    
C7    H1    S    
C12   O4    A    
N1    Zn2   S    
C20   C26   A    
C9    C30   A    
C22   H7    S    
C10   C31   A    
C17   H3    S    
O2    Zn2   S    
C24   H8    S    
C1    C23   S    
N2    Zn1   S    
C2    C31   A    
C3    C32   A    
C22   C24   A    
C28   O7    A    
C4    C6    A    
C12   C27   S    
O1    Zn1   S    
C15   C16   A    
O3    Zn2   S    
C7    C9    A    
C20   C21   A    
C26   H10   S    
C8    C10   A    
C18   C19   A    
C10   C14   S    
C15   H18   S    
C25   H9    S    
O5    Zn1   S    
C5    C7    A    
C1    O1    A    
O4    Zn1   S    
C16   C17   A    
O7    Zn2   S    
C6    C8    A    
C19   H5    S    
C16   H2    S    
C25   C26   A    
C14   C15   A    
C18   H4    S    
C14   C19   A    
C3    H13   S    
C12   O2    A    
C21   H6    S    
N1    N2    T    
C4    H12   S    
O8    Zn1   S    
C3    C5    A    
