data_mof_unit_43209.cif
_audit_creation_date              2012-10-26T19:07:32-0400
_audit_creation_method            fapswitch 2.2
_symmetry_space_group_name_H-M    P1
_symmetry_Int_Tables_number       1
_space_group_crystal_system       triclinic
_cell_length_a                    15.023557
_cell_length_b                    13.868475
_cell_length_c                    10.625931
_cell_angle_alpha                 89.847702
_cell_angle_beta                  86.904362
_cell_angle_gamma                 89.877338
_cell_volume                      2210.71049706

loop_
_atom_site_label
_atom_site_type_symbol
_atom_type_description
_atom_site_fract_x
_atom_site_fract_y
_atom_site_fract_z
_atom_type_partial_charge
C1    C     C_R   0.329274 0.500004 0.502076 0.644671
C2    C     C_R   0.965083 0.445940 0.278548 0.303851
C3    C     C_R   0.447239 0.793584 0.587571 0.375703
C4    C     C_R   0.550746 0.206227 0.410503 0.377154
C5    C     C_R   0.552690 0.793657 0.412313 0.369777
C6    C     C_R   0.449193 0.206200 0.589565 0.371392
C7    C     C_R   0.548260 0.896723 0.403684 0.011854
C8    C     C_R   0.454041 0.103375 0.597761 0.012527
C9    C     C_R   0.451689 0.896573 0.596277 0.012989
C10   C     C_R   0.545796 0.103513 0.402245 0.013726
C11   C     C_R   0.499966 0.948278 0.499995 -0.121137
C12   C     C_R   0.670799 0.499919 0.497950 0.642229
C13   C     C_R   0.499927 0.051608 0.500001 -0.120753
C14   C     C_R   0.590114 0.949667 0.302054 0.257874
C15   C     C_R   0.416245 0.051367 0.702066 0.263782
C16   C     C_R   0.409813 0.949283 0.697930 0.259719
C17   C     C_R   0.583569 0.051774 0.297898 0.265622
C18   C     C_R   0.500150 0.500143 0.259436 0.601080
C19   C     C_R   0.499554 0.499848 0.740602 0.602896
C20   C     C_3   0.504674 0.591454 0.040171 -0.104727
C21   C     C_3   0.494500 0.408481 0.959959 -0.094848
C22   C     C_3   0.575083 0.540626 0.951923 -0.093657
C23   C     C_R   0.953073 0.488488 0.502896 -0.098515
C24   C     C_3   0.424093 0.459311 0.048272 -0.092896
C25   C     C_3   0.428881 0.550285 0.963691 -0.086131
C26   C     C_3   0.570299 0.449650 0.036408 -0.077278
C27   C     C_3   0.499326 0.499518 0.877635 0.031872
C28   C     C_3   0.499912 0.500430 0.122476 0.024827
C29   C     C_R   0.817669 0.479378 0.385309 0.240146
C30   C     C_R   0.183305 0.499637 0.620898 0.241613
C31   C     C_R   0.767423 0.498986 0.496963 0.047914
C32   C     C_R   0.232721 0.499069 0.505323 0.051041
C33   C     C_R   0.807626 0.517329 0.609258 0.218109
C34   C     C_R   0.046968 0.488554 0.505713 -0.098576
C35   C     C_R   0.191801 0.493893 0.391336 0.216816
C36   C     C_R   0.900502 0.504724 0.615820 -0.004781
C37   C     C_R   0.099253 0.477712 0.391390 -0.007591
C38   C     C_R   0.911709 0.472271 0.387163 0.035421
C39   C     C_R   0.088717 0.499549 0.622297 0.037462
C40   C     C_R   0.941438 0.504371 0.732337 0.223606
C41   C     C_R   0.058606 0.446442 0.282046 0.220146
C42   C     C_R   0.034889 0.507227 0.735779 0.311443
Cl1   Cl    Cl    0.759683 0.476893 0.243946 -0.427981
Cl2   Cl    Cl    0.244399 0.499953 0.759575 -0.435257
Cl3   Cl    Cl    0.878246 0.481347 0.875447 -0.498542
Cl4   Cl    Cl    0.122885 0.388772 0.158288 -0.465537
Cl5   Cl    Cl    0.369523 0.727754 0.684097 -0.453314
Cl6   Cl    Cl    0.629752 0.270040 0.313857 -0.418463
Cl7   Cl    Cl    0.629981 0.727688 0.315167 -0.449452
Cl8   Cl    Cl    0.370476 0.270298 0.686631 -0.416104
Cu1   Cu    Cu3+1 0.500000 0.597420 0.500000 1.153283
Cu2   Cu    Cu3+1 0.500000 0.402580 0.500000 1.163325
H1    H     H_    0.371178 0.592026 0.931692 0.222391
H2    H     H_    0.965277 0.422563 0.097550 0.400856
H3    H     H_    0.684180 0.941837 0.169833 0.358411
H4    H     H_    0.401790 0.058365 0.885139 0.345989
H5    H     H_    0.315855 0.941219 0.830331 0.358384
H6    H     H_    0.597996 0.059370 0.114807 0.345209
H7    H     H_    0.627974 0.407780 0.068167 0.237466
H8    H     H_    0.508867 0.666526 0.075371 0.196614
H9    H     H_    0.490315 0.333402 0.924774 0.200311
H10   H     H_    0.636857 0.574227 0.910305 0.207142
H11   H     H_    0.362329 0.425906 0.090444 0.219091
H12   H     H_    0.787755 0.606605 0.746117 0.359901
H13   H     H_    0.208055 0.546063 0.223187 0.363762
H14   H     H_    0.033006 0.549356 0.911165 0.364481
N1    N     N_R   0.500000 0.743810 0.500000 -0.264296
N2    N     N_R   0.500000 0.256190 0.500000 -0.267685
O1    O     O_R   0.370260 0.582280 0.500030 -0.460670
O2    O     O_3   0.244019 0.508856 0.282071 -0.674153
O3    O     O_3   0.074130 0.515849 0.849786 -0.568135
O4    O     O_3   0.924936 0.412896 0.173086 -0.543154
O5    O     O_3   0.633818 0.901549 0.203376 -0.633410
O6    O     O_3   0.391848 0.100433 0.811632 -0.626981
O7    O     O_3   0.366255 0.900909 0.796690 -0.631993
O8    O     O_3   0.607831 0.101175 0.188276 -0.625126
O9    O     O_R   0.629740 0.417720 0.499970 -0.463641
O10   O     O_R   0.629740 0.582280 0.499970 -0.450641
O11   O     O_R   0.370260 0.417720 0.500030 -0.453992
O12   O     O_R   0.499980 0.582260 0.316850 -0.474013
O13   O     O_R   0.500020 0.417740 0.683150 -0.475592
O14   O     O_R   0.500020 0.582260 0.683150 -0.467632
O15   O     O_R   0.499980 0.417740 0.316850 -0.468758
O16   O     O_3   0.754509 0.553231 0.708307 -0.668470

loop_
_geom_bond_atom_site_label_1
_geom_bond_atom_site_label_2
_ccdc_geom_bond_type
C21   C26   S    
C8    C13   A    
C34   C37   A    
C5    N1    A    
C5    Cl7   S    
H6    O8    S    
C7    C11   A    
C35   C37   A    
C9    C16   A    
C25   H1    S    
C20   C25   S    
C2    C41   A    
C15   C16   A    
C16   O7    S    
C33   C36   A    
C3    Cl5   S    
Cu1   O12   S    
H12   O16   S    
C7    C14   A    
C35   O2    S    
C12   O10   A    
C29   C38   A    
C17   O8    S    
C41   Cl4   S    
C31   C33   A    
C20   H8    S    
Cu2   O11   S    
C19   C27   S    
C26   H7    S    
C21   H9    S    
Cu2   N2    S    
C40   C42   A    
C21   C27   S    
C29   Cl1   S    
C14   C17   A    
C30   Cl2   S    
C2    O4    S    
C39   C42   A    
C40   Cl3   S    
H4    O6    S    
C34   C39   A    
C14   O5    S    
C36   C40   A    
C18   C28   S    
C24   C25   S    
C4    N2    A    
C6    C8    A    
C20   C28   S    
C1    C32   S    
C1    O1    A    
Cu1   Cu2   S    
Cu2   O15   S    
C32   C35   A    
C3    C9    A    
C22   H10   S    
C2    C38   A    
C10   C17   A    
H14   O3    S    
C23   C34   A    
C12   O9    A    
C18   O15   A    
Cu1   N1    S    
C6    Cl8   S    
C9    C11   A    
Cu1   O14   S    
C20   C22   S    
C24   H11   S    
C22   C27   S    
C12   C31   S    
C1    O11   A    
C25   C27   S    
C4    C10   A    
Cu2   O9    S    
C19   O14   A    
C5    C7    A    
C4    Cl6   S    
C3    N1    A    
C24   C28   S    
C10   C13   A    
C8    C15   A    
C23   C38   A    
C26   C28   S    
H5    O7    S    
Cu1   O10   S    
C29   C31   A    
C30   C32   A    
C11   C13   A    
C6    N2    A    
C42   O3    S    
C30   C39   A    
C37   C41   A    
Cu2   O13   S    
C33   O16   S    
H3    O5    S    
C15   O6    S    
H2    O4    S    
C18   O12   A    
C23   C36   A    
C22   C26   S    
C21   C24   S    
Cu1   O1    S    
C19   O13   A    
H13   O2    S    
