data_mof_unit_37494.cif
_audit_creation_date              2012-12-10T20:50:10-0500
_audit_creation_method            fapswitch 2.2
_symmetry_space_group_name_H-M    P1
_symmetry_Int_Tables_number       1
_space_group_crystal_system       triclinic
_cell_length_a                    19.251055
_cell_length_b                    8.925015
_cell_length_c                    8.09549
_cell_angle_alpha                 90.000038
_cell_angle_beta                  90.000025
_cell_angle_gamma                 90.0
_cell_volume                      1390.93434263

loop_
_atom_site_label
_atom_site_type_symbol
_atom_type_description
_atom_site_fract_x
_atom_site_fract_y
_atom_site_fract_z
_atom_type_partial_charge
C1    C     C_R   0.500000 0.217964 0.500000 0.924625
C2    C     C_R   0.253550 0.435272 0.367754 0.541191
C3    C     C_R   0.181098 0.565202 0.634178 0.025678
C4    C     C_R   0.818901 0.565206 0.365815 0.025679
C5    C     C_R   0.818902 0.434801 0.634179 0.025678
C6    C     C_R   0.181099 0.434796 0.365815 0.025679
C7    C     C_R   0.144889 0.499999 0.499996 -0.144579
C8    C     C_R   0.855111 0.500003 0.499996 -0.144581
C9    C     C_R   0.289614 0.499999 0.499999 -0.374238
C10   C     C_R   0.710386 0.500002 0.499999 -0.374239
C11   C     C_R   0.930325 0.500002 0.499994 0.329164
C12   C     C_R   0.500000 0.782036 0.500000 0.924625
C13   C     C_R   0.069675 0.500000 0.499993 0.329165
C14   C     C_3   0.144359 0.632381 0.782975 -0.327894
C15   C     C_3   0.141880 0.803115 0.771924 -0.772261
C16   C     C_3   0.855639 0.632385 0.217017 -0.327894
C17   C     C_3   0.858118 0.803119 0.228068 -0.772260
C18   C     C_3   0.855641 0.367623 0.782977 -0.327892
C19   C     C_3   0.858120 0.196889 0.771927 -0.772259
C20   C     C_3   0.144361 0.367617 0.217017 -0.327894
C21   C     C_3   0.141881 0.196883 0.228068 -0.772260
C22   C     C_R   0.365176 0.499999 0.500000 0.984644
C23   C     C_R   0.634824 0.500000 0.500000 0.984644
C24   C     C_1   0.500000 0.065199 0.500000 -0.146202
C25   C     C_1   0.500000 0.934801 0.500000 -0.146202
C26   C     C_R   0.253549 0.564725 0.632243 0.541194
C27   C     C_R   0.746450 0.564729 0.367754 0.541194
C28   C     C_R   0.746451 0.435277 0.632244 0.541194
F1    F     F_    0.288913 0.629289 0.759145 -0.637157
F2    F     F_    0.711085 0.629293 0.240854 -0.637157
F3    F     F_    0.711087 0.370713 0.759146 -0.637157
F4    F     F_    0.288915 0.370707 0.240854 -0.637156
H1    H     H_    0.195226 0.850430 0.770911 0.289851
H2    H     H_    0.827961 0.599929 0.102069 0.231797
H3    H     H_    0.804775 0.149573 0.770917 0.289850
H4    H     H_    0.885625 0.161023 0.658078 0.258029
H5    H     H_    0.886238 0.151282 0.880637 0.232753
H6    H     H_    0.909227 0.411554 0.797197 0.188737
H7    H     H_    0.827965 0.400080 0.897925 0.231794
H8    H     H_    0.195227 0.149567 0.229102 0.289850
H9    H     H_    0.114368 0.161019 0.341906 0.258028
H10   H     H_    0.113772 0.151274 0.119347 0.232755
H11   H     H_    0.090775 0.411549 0.202792 0.188736
H12   H     H_    0.114374 0.838980 0.658076 0.258029
H13   H     H_    0.172039 0.400072 0.102069 0.231799
H14   H     H_    0.113763 0.848723 0.880634 0.232754
H15   H     H_    0.090773 0.588451 0.797196 0.188737
H16   H     H_    0.172035 0.599925 0.897924 0.231796
H17   H     H_    0.804773 0.850434 0.229086 0.289850
H18   H     H_    0.885626 0.838983 0.341914 0.258028
H19   H     H_    0.886233 0.848727 0.119356 0.232754
H20   H     H_    0.909225 0.588454 0.202793 0.188737
N1    N     N_1   0.500000 0.500000 0.073640 0.013439
N2    N     N_1   0.500000 0.500000 0.926360 0.013439
N3    N     N_R   0.034437 0.368791 0.500331 -0.179175
N4    N     N_R   0.965563 0.631212 0.500330 -0.179174
N5    N     N_R   0.965562 0.368792 0.499657 -0.179174
N6    N     N_R   0.034437 0.631211 0.499656 -0.179174
O1    O     O_R   0.500000 0.285350 0.636850 -0.616202
O2    O     O_R   0.500000 0.714650 0.363150 -0.616201
O3    O     O_R   0.500000 0.714650 0.636850 -0.616202
O4    O     O_R   0.500000 0.285350 0.363150 -0.616201
O5    O     O_R   0.398140 0.500000 0.636920 -0.571462
O6    O     O_R   0.601860 0.500000 0.363080 -0.571461
O7    O     O_R   0.601860 0.500000 0.636920 -0.571461
O8    O     O_R   0.398140 0.500000 0.363080 -0.571461
Zn1   Zn    Zn3+2 0.500000 0.500000 0.682780 1.085367
Zn2   Zn    Zn3+2 0.500000 0.500000 0.317220 1.085367

loop_
_geom_bond_atom_site_label_1
_geom_bond_atom_site_label_2
_ccdc_geom_bond_type
C17   H18   S    
C10   C27   A    
C5    C8    A    
O8    Zn2   S    
C18   H7    S    
C28   F3    S    
C4    C16   S    
C6    C7    A    
C13   N6    A    
C10   C23   S    
C5    C28   A    
C6    C20   S    
O3    Zn1   S    
C20   H13   S    
O4    Zn2   S    
C12   C25   S    
C4    C8    A    
O1    Zn1   S    
C1    O4    A    
C17   H19   S    
N3    N5    A    
C18   H6    S    
N2    Zn1   S    
C19   H3    S    
N1    N2    T    
C24   C25   T    
C27   F2    S    
C12   O3    A    
C21   H8    S    
C23   O7    A    
C2    C6    A    
C3    C14   S    
C26   F1    S    
C8    C11   S    
C21   H9    S    
O6    Zn2   S    
C23   O6    A    
N4    N6    A    
C9    C26   A    
C4    C27   A    
C3    C7    A    
C19   H4    S    
C1    O1    A    
C15   H12   S    
C2    C9    A    
O5    Zn1   S    
C9    C22   S    
O7    Zn1   S    
C10   C28   A    
C21   H10   S    
C12   O2    A    
C7    C13   S    
C20   H11   S    
C20   C21   S    
O2    Zn2   S    
C1    C24   S    
C2    F4    S    
C18   C19   S    
C17   H17   S    
N1    Zn2   S    
C14   C15   S    
C22   O8    A    
C14   H16   S    
C5    C18   S    
C19   H5    S    
C15   H14   S    
C16   H2    S    
C22   O5    A    
C11   N5    A    
C14   H15   S    
C15   H1    S    
C3    C26   A    
C11   N4    A    
C16   H20   S    
C16   C17   S    
C13   N3    A    
