data_mof_unit_64300.cif
_audit_creation_date              2012-12-10T18:21:46-0500
_audit_creation_method            fapswitch 2.2
_symmetry_space_group_name_H-M    P1
_symmetry_Int_Tables_number       1
_space_group_crystal_system       triclinic
_cell_length_a                    18.599497
_cell_length_b                    18.617257
_cell_length_c                    18.612949
_cell_angle_alpha                 109.499319
_cell_angle_beta                  109.870086
_cell_angle_gamma                 109.505969
_cell_volume                      4932.94358899

loop_
_atom_site_label
_atom_site_type_symbol
_atom_type_description
_atom_site_fract_x
_atom_site_fract_y
_atom_site_fract_z
_atom_type_partial_charge
C1    C     C_R   0.623475 0.621460 0.502218 0.823818
C2    C     C_3   0.186751 0.416161 0.188253 -0.166289
C3    C     C_3   0.215030 0.460572 0.287277 -0.153215
C4    C     C_3   0.311727 0.499809 0.310359 0.024022
C5    C     C_3   0.739890 0.652330 0.460989 -0.375933
C6    C     C_3   0.811337 0.725007 0.462253 -0.415373
C7    C     C_3   0.646608 0.724720 0.447246 -0.416646
C8    C     C_3   0.761046 0.767557 0.598261 -0.395855
C9    C     C_3   0.691488 0.689949 0.502288 0.183352
C10   C     C_3   0.810188 0.811827 0.501190 0.183072
C11   C     C_3   0.716377 0.795393 0.444783 -0.371512
C12   C     C_R   0.378868 0.500012 0.378392 0.862023
C13   C     C_3   0.830069 0.840625 0.597367 -0.403521
C14   C     C_3   0.647520 0.420729 0.697803 -0.421487
C15   C     C_3   0.717536 0.419769 0.770257 -0.357654
C16   C     C_3   0.762086 0.497162 0.665010 -0.400139
C17   C     C_3   0.739133 0.587243 0.781596 -0.373474
C18   C     C_3   0.691843 0.502290 0.690334 0.181117
C19   C     C_3   0.810979 0.498848 0.810131 0.170471
C20   C     C_3   0.831321 0.492840 0.734808 -0.390750
C21   C     C_3   0.811106 0.585996 0.851926 -0.427189
C22   C     C_3   0.279750 0.215543 0.428147 -0.359700
C23   C     C_R   0.378415 0.378343 0.499465 0.833049
C24   C     C_3   0.208019 0.145393 0.429317 -0.441438
C25   C     C_3   0.348298 0.318305 0.591503 -0.415477
C26   C     C_3   0.229373 0.323044 0.479560 -0.411451
C27   C     C_3   0.310374 0.309930 0.499307 0.175282
C28   C     C_3   0.189998 0.191072 0.501730 0.168981
C29   C     C_3   0.277653 0.247224 0.592654 -0.361615
C30   C     C_3   0.158213 0.252914 0.481033 -0.369105
C31   C     C_R   0.003009 0.621494 0.124216 0.824182
C32   C     C_R   0.122778 0.499891 0.122163 0.854800
C33   C     C_R   0.998111 0.378587 0.876973 0.898446
C34   C     C_R   0.623664 0.502315 0.621857 0.827437
C35   C     C_R   0.879302 0.498623 0.878294 0.860332
C36   C     C_R   0.001446 0.879952 0.378669 0.830152
C37   C     C_R   0.878347 0.879886 0.501042 0.827190
C38   C     C_R   0.999480 0.120954 0.621397 0.900346
C39   C     C_R   0.121625 0.123421 0.502173 0.872685
C40   C     C_3   0.960930 0.652234 0.239970 -0.374790
C41   C     C_3   0.962145 0.724907 0.311322 -0.416275
C42   C     C_3   0.098986 0.767377 0.261991 -0.392372
C43   C     C_3   0.948366 0.725156 0.147224 -0.420250
C44   C     C_3   0.002928 0.689994 0.192078 0.183663
C45   C     C_3   0.315756 0.583610 0.311320 -0.164311
C46   C     C_3   0.001692 0.811893 0.310596 0.182495
C47   C     C_3   0.098028 0.840455 0.330887 -0.403768
C48   C     C_3   0.945813 0.795834 0.216871 -0.371534
C49   C     C_3   0.063020 0.285200 0.853952 -0.483802
C50   C     C_3   0.062280 0.211528 0.784238 -0.351671
C51   C     C_3   0.902831 0.225633 0.745819 0.116891
C52   C     C_3   0.026200 0.345050 0.751854 -0.373322
C53   C     C_3   0.996782 0.310027 0.807933 0.066178
C54   C     C_3   0.999743 0.189474 0.689644 0.069253
C55   C     C_3   0.904481 0.155574 0.674187 -0.491660
C56   C     C_3   0.217737 0.544324 0.286985 -0.151934
C57   C     C_3   0.029057 0.274286 0.682551 0.088442
C58   C     C_3   0.190711 0.499969 0.189278 0.028057
C59   C     C_3   0.287513 0.539253 0.212413 -0.172141
C60   C     C_3   0.284635 0.455397 0.212536 -0.174455
H1    H     H_    0.188563 0.580648 0.315397 0.117730
H2    H     H_    0.799075 0.704313 0.393788 0.149491
H3    H     H_    0.595138 0.669600 0.378554 0.158665
H4    H     H_    0.699675 0.772986 0.374881 0.177723
H5    H     H_    0.728749 0.795767 0.630359 0.185187
H6    H     H_    0.794428 0.743575 0.638566 0.147922
H7    H     H_    0.897198 0.853918 0.640006 0.181282
H8    H     H_    0.828748 0.902782 0.626021 0.149433
H9    H     H_    0.612985 0.753551 0.476672 0.172923
H10   H     H_    0.714689 0.857689 0.470645 0.170570
H11   H     H_    0.614747 0.359007 0.633613 0.183951
H12   H     H_    0.370284 0.651927 0.363343 0.132448
H13   H     H_    0.595461 0.422268 0.713998 0.154382
H14   H     H_    0.700528 0.423681 0.822795 0.174762
H15   H     H_    0.716524 0.356297 0.741738 0.214553
H16   H     H_    0.730609 0.437570 0.599468 0.195190
H17   H     H_    0.830812 0.430083 0.703586 0.198014
H18   H     H_    0.769558 0.646875 0.776883 0.157738
H19   H     H_    0.690632 0.591741 0.802508 0.183144
H20   H     H_    0.798688 0.592484 0.907619 0.151330
H21   H     H_    0.876799 0.643653 0.879380 0.176418
H22   H     H_    0.795041 0.555975 0.660087 0.147831
H23   H     H_    0.315599 0.571358 0.180220 0.145457
H24   H     H_    0.898198 0.548032 0.761147 0.180519
H25   H     H_    0.336948 0.204379 0.441221 0.176177
H26   H     H_    0.252850 0.208222 0.361183 0.169844
H27   H     H_    0.146299 0.104893 0.363334 0.165277
H28   H     H_    0.230240 0.100079 0.442176 0.161201
H29   H     H_    0.407751 0.310709 0.607421 0.149831
H30   H     H_    0.302929 0.204551 0.607723 0.179127
H31   H     H_    0.248916 0.389764 0.529671 0.195066
H32   H     H_    0.201815 0.317965 0.413626 0.147972
H33   H     H_    0.096234 0.214437 0.415499 0.179565
H34   H     H_    0.313526 0.419077 0.183588 0.144658
H35   H     H_    0.369384 0.384685 0.643636 0.192720
H36   H     H_    0.266206 0.279048 0.646466 0.215634
H37   H     H_    0.998107 0.624605 0.270947 0.159341
H38   H     H_    0.891145 0.597790 0.191785 0.182461
H39   H     H_    0.893551 0.704375 0.298762 0.149610
H40   H     H_    0.002100 0.734173 0.377215 0.176824
H41   H     H_    0.138939 0.743127 0.295379 0.152320
H42   H     H_    0.140317 0.853484 0.397958 0.183272
H43   H     H_    0.978251 0.754080 0.113932 0.169972
H44   H     H_    0.132327 0.347822 0.136166 0.131867
H45   H     H_    0.879624 0.670210 0.095527 0.153885
H46   H     H_    0.875793 0.773588 0.199850 0.177361
H47   H     H_    0.972112 0.858250 0.215468 0.163653
H48   H     H_    0.131566 0.795681 0.230058 0.184643
H49   H     H_    0.127118 0.902718 0.329848 0.148791
H50   H     H_    0.045327 0.262614 0.897040 0.164421
H51   H     H_    0.131055 0.343920 0.897071 0.200176
H52   H     H_    0.131002 0.232591 0.797312 0.224690
H53   H     H_    0.039225 0.151676 0.790468 0.162925
H54   H     H_    0.884144 0.197612 0.785250 0.154687
H55   H     H_    0.187411 0.428420 0.319699 0.119774
H56   H     H_    0.881052 0.093255 0.676240 0.145207
H57   H     H_    0.979907 0.363882 0.718260 0.177466
H58   H     H_    0.092566 0.405884 0.795483 0.223748
H59   H     H_    0.982913 0.258768 0.615612 0.152267
H60   H     H_    0.858163 0.139813 0.607265 0.225565
H61   H     H_    0.691980 0.597688 0.391291 0.183223
H62   H     H_    0.770910 0.625015 0.498566 0.158007
H63   H     H_    0.877313 0.734564 0.502581 0.176906
O1    O     O_R   0.592740 0.540340 0.447840 -0.631892
O2    O     O_R   0.053270 0.644880 0.093500 -0.630749
O3    O     O_R   0.041720 0.447740 0.093910 -0.627822
O4    O     O_R   0.146290 0.552270 0.093890 -0.626481
O5    O     O_R   0.949110 0.355140 0.908700 -0.613808
O6    O     O_R   0.053680 0.459670 0.908680 -0.632480
O7    O     O_R   0.856090 0.447760 0.908300 -0.616584
O8    O     O_R   0.960660 0.552280 0.908280 -0.634096
O9    O     O_R   0.052690 0.907450 0.460090 -0.630383
O10   O     O_R   0.947900 0.907390 0.355230 -0.632289
O11   O     O_R   0.959780 0.907430 0.552420 -0.632984
O12   O     O_R   0.592480 0.644870 0.552180 -0.630933
O13   O     O_R   0.854990 0.907370 0.447560 -0.631110
O14   O     O_R   0.052100 0.092610 0.644770 -0.619156
O15   O     O_R   0.947310 0.092550 0.539920 -0.630282
O16   O     O_R   0.145010 0.092640 0.552440 -0.624113
O17   O     O_R   0.040220 0.092570 0.447580 -0.629475
O18   O     O_R   0.407320 0.447740 0.355030 -0.626949
O19   O     O_R   0.407060 0.552270 0.459360 -0.621686
O20   O     O_R   0.407520 0.355130 0.447820 -0.630844
O21   O     O_R   0.407260 0.459660 0.552160 -0.625255
O22   O     O_R   0.592940 0.447730 0.540640 -0.628507
O23   O     O_R   0.592680 0.552260 0.644970 -0.631566
O24   O     O_R   0.948700 0.540360 0.093520 -0.633569
Zn1   Zn    Zn3+2 0.500170 0.430200 0.430330 0.924982
Zn2   Zn    Zn3+2 0.499830 0.569800 0.569670 0.929677
Zn3   Zn    Zn3+2 0.931370 0.430220 0.001110 0.947250
Zn4   Zn    Zn3+2 0.071010 0.569800 0.001080 0.932250
Zn5   Zn    Zn3+2 0.069970 0.000040 0.570020 0.931385
Zn6   Zn    Zn3+2 0.930030 0.999960 0.429990 0.932108
H64   H     H_    0.143360 0.285647 0.531361 0.211098
Br1   Br    Br    0.147184 0.321111 0.697217 -0.654374
Br2   Br    Br    0.810504 0.250126 0.691544 -0.633786

loop_
_geom_bond_atom_site_label_1
_geom_bond_atom_site_label_2
_ccdc_geom_bond_type
C15   H15   S    
C8    H6    S    
C8    C13   S    
O3    Zn3   S    
C14   H11   S    
C14   C18   S    
O8    Zn4   S    
C19   C20   S    
C32   C58   S    
C36   O10   A    
C11   H10   S    
C15   C19   S    
O1    Zn1   S    
C26   C27   S    
C50   C54   S    
C20   H17   S    
C10   C37   S    
O10   Zn6   S    
C32   O4    A    
C28   C29   S    
C19   C21   S    
C59   H23   S    
O6    Zn4   S    
C30   H33   S    
C36   O9    A    
C40   H38   S    
C5    C6    S    
C34   O22   A    
C2    C60   S    
C48   H47   S    
C55   H56   S    
C26   H32   S    
C37   O11   A    
C5    H61   S    
O16   Zn5   S    
C17   H19   S    
C12   O18   A    
C43   H45   S    
C22   H25   S    
C32   O3    A    
O2    Zn4   S    
O18   Zn1   S    
O4    Zn4   S    
C39   O17   A    
C48   H46   S    
C45   C56   S    
C56   C58   S    
C8    C9    S    
O7    Zn3   S    
C41   C46   S    
C41   H39   S    
O14   Zn5   S    
C36   C46   S    
C23   C27   S    
C4    C12   S    
C43   C48   S    
O17   Zn6   S    
C49   H51   S    
C31   O24   A    
C52   H57   S    
C59   C60   S    
C47   H42   S    
C45   H12   S    
C25   C29   S    
C23   O20   A    
C42   C44   S    
C6    H63   S    
C16   H22   S    
C29   H30   S    
C39   O16   A    
C55   H60   S    
C18   C34   S    
C33   C53   S    
O20   Zn1   S    
C46   C48   S    
C51   Br2   S    
C41   H40   S    
C51   H54   S    
C31   C44   S    
C4    C45   S    
C14   H13   S    
C24   C28   S    
O24   Zn3   S    
C1    C9    S    
C11   H4    S    
C10   C11   S    
C40   H37   S    
C28   C39   S    
C26   H31   S    
C47   H49   S    
C5    H62   S    
C33   O5    A    
C17   C21   S    
C51   C53   S    
C7    C11   S    
C43   C44   S    
C6    C10   S    
C5    C9    S    
O21   Zn2   S    
O23   Zn2   S    
C57   Br1   S    
C3    C56   S    
C8    H5    S    
C38   C54   S    
C2    H44   S    
C16   C20   S    
O11   Zn5   S    
C4    C60   S    
C50   H52   S    
C17   C18   S    
C38   O15   A    
C37   O13   A    
C46   C47   S    
C24   H28   S    
C35   O7    A    
C7    H3    S    
O15   Zn6   S    
O5    Zn3   S    
C40   C41   S    
C21   H21   S    
C26   C30   S    
C30   H64   S    
C22   C27   S    
C20   H24   S    
O9    Zn5   S    
C22   C24   S    
C23   O21   A    
C31   O2    A    
C3    C4    S    
C42   H41   S    
C35   O8    A    
O22   Zn1   S    
C52   C53   S    
O19   Zn2   S    
C13   H7    S    
C33   O6    A    
C7    C9    S    
C54   C55   S    
C45   C59   S    
C16   H16   S    
C14   C15   S    
C10   C13   S    
C7    H9    S    
C29   H36   S    
C2    C58   S    
C25   H35   S    
C25   C27   S    
C25   H29   S    
C57   H59   S    
C50   H53   S    
C6    H2    S    
C28   C30   S    
C2    C3    S    
C58   C59   S    
C1    O1    A    
C19   C35   S    
O13   Zn6   S    
C34   O23   A    
C49   C53   S    
C21   H20   S    
C17   H18   S    
C38   O14   A    
C12   O19   A    
C51   C55   S    
C42   C47   S    
C22   H26   S    
C24   H27   S    
C43   H43   S    
C52   C57   S    
C40   C44   S    
C15   H14   S    
C16   C18   S    
C49   C50   S    
C56   H1    S    
O12   Zn2   S    
C3    H55   S    
C1    O12   A    
C42   H48   S    
C13   H8    S    
C52   H58   S    
C49   H50   S    
C54   C57   S    
C60   H34   S    
