data_mof_unit_13869.cif
_audit_creation_date              2012-12-11T14:01:41-0500
_audit_creation_method            fapswitch 2.2
_symmetry_space_group_name_H-M    P1
_symmetry_Int_Tables_number       1
_space_group_crystal_system       triclinic
_cell_length_a                    18.91701
_cell_length_b                    10.98444
_cell_length_c                    18.756553
_cell_angle_alpha                 89.86
_cell_angle_beta                  89.981845
_cell_angle_gamma                 90.192311
_cell_volume                      3897.44214589

loop_
_atom_site_label
_atom_site_type_symbol
_atom_type_description
_atom_site_fract_x
_atom_site_fract_y
_atom_site_fract_z
_atom_type_partial_charge
C1    C     C_R   0.272232 0.041729 0.853796 0.568121
C2    C     C_R   0.997932 0.666832 0.965259 -0.124508
C3    C     C_R   0.482462 0.162787 0.037652 -0.127353
C4    C     C_R   0.498014 0.166831 0.965228 -0.124807
C5    C     C_2   0.264524 0.637642 0.932171 -0.118424
C6    C     C_2   0.750634 0.579556 0.079764 -0.134421
C7    C     C_2   0.764532 0.137681 0.932176 -0.118518
C8    C     C_2   0.250611 0.079620 0.079738 -0.134938
C9    C     C_2   0.256644 0.607640 0.085322 -0.040935
C10   C     C_2   0.748932 0.584433 0.923450 -0.041387
C11   C     C_2   0.756647 0.107659 0.085327 -0.041515
C12   C     C_R   0.728865 0.045682 0.148164 0.577416
C13   C     C_2   0.248911 0.084506 0.923424 -0.040817
C14   C     C_2   0.311305 0.565731 0.046611 0.209013
C15   C     C_2   0.702080 0.520920 0.963389 0.197508
C16   C     C_2   0.811312 0.065765 0.046617 0.209464
C17   C     C_2   0.202035 0.021044 0.963359 0.198902
C18   C     C_2   0.320667 0.610367 0.972832 -0.176318
C19   C     C_2   0.694669 0.549541 0.039421 -0.167653
C20   C     C_2   0.820674 0.110409 0.972838 -0.176247
C21   C     C_2   0.194636 0.049664 0.039393 -0.168743
C22   C     C_2   0.513161 0.839990 0.584784 -0.104996
C23   C     C_R   0.772238 0.541710 0.853803 0.579217
C24   C     C_2   0.514481 0.828709 0.428787 -0.103593
C25   C     C_2   0.012919 0.339500 0.584678 -0.109422
C26   C     C_2   0.013796 0.328901 0.428598 -0.103571
C27   C     C_2   0.547606 0.749695 0.472449 -0.151835
C28   C     C_2   0.533118 0.742439 0.548167 -0.159577
C29   C     C_2   0.044820 0.247146 0.472073 -0.152826
C30   C     C_2   0.031587 0.241325 0.547956 -0.158035
C31   C     C_2   0.246051 0.565328 0.583429 -0.104330
C32   C     C_2   0.757432 0.557656 0.413645 -0.111333
C33   C     C_2   0.746096 0.066186 0.583199 -0.101442
C34   C     C_R   0.228864 0.545678 0.148163 0.580983
C35   C     C_2   0.228554 0.161017 0.436596 -0.107824
C36   C     C_2   0.237915 0.568560 0.428123 -0.102608
C37   C     C_2   0.778133 0.520705 0.565706 -0.091466
C38   C     C_2   0.738119 0.069166 0.427935 -0.090679
C39   C     C_2   0.241155 0.113356 0.588910 -0.104662
C40   C     C_R   0.472290 0.822628 0.852596 0.532327
C41   C     C_R   0.528896 0.821850 0.146464 0.543153
C42   C     C_R   0.972289 0.322630 0.852598 0.533056
C43   C     C_R   0.028891 0.321848 0.146468 0.542868
C44   C     C_2   0.181863 0.557949 0.472071 -0.152503
C45   C     C_R   0.481304 0.051476 0.073510 -0.087293
C46   C     C_2   0.831802 0.527501 0.519435 -0.167080
C47   C     C_2   0.681959 0.059924 0.471829 -0.147982
C48   C     C_2   0.278245 0.199923 0.554935 -0.150900
C49   C     C_2   0.186287 0.583333 0.547640 -0.159405
C50   C     C_2   0.820592 0.566950 0.445736 -0.153904
C51   C     C_2   0.686470 0.085170 0.547349 -0.165031
C52   C     C_2   0.262670 0.235665 0.481362 -0.159549
C53   C     C_R   0.273085 0.680667 0.859570 0.579285
C54   C     C_R   0.739213 0.635797 0.148763 0.556356
C55   C     C_R   0.773090 0.180684 0.859569 0.580689
C56   C     C_R   0.508002 0.059047 0.927469 -0.073715
C57   C     C_R   0.239207 0.135814 0.148757 0.567494
C58   C     C_R   0.270818 0.049415 0.649775 0.555712
C59   C     C_R   0.726277 0.042453 0.353711 0.547432
C60   C     C_R   0.791648 0.497205 0.640097 0.570386
C61   C     C_R   0.226207 0.542270 0.353801 0.541406
C62   C     C_R   0.472527 0.824759 0.649457 0.559010
C63   C     C_R   0.532182 0.823078 0.353973 0.551115
C64   C     C_R   0.972569 0.324730 0.649513 0.546365
C65   C     C_R   0.032030 0.323107 0.353899 0.540807
C66   C     C_R   0.259786 0.633881 0.647533 0.562906
C67   C     C_R   0.981244 0.551445 0.073533 -0.087664
C68   C     C_R   0.740563 0.633206 0.352382 0.548207
C69   C     C_R   0.759818 0.134073 0.647474 0.555452
C70   C     C_R   0.224515 0.190546 0.361637 0.561299
C71   C     C_R   0.503350 0.828910 0.073008 0.005087
C72   C     C_R   0.503087 0.832807 0.923865 -0.000074
C73   C     C_R   0.003337 0.328900 0.073015 0.004278
C74   C     C_R   0.003077 0.332816 0.923870 -0.001381
C75   C     C_R   0.495543 0.941723 0.037018 0.020131
C76   C     C_R   0.502447 0.944654 0.961895 0.025490
C77   C     C_R   0.995507 0.441710 0.037031 0.020295
C78   C     C_R   0.007946 0.559063 0.927492 -0.074098
C79   C     C_R   0.002412 0.444658 0.961909 0.025250
C80   C     C_R   0.510712 0.723239 0.960804 -0.163194
C81   C     C_R   0.508619 0.720920 0.033675 -0.150841
C82   C     C_R   0.010717 0.223247 0.960805 -0.163786
C83   C     C_R   0.008621 0.220918 0.033677 -0.150951
C84   C     C_R   0.982377 0.662763 0.037682 -0.127131
Cr1   Cr    Cr6+3 0.230530 0.836340 0.748870 1.055820
Cr2   Cr    Cr6+3 0.614360 0.677860 0.250770 1.024781
Cr3   Cr    Cr6+3 0.885640 0.177860 0.749230 1.020629
Cr4   Cr    Cr6+3 0.114360 0.177860 0.250770 1.024002
Cr5   Cr    Cr6+3 0.769470 0.836340 0.251130 1.063576
Cr6   Cr    Cr6+3 0.730530 0.336340 0.748870 1.053076
Cr7   Cr    Cr6+3 0.269470 0.336340 0.251130 1.058422
Cr8   Cr    Cr6+3 0.387420 0.989430 0.750820 1.013635
Cr9   Cr    Cr6+3 0.612580 0.989430 0.249180 1.020482
Cr10  Cr    Cr6+3 0.887420 0.489430 0.750820 1.008900
Cr11  Cr    Cr6+3 0.112580 0.489430 0.249180 1.011983
Cr12  Cr    Cr6+3 0.385640 0.677860 0.749230 1.023942
H1    H     H_    0.513497 0.636637 0.933368 0.151709
H2    H     H_    0.723623 0.534434 0.549705 0.106149
H3    H     H_    0.791367 0.086990 0.446851 0.094689
H4    H     H_    0.190900 0.080852 0.568422 0.097834
H5    H     H_    0.289193 0.513387 0.560432 0.099852
H6    H     H_    0.715299 0.501996 0.435851 0.099493
H7    H     H_    0.789134 0.014029 0.560189 0.113389
H8    H     H_    0.205185 0.075668 0.453964 0.104793
H9    H     H_    0.467789 0.052190 0.129522 0.134379
H10   H     H_    0.521734 0.066526 0.871668 0.138346
H11   H     H_    0.967730 0.552134 0.129546 0.132288
H12   H     H_    0.514233 0.632800 0.059087 0.148046
H13   H     H_    0.021682 0.566564 0.871694 0.138520
H14   H     H_    0.582705 0.680356 0.451307 0.156946
H15   H     H_    0.532765 0.652253 0.572124 0.156194
H16   H     H_    0.077377 0.174524 0.450771 0.150578
H17   H     H_    0.030905 0.151272 0.572085 0.154518
H18   H     H_    0.129324 0.538720 0.451351 0.156371
H19   H     H_    0.885895 0.517082 0.537946 0.130122
H20   H     H_    0.629298 0.041588 0.451144 0.157828
H21   H     H_    0.326000 0.237568 0.578449 0.152349
H22   H     H_    0.972266 0.746251 0.066434 0.127830
H23   H     H_    0.013517 0.136651 0.933365 0.151455
H24   H     H_    0.001360 0.753675 0.938038 0.120279
H25   H     H_    0.472370 0.246288 0.066397 0.127934
H26   H     H_    0.501458 0.253666 0.938000 0.119924
H27   H     H_    0.391246 0.457112 0.036980 0.309150
H28   H     H_    0.631483 0.392873 0.971777 0.309737
H29   H     H_    0.891260 0.957161 0.036987 0.309274
H30   H     H_    0.131407 0.893037 0.971746 0.309808
H31   H     H_    0.373547 0.613223 0.950396 0.142029
H32   H     H_    0.641620 0.548009 0.061618 0.142600
H33   H     H_    0.873554 0.113260 0.950401 0.142060
H34   H     H_    0.014246 0.132797 0.059084 0.148057
H35   H     H_    0.141588 0.048156 0.061594 0.142209
H36   H     H_    0.225577 0.683871 0.065857 0.060202
H37   H     H_    0.778063 0.660195 0.946495 0.070814
H38   H     H_    0.725577 0.183889 0.065865 0.059610
H39   H     H_    0.278058 0.160252 0.946468 0.070498
H40   H     H_    0.210985 0.630152 0.952780 0.116516
H41   H     H_    0.803900 0.578606 0.058017 0.107384
H42   H     H_    0.710993 0.130195 0.952786 0.116762
H43   H     H_    0.303875 0.078650 0.057987 0.107422
H44   H     H_    0.479458 0.899394 0.448127 0.095162
H45   H     H_    0.141335 0.628401 0.572025 0.152727
H46   H     H_    0.517664 0.930844 0.562083 0.101675
H47   H     H_    0.981047 0.402619 0.448102 0.084470
H48   H     H_    0.017789 0.430243 0.561942 0.093591
H49   H     H_    0.863925 0.615630 0.420339 0.154439
H50   H     H_    0.641631 0.130595 0.571722 0.153357
H51   H     H_    0.287256 0.318454 0.461264 0.141682
H52   H     H_    0.291071 0.587093 0.447063 0.094853
O1    O     O_R   0.215090 0.709860 0.828130 -0.489432
O2    O     O_R   0.543740 0.718170 0.330000 -0.509102
O3    O     O_R   0.956260 0.218170 0.670000 -0.508041
O4    O     O_R   0.043740 0.218170 0.330000 -0.515255
O5    O     O_R   0.320940 0.626760 0.674370 -0.495575
O6    O     O_R   0.679060 0.626760 0.325630 -0.507203
O7    O     O_R   0.820940 0.126760 0.674370 -0.494698
O8    O     O_R   0.179060 0.126760 0.325630 -0.502762
O9    O     O_3   0.334530 0.834540 0.749640 -0.269736
O10   O     O_3   0.665470 0.834540 0.250360 -0.256588
O11   O     O_3   0.834530 0.334540 0.749640 -0.292598
O12   O     O_R   0.784910 0.709860 0.171870 -0.494733
O13   O     O_3   0.165470 0.334540 0.250360 -0.278003
O14   O     O_R   0.236990 0.958390 0.823710 -0.442331
O15   O     O_R   0.763010 0.958390 0.176290 -0.429079
O16   O     O_R   0.736990 0.458390 0.823710 -0.435999
O17   O     O_R   0.263010 0.458390 0.176290 -0.427693
O18   O     O_R   0.332380 0.074750 0.830850 -0.529718
O19   O     O_R   0.667620 0.074750 0.169150 -0.530442
O20   O     O_R   0.832380 0.574750 0.830850 -0.523739
O21   O     O_R   0.167620 0.574750 0.169150 -0.527686
O22   O     O_R   0.445800 0.917770 0.825070 -0.512796
O23   O     O_R   0.715090 0.209860 0.828130 -0.488009
O24   O     O_R   0.554200 0.917770 0.174930 -0.505574
O25   O     O_R   0.945800 0.417770 0.825070 -0.511450
O26   O     O_R   0.054200 0.417770 0.174930 -0.504131
O27   O     O_R   0.456410 0.716580 0.829970 -0.527102
O28   O     O_R   0.543590 0.716580 0.170030 -0.516469
O29   O     O_R   0.956410 0.216580 0.829970 -0.525919
O30   O     O_R   0.043590 0.216580 0.170030 -0.515953
O31   O     O_R   0.321080 0.625290 0.822650 -0.499439
O32   O     O_R   0.678920 0.625290 0.177350 -0.501894
O33   O     O_R   0.821080 0.125290 0.822650 -0.495132
O34   O     O_R   0.284910 0.209860 0.171870 -0.489196
O35   O     O_R   0.178920 0.125290 0.177350 -0.495735
O36   O     O_R   0.214930 0.711450 0.668160 -0.512996
O37   O     O_R   0.785070 0.711450 0.331840 -0.514388
O38   O     O_R   0.714930 0.211450 0.668160 -0.522034
O39   O     O_R   0.285070 0.211450 0.331840 -0.503162
O40   O     O_R   0.236850 0.959870 0.675420 -0.500601
O41   O     O_R   0.763150 0.959870 0.324580 -0.496204
O42   O     O_R   0.736850 0.459870 0.675420 -0.501877
O43   O     O_R   0.263150 0.459870 0.324580 -0.520336
O44   O     O_R   0.332230 0.076350 0.670880 -0.513345
O45   O     O_R   0.445660 0.919250 0.676780 -0.498739
O46   O     O_R   0.667770 0.076350 0.329120 -0.517716
O47   O     O_R   0.832230 0.576350 0.670880 -0.500368
O48   O     O_R   0.167770 0.576350 0.329120 -0.511227
O49   O     O_3   0.355763 0.477569 0.073961 -0.672788
O50   O     O_3   0.660992 0.429794 0.933658 -0.677281
O51   O     O_3   0.855773 0.977606 0.073966 -0.672809
O52   O     O_3   0.160918 0.929957 0.933624 -0.677108
O53   O     O_R   0.554340 0.919250 0.323220 -0.501906
O54   O     O_R   0.945660 0.419250 0.676780 -0.521729
O55   O     O_R   0.054340 0.419250 0.323220 -0.507277
O56   O     O_R   0.456260 0.718170 0.670000 -0.509261

loop_
_geom_bond_atom_site_label_1
_geom_bond_atom_site_label_2
_ccdc_geom_bond_type
C44   C49   S    
C43   C73   S    
C31   C66   S    
C43   O30   A    
Cr10  O11   S    
C56   C76   A    
Cr12  O27   S    
C80   H1    S    
C5    H40   S    
Cr4   O4    S    
C14   C18   S    
C29   H16   S    
C2    C84   A    
Cr9   O46   S    
C67   C77   A    
C10   H37   S    
C7    C55   S    
C20   H33   S    
C72   C76   A    
C16   O51   S    
C12   O19   A    
C40   O22   A    
Cr5   O10   S    
Cr9   O24   S    
C32   C68   S    
C24   H44   S    
Cr9   O19   S    
C15   C19   S    
C6    C19   D    
Cr11  O48   S    
C46   H19   S    
C8    H43   S    
C70   O8    A    
C31   H5    S    
C5    C53   S    
Cr11  O26   S    
C6    C54   S    
C68   O6    A    
C10   C15   D    
Cr2   O2    S    
C18   H31   S    
C43   O26   A    
C22   C62   S    
C42   O29   A    
Cr11  O55   S    
Cr4   O13   S    
H28   O50   S    
C19   H32   S    
C3    C4    A    
C17   O52   S    
Cr6   O11   S    
C21   H35   S    
C64   O54   A    
C36   H52   S    
C27   H14   S    
Cr8   O22   S    
C49   H45   S    
Cr6   O23   S    
C24   C27   D    
Cr10  O54   S    
C34   O17   A    
Cr9   O53   S    
C33   C69   S    
C41   C71   S    
Cr1   O40   S    
Cr12  O9    S    
C81   H12   S    
C44   H18   S    
C67   C84   A    
C59   O46   A    
Cr3   O3    S    
C4    C56   A    
C53   O1    A    
Cr1   O14   S    
C13   H39   S    
Cr1   O9    S    
C82   H23   S    
C31   C49   D    
C53   O31   A    
C55   O23   A    
C37   H2    S    
C14   O49   S    
C45   H9    S    
Cr12  O56   S    
C7    C20   D    
C77   C79   A    
C28   H15   S    
C47   H20   S    
C41   O24   A    
C42   C74   S    
C64   O3    A    
C58   O40   A    
Cr10  O47   S    
C35   C70   S    
C83   H34   S    
C35   H8    S    
C11   H38   S    
Cr10  O20   S    
C15   O50   S    
C2    H24   S    
C78   C79   A    
C38   H3    S    
Cr4   O35   S    
C47   C51   S    
C5    C18   D    
Cr6   O38   S    
C51   H50   S    
C39   C58   S    
Cr7   O43   S    
C3    C45   A    
C17   C21   S    
C33   C51   D    
C23   O20   A    
Cr6   O16   S    
Cr8   O9    S    
C25   C64   S    
C75   C76   A    
C63   O2    A    
C29   C30   S    
C2    C78   A    
Cr8   O18   S    
C8    C57   S    
Cr3   O29   S    
Cr11  O21   S    
C11   C16   D    
Cr12  O5    S    
C65   O55   A    
C16   C20   S    
Cr3   O11   S    
C56   H10   S    
C22   H46   S    
Cr2   O32   S    
C8    C21   D    
C55   O33   A    
C9    C14   D    
C57   O34   A    
C69   O7    A    
Cr2   O10   S    
C61   O48   A    
C62   O56   A    
C38   C47   D    
C34   O21   A    
C70   O39   A    
C26   C29   D    
C50   H49   S    
C84   H22   S    
C41   O28   A    
C68   O37   A    
Cr8   O45   S    
C24   C63   S    
C74   C79   A    
C58   O44   A    
C9    C34   S    
C32   H6    S    
C36   C44   D    
C25   H48   S    
C1    C13   S    
C26   H47   S    
Cr4   O8    S    
C57   O35   A    
Cr5   O12   S    
C23   O16   A    
Cr6   O42   S    
C9    H36   S    
H30   O52   S    
C25   C30   D    
C66   O36   A    
Cr5   O41   S    
C63   O53   A    
C33   H7    S    
C26   C65   S    
Cr5   O37   S    
H27   O49   S    
C80   C81   A    
C39   C48   D    
C42   O25   A    
Cr12  O31   S    
Cr3   O33   S    
C40   O27   A    
C11   C12   S    
Cr4   O30   S    
C48   H21   S    
Cr3   O7    S    
C10   C23   S    
Cr1   O36   S    
C66   O5    A    
C46   C50   S    
C13   C17   D    
C45   C75   A    
C6    H41   S    
Cr11  O13   S    
Cr2   O6    S    
C72   C80   A    
C12   O15   A    
C71   C75   A    
C35   C52   D    
C67   H11   S    
C39   H4    S    
C1    O18   A    
C65   O4    A    
C4    H26   S    
C54   O32   A    
C32   C50   D    
C78   H13   S    
Cr2   O28   S    
C7    H42   S    
C36   C61   S    
Cr9   O10   S    
Cr1   O1    S    
C37   C60   S    
C59   O41   A    
C1    O14   A    
Cr10  O25   S    
C54   O12   A    
C38   C59   S    
Cr8   O44   S    
C48   C52   S    
C40   C72   S    
H29   O51   S    
Cr7   O17   S    
C60   O42   A    
C82   C83   A    
Cr7   O34   S    
C27   C28   S    
C61   O43   A    
Cr5   O15   S    
C73   C77   A    
Cr7   O13   S    
C22   C28   D    
C62   O45   A    
C37   C46   D    
Cr7   O39   S    
C69   O38   A    
C73   C83   A    
C74   C82   A    
C3    H25   S    
C60   O47   A    
C52   H51   S    
C71   C81   A    
C30   H17   S    
