data_mof_unit_15714.cif
_audit_creation_date              2012-12-10T18:47:43-0500
_audit_creation_method            fapswitch 2.2
_symmetry_space_group_name_H-M    P1
_symmetry_Int_Tables_number       1
_space_group_crystal_system       triclinic
_cell_length_a                    9.994558
_cell_length_b                    10.724135
_cell_length_c                    15.375964
_cell_angle_alpha                 89.079837
_cell_angle_beta                  69.626821
_cell_angle_gamma                 88.239591
_cell_volume                      1544.19414378

loop_
_atom_site_label
_atom_site_type_symbol
_atom_type_description
_atom_site_fract_x
_atom_site_fract_y
_atom_site_fract_z
_atom_type_partial_charge
C1    C     C_R   0.498844 0.739673 0.498340 0.907135
C2    C     C_R   0.501505 0.260387 0.501122 0.890304
C3    C     C_R   0.325846 0.367289 0.104610 0.510259
C4    C     C_R   0.649453 0.330716 0.911255 0.514791
C5    C     C_R   0.231022 0.351050 0.056883 0.441710
C6    C     C_R   0.744460 0.312418 0.959439 0.416737
C7    C     C_R   0.588068 0.929519 0.535486 -0.231603
C8    C     C_R   0.413902 0.070813 0.462460 -0.242653
C9    C     C_R   0.595004 0.056869 0.535814 0.178263
C10   C     C_R   0.407605 0.943441 0.461586 0.193677
C11   C     C_R   0.505423 0.127758 0.499856 -0.111285
C12   C     C_R   0.495957 0.872457 0.498544 -0.116680
C13   C     C_R   0.961935 0.417851 0.446510 0.264334
C14   C     C_R   0.038260 0.581394 0.554105 0.255033
C15   C     C_R   0.104189 0.418969 0.446372 -0.074296
C16   C     C_R   0.897104 0.582966 0.551917 -0.089063
C17   C     C_R   0.411375 0.498157 0.676078 0.889598
C18   C     C_R   0.588282 0.500192 0.324120 0.881272
C19   C     C_R   0.360092 0.473739 0.776868 -0.162912
C20   C     C_R   0.638008 0.475109 0.224224 -0.177728
C21   C     C_R   0.173964 0.398692 0.915278 -0.116520
C22   C     C_R   0.804326 0.360148 0.095890 -0.146322
C23   C     C_R   0.218918 0.436958 0.822581 -0.187176
C24   C     C_R   0.770973 0.415514 0.182125 -0.170192
C25   C     C_R   0.455730 0.470841 0.825946 0.227948
C26   C     C_R   0.541549 0.484093 0.175928 0.223695
C27   C     C_R   0.415259 0.413708 0.913647 0.020518
C28   C     C_R   0.571102 0.416199 0.093716 0.026378
C29   C     C_R   0.271211 0.387365 0.962314 -0.108587
C30   C     C_R   0.708321 0.363468 0.049109 -0.109099
C31   C     C_R   0.514369 0.388063 0.957233 -0.197781
C32   C     C_R   0.468037 0.398910 0.053387 -0.200940
H1    H     H_    0.847621 0.408100 0.216835 0.235225
H2    H     H_    0.142412 0.438719 0.787046 0.212443
H3    H     H_    0.063741 0.378734 0.949052 0.209735
H4    H     H_    0.900942 0.307760 0.067344 0.226364
H5    H     H_    0.655065 0.874865 0.564941 0.191745
H6    H     H_    0.347250 0.125629 0.432814 0.177254
H7    H     H_    0.183730 0.353889 0.403473 0.177084
H8    H     H_    0.819225 0.650804 0.592468 0.177661
N1    N     N_R   0.142780 0.500030 0.500020 -0.119115
N2    N     N_R   0.857220 0.499970 0.499980 -0.116919
O1    O     O_R   0.385370 0.683250 0.500010 -0.566410
O2    O     O_R   0.614630 0.316750 0.499990 -0.570878
O3    O     O_R   0.614700 0.683220 0.500000 -0.627809
O4    O     O_R   0.385300 0.316780 0.500000 -0.631732
O5    O     O_R   0.319830 0.500020 0.632250 -0.598452
O6    O     O_R   0.680170 0.499980 0.367750 -0.599641
O7    O     O_R   0.549160 0.499990 0.632240 -0.577841
O8    O     O_R   0.450840 0.500010 0.367760 -0.582816
Zn1   Zn    Zn3+2 0.346870 0.500020 0.500000 1.020903
Zn2   Zn    Zn3+2 0.653130 0.499980 0.500000 1.023781
O9    O     O_3   0.101550 0.299400 0.104120 -0.605723
C33   C     C_3   0.113321 0.170120 0.085631 -0.331663
H9    H     H_    0.197967 0.123503 0.106979 0.179828
H10   H     H_    0.133286 0.151975 0.011042 0.158206
H11   H     H_    0.010794 0.126984 0.126537 0.206756
O10   O     O_3   0.875802 0.254424 0.915456 -0.598954
C34   C     C_3   0.867077 0.127215 0.941073 -0.291828
H12   H     H_    0.792421 0.078384 0.914891 0.184760
H13   H     H_    0.834793 0.114180 0.017510 0.137474
H14   H     H_    0.974258 0.082320 0.909107 0.201084
I1    I     I_    0.372065 0.622730 0.212064 -0.260210
I2    I     I_    0.638428 0.587572 0.786834 -0.316517
O11   O     O_3   0.280104 0.340636 0.198933 -0.562489
C35   C     C_3   0.347384 0.229529 0.216163 -0.275088
H15   H     H_    0.428841 0.252725 0.246836 0.170969
H16   H     H_    0.398418 0.169755 0.153976 0.121785
H17   H     H_    0.266041 0.172899 0.268100 0.212917
O12   O     O_3   0.681251 0.275575 0.825413 -0.546346
C36   C     C_3   0.595590 0.169659 0.834553 -0.239344
H18   H     H_    0.515085 0.189419 0.801050 0.188753
H19   H     H_    0.539037 0.137680 0.907354 0.093276
H20   H     H_    0.664809 0.090004 0.798528 0.212894
I3    I     I_    0.741962 0.126555 0.594275 -0.284683
I4    I     I_    0.265014 0.874486 0.399479 -0.292388
I5    I     I_    0.924644 0.283730 0.359273 -0.256678
I6    I     I_    0.075324 0.706013 0.647987 -0.266191

loop_
_geom_bond_atom_site_label_1
_geom_bond_atom_site_label_2
_ccdc_geom_bond_type
C35   H16   S    
C27   C29   A    
C6    O10   S    
C1    O3    A    
C4    O12   S    
O9    C33   S    
C2    O4    A    
C5    O9    S    
C35   H17   S    
C10   I4    S    
C1    O1    A    
C20   C24   A    
C2    O2    A    
C34   H14   S    
O12   C36   S    
C18   C20   S    
O2    Zn2   S    
C35   H15   S    
C34   H12   S    
C3    O11   S    
C1    C12   S    
C8    H6    S    
C2    C11   S    
C13   N2    A    
C5    C29   A    
C7    C12   A    
C33   H10   S    
C34   H13   S    
C27   C31   A    
C28   C32   A    
C15   N1    A    
C4    C6    A    
C17   O7    A    
C36   H19   S    
O5    Zn1   S    
O3    Zn2   S    
O10   C34   S    
C21   C29   A    
O4    Zn1   S    
C25   I2    S    
C19   C23   A    
C26   I1    S    
C31   C32   A    
O7    Zn2   S    
O8    Zn1   S    
C7    H5    S    
C9    C11   A    
C15   H7    S    
C10   C12   A    
C16   H8    S    
C14   N1    A    
C6    C30   A    
C13   C15   A    
C13   I5    S    
C22   C24   A    
C16   N2    A    
C18   O8    A    
C7    C9    A    
C33   H9    S    
C23   H2    S    
C22   C30   A    
C17   O5    A    
C3    C5    A    
C18   O6    A    
C36   H20   S    
C21   H3    S    
C25   C27   A    
C22   H4    S    
C26   C28   A    
C24   H1    S    
C21   C23   A    
C36   H18   S    
O1    Zn1   S    
C20   C26   A    
C8    C11   A    
C28   C30   A    
C17   C19   S    
C14   C16   A    
C14   I6    S    
C3    C32   A    
C19   C25   A    
C4    C31   A    
O6    Zn2   S    
C8    C10   A    
O11   C35   S    
C9    I3    S    
N1    Zn1   S    
N2    Zn2   S    
C33   H11   S    
