data_mof_unit_56113.cif
_audit_creation_date              2013-03-05T15:50:33-0500
_audit_creation_method            fapswitch 2.2
_symmetry_space_group_name_H-M    P1
_symmetry_Int_Tables_number       1
_space_group_crystal_system       triclinic
_cell_length_a                    9.66131
_cell_length_b                    10.822649
_cell_length_c                    13.35965
_cell_angle_alpha                 95.81963
_cell_angle_beta                  73.728418
_cell_angle_gamma                 90.730303
_cell_volume                      1333.85364684

loop_
_atom_site_label
_atom_site_type_symbol
_atom_site_description
_atom_site_fract_x
_atom_site_fract_y
_atom_site_fract_z
_atom_type_partial_charge
O1    O     O_R   0.381190 0.680360 0.500010 -0.612096
O2    O     O_R   0.618760 0.680340 0.500000 -0.569083
C1    C     C_R   0.500806 0.737938 0.497041 0.846736
O3    O     O_R   0.323240 0.499990 0.650990 -0.581377
O4    O     O_R   0.560820 0.499960 0.650980 -0.582187
C2    C     C_R   0.423725 0.519122 0.699485 0.817274
Cu1   Cu    Cu3+1 0.359340 0.500010 0.500010 0.961010
Cu2   Cu    Cu3+1 0.640660 0.499990 0.499990 1.011838
O5    O     O_R   0.381240 0.319660 0.500000 -0.614135
O6    O     O_R   0.618810 0.319640 0.499990 -0.500685
O7    O     O_R   0.439180 0.500040 0.349020 -0.568779
O8    O     O_R   0.676760 0.500010 0.349010 -0.525295
C3    C     C_R   0.493517 0.265189 0.513412 0.847829
C4    C     C_R   0.576407 0.500799 0.299835 0.851831
C5    C     C_R   0.798300 0.501363 0.016683 0.328614
H1    H     H_    0.844503 0.481792 0.163246 0.225783
H2    H     H_    0.843117 0.614850 0.839097 0.201228
C6    C     C_R   0.616916 0.506442 0.185168 -0.210110
C7    C     C_R   0.234903 0.580897 0.867951 -0.095833
C8    C     C_R   0.192955 0.605912 0.976874 -0.099138
C9    C     C_R   0.293115 0.594885 0.033043 -0.092796
C10   C     C_R   0.439862 0.571250 0.979539 0.057699
C11   C     C_R   0.484015 0.580819 0.870849 -0.035834
C12   C     C_R   0.545967 0.545421 0.029924 -0.067794
C13   C     C_R   0.693483 0.544003 0.972260 -0.075841
C14   C     C_R   0.732103 0.591183 0.874476 -0.204580
C15   C     C_R   0.625872 0.621319 0.827694 0.333839
C16   C     C_R   0.509895 0.508140 0.132018 0.413280
C17   C     C_R   0.761843 0.500387 0.125978 -0.333952
C18   C     C_R   0.381030 0.560924 0.813555 -0.092656
H3    H     H_    0.153801 0.579902 0.826164 0.188978
H4    H     H_    0.255305 0.609299 0.117572 0.191981
H5    H     H_    0.081386 0.627756 0.018376 0.156875
H6    H     H_    0.702036 0.893558 0.535740 0.194960
C19   C     C_R   0.252173 0.882225 0.467943 -0.067427
H7    H     H_    0.263607 0.795081 0.419209 0.164437
C20   C     C_R   0.116892 0.939964 0.495800 -0.090309
H8    H     H_    0.027511 0.893733 0.474676 0.136908
C21   C     C_R   0.097118 0.057352 0.550424 -0.132839
H9    H     H_    0.991783 0.101083 0.573249 0.182067
C22   C     C_R   0.215445 0.122228 0.567256 -0.121530
H10   H     H_    0.195925 0.214357 0.608544 0.172196
C23   C     C_R   0.354843 0.066765 0.533917 0.095934
C24   C     C_R   0.368443 0.938995 0.499796 0.111768
C25   C     C_R   0.495755 0.874239 0.501061 -0.188325
C26   C     C_R   0.608734 0.941114 0.526988 -0.215938
C27   C     C_R   0.601368 0.069985 0.545310 0.402469
C28   C     C_R   0.481190 0.133737 0.534295 -0.242755
H11   H     H_    0.842905 0.675545 0.582256 0.198728
C29   C     C_R   0.906617 0.293824 0.384202 0.478552
C30   C     C_R   0.996811 0.186490 0.361998 -0.384458
H12   H     H_    0.960645 0.096175 0.338690 0.181401
C31   C     C_R   0.142403 0.197891 0.349325 0.268336
C32   C     C_R   0.191958 0.310910 0.382483 -0.202627
H13   H     H_    0.305342 0.323055 0.359313 0.232495
C33   C     C_R   0.096746 0.404546 0.443405 0.102390
C34   C     C_R   0.947124 0.401085 0.443716 0.114398
N1    N     N_R   0.852480 0.498790 0.499000 -0.199099
C35   C     C_R   0.909379 0.595148 0.547728 -0.063491
H14   H     H_    0.094370 0.670926 0.592303 0.148770
C36   C     C_R   0.055328 0.593639 0.550474 -0.037285
N2    N     N_R   0.148360 0.498710 0.498970 -0.181258
O9    O     O_3   0.710302 0.132395 0.577190 -0.590976
C37   C     C_3   0.657529 0.172128 0.685704 0.056622
H15   H     H_    0.648729 0.091111 0.732120 0.191323
H16   H     H_    0.549836 0.219292 0.705922 0.124440
C38   C     C_3   0.759487 0.265477 0.718937 -0.685153
H17   H     H_    0.783385 0.340321 0.665907 0.260725
H18   H     H_    0.708263 0.307823 0.800056 0.215438
H19   H     H_    0.861461 0.219117 0.718024 0.244677
O10   O     O_3   0.800390 0.302825 0.332245 -0.537852
C39   C     C_3   0.777416 0.190880 0.273569 0.054727
H20   H     H_    0.738821 0.117163 0.326737 0.159354
H21   H     H_    0.877272 0.160391 0.210819 0.167960
C40   C     C_3   0.662650 0.208406 0.219059 -0.745459
H22   H     H_    0.704315 0.264186 0.152410 0.237928
H23   H     H_    0.632744 0.116556 0.186837 0.242291
H24   H     H_    0.566331 0.253510 0.275971 0.248861
N3    N     N_R   0.239827 0.096171 0.298642 0.130343
O11   O     O_R   0.198254 0.003551 0.244505 -0.384378
O12   O     O_R   0.369664 0.093323 0.308526 -0.428303
N4    N     N_R   0.930098 0.440614 0.952584 0.102528
O13   O     O_R   0.008304 0.380229 0.996904 -0.406785
O14   O     O_R   0.952561 0.416758 0.851814 -0.414839
O15   O     O_3   0.378519 0.453327 0.172120 -0.592153
C41   C     C_3   0.384354 0.328866 0.125265 0.006173
H25   H     H_    0.400068 0.265805 0.181027 0.195556
H26   H     H_    0.473582 0.307560 0.051471 0.139699
C42   C     C_3   0.243479 0.297305 0.100030 -0.671061
H27   H     H_    0.242714 0.338656 0.027727 0.271155
H28   H     H_    0.234660 0.195014 0.085789 0.231190
H29   H     H_    0.149940 0.333652 0.165552 0.255500
N5    N     N_R   0.653018 0.719487 0.759384 0.108652
O16   O     O_R   0.549391 0.763350 0.727925 -0.397498
O17   O     O_R   0.766833 0.787419 0.753110 -0.421779

loop_
_geom_bond_atom_site_label_1
_geom_bond_atom_site_label_2
_geom_bond_distance
_ccdc_geom_bond_type
N5    O16   1.301049 A    
C22   H10   1.081188 S    
C4    C6    1.478529 S    
C19   H7    1.078610 S    
C23   C24   1.407287 A    
C7    H3    1.081395 S    
Cu1   Cu2   2.717847 S    
C21   C22   1.393570 A    
C31   C32   1.384064 A    
Cu1   O7    1.947351 S    
C14   C15   1.399881 A    
H2    C14   1.082963 S    
C31   N3    1.440300 S    
O1    C1    1.298610 A    
C39   C40   1.510491 S    
C27   O9    1.385642 S    
O4    C2    1.309978 A    
O7    C4    1.304684 A    
C41   H26   1.118457 S    
C5    C13   1.412409 A    
C33   C34   1.444412 A    
O5    C3    1.304972 A    
Cu2   N1    2.042991 S    
C26   C27   1.390594 A    
C7    C8    1.395517 A    
H6    C26   1.083620 S    
C11   C15   1.412794 A    
C42   H28   1.110399 S    
C23   C28   1.412661 A    
N5    O17   1.302654 A    
C9    C10   1.410918 A    
C22   C23   1.415166 A    
O3    Cu1   1.948323 S    
C5    C17   1.403931 A    
C5    N4    1.443291 S    
C9    H4    1.080561 S    
C32   C33   1.404456 A    
C35   C36   1.421118 A    
C30   H12   1.079353 S    
C11   C18   1.417782 A    
C6    C16   1.410022 A    
C12   C13   1.416966 A    
C39   H21   1.114086 S    
C21   H9    1.077846 S    
C6    C17   1.400529 A    
C41   H25   1.101338 S    
C13   C14   1.401357 A    
O15   C41   1.421472 S    
C1    C25   1.471593 S    
C38   H17   1.109631 S    
C41   C42   1.518115 S    
H14   C36   1.081435 S    
C38   H18   1.110817 S    
C37   H16   1.115418 S    
C40   H22   1.105112 S    
C37   C38   1.522122 S    
Cu1   N2    2.042140 S    
C20   H8    1.082855 S    
C3    C28   1.474283 S    
C27   C28   1.408038 A    
Cu2   O8    1.948323 S    
C29   C30   1.416964 A    
C29   O10   1.400012 S    
C42   H29   1.110681 S    
C19   C24   1.420459 A    
C40   H23   1.110198 S    
C8    H5    1.081758 S    
O3    C2    1.313482 A    
C2    C18   1.486567 S    
O8    C4    1.315279 A    
N4    O14   1.301304 A    
C10   C12   1.419244 A    
N3    O11   1.301808 A    
C15   N5    1.444231 S    
C24   C25   1.428413 A    
N3    O12   1.298662 A    
Cu1   O5    1.965961 S    
C32   H13   1.061903 S    
C19   C20   1.392234 A    
O1    Cu1   1.960571 S    
C29   C34   1.452073 A    
O2    Cu2   1.965962 S    
C12   C16   1.409327 A    
C39   H20   1.113102 S    
O6    C3    1.313901 A    
O4    Cu2   1.947351 S    
H11   C35   1.071988 S    
C38   H19   1.107758 S    
C37   H15   1.113275 S    
O2    C1    1.318011 A    
N1    C35   1.364461 A    
O10   C39   1.424654 S    
C20   C21   1.386768 A    
C34   N1    1.409804 A    
C33   N2    1.370891 A    
C36   N2    1.367640 A    
C40   H24   1.105512 S    
O9    C37   1.418270 S    
C25   C26   1.405749 A    
C8    C9    1.393469 A    
H1    C17   1.083233 S    
Cu2   O6    1.960570 S    
N4    O13   1.300119 A    
C16   O15   1.383529 S    
C10   C11   1.408340 A    
C30   C31   1.374334 A    
C42   H27   1.106859 S    
C7    C18   1.403197 A    
