data_mof_unit_51277.cif
_audit_creation_date              2012-12-10T18:48:21-0500
_audit_creation_method            fapswitch 2.2
_symmetry_space_group_name_H-M    P1
_symmetry_Int_Tables_number       1
_space_group_crystal_system       triclinic
_cell_length_a                    10.66376
_cell_length_b                    9.979911
_cell_length_c                    11.547093
_cell_angle_alpha                 90.001291
_cell_angle_beta                  93.967716
_cell_angle_gamma                 89.990166
_cell_volume                      1225.93521403

loop_
_atom_site_label
_atom_site_type_symbol
_atom_type_description
_atom_site_fract_x
_atom_site_fract_y
_atom_site_fract_z
_atom_type_partial_charge
C1    C     C_R   0.261346 0.500014 0.513646 0.896944
C2    C     C_R   0.938041 0.622800 0.476894 0.143372
C3    C     C_R   0.938107 0.377143 0.477126 0.143355
C4    C     C_R   0.061891 0.622863 0.522853 0.143347
C5    C     C_R   0.872552 0.499961 0.469922 -0.164255
C6    C     C_R   0.127443 0.500043 0.530062 -0.164255
C7    C     C_R   0.576765 0.071759 0.579017 0.200337
C8    C     C_R   0.423238 0.928240 0.420980 0.200328
C9    C     C_R   0.423225 0.071779 0.420990 0.200398
C10   C     C_R   0.576774 0.928220 0.579011 0.200388
C11   C     C_3   0.118194 0.248310 0.573276 -0.832688
C12   C     C_R   0.738652 0.499987 0.486349 0.896944
C13   C     C_3   0.881794 0.751699 0.426717 -0.832691
C14   C     C_3   0.881949 0.248116 0.427174 -0.832753
C15   C     C_3   0.118056 0.751894 0.572789 -0.832752
C16   C     C_3   0.661918 0.143150 0.669477 -0.822025
C17   C     C_3   0.338104 0.856847 0.330506 -0.822051
C18   C     C_3   0.337960 0.143179 0.330606 -0.821929
C19   C     C_3   0.662030 0.856819 0.669401 -0.821940
C20   C     C_R   0.499250 0.499999 0.282159 0.884585
C21   C     C_R   0.500750 0.500001 0.717841 0.884593
C22   C     C_1   0.499446 0.499997 0.161600 -0.188823
C23   C     C_1   0.500554 0.500003 0.838400 -0.188824
C24   C     C_1   0.499771 0.499999 0.059379 -0.004622
C25   C     C_1   0.500229 0.500001 0.940621 -0.004621
C26   C     C_R   0.061953 0.377206 0.523092 0.143361
H1    H     H_    0.196538 0.268482 0.639374 0.248551
H2    H     H_    0.196355 0.731901 0.638983 0.248611
H3    H     H_    0.151236 0.816031 0.502920 0.247092
H4    H     H_    0.046681 0.808187 0.618844 0.224234
H5    H     H_    0.668260 0.250648 0.657522 0.292522
H6    H     H_    0.629283 0.124297 0.757234 0.224995
H7    H     H_    0.760338 0.108704 0.666742 0.197101
H8    H     H_    0.331736 0.749353 0.342482 0.292517
H9    H     H_    0.239684 0.891311 0.333197 0.197105
H10   H     H_    0.370780 0.875670 0.242759 0.225011
H11   H     H_    0.331781 0.250712 0.342425 0.292532
H12   H     H_    0.046869 0.192173 0.619498 0.224236
H13   H     H_    0.370352 0.124124 0.242787 0.224933
H14   H     H_    0.239524 0.108903 0.333600 0.197089
H15   H     H_    0.668224 0.749289 0.657572 0.292532
H16   H     H_    0.760464 0.891108 0.666430 0.197097
H17   H     H_    0.629616 0.875858 0.757215 0.224935
H18   H     H_    0.151345 0.183958 0.503525 0.247107
H19   H     H_    0.803455 0.731526 0.360613 0.248548
H20   H     H_    0.848632 0.816038 0.496473 0.247108
H21   H     H_    0.953117 0.807850 0.380505 0.224246
H22   H     H_    0.803614 0.268105 0.361016 0.248623
H23   H     H_    0.953318 0.191868 0.381075 0.224231
H24   H     H_    0.848821 0.183940 0.497042 0.247069
N1    N     N_R   0.500000 0.857200 0.500000 -0.114558
N2    N     N_R   0.500000 0.142800 0.500000 -0.114561
O1    O     O_R   0.316770 0.614620 0.499990 -0.620718
O2    O     O_R   0.683230 0.385380 0.500010 -0.620712
O3    O     O_R   0.683230 0.614620 0.500010 -0.620650
O4    O     O_R   0.316770 0.385380 0.499990 -0.620646
O5    O     O_R   0.500020 0.614670 0.334450 -0.618756
O6    O     O_R   0.499980 0.385330 0.665550 -0.618759
O7    O     O_R   0.499980 0.614670 0.665550 -0.618778
O8    O     O_R   0.500020 0.385330 0.334450 -0.618787
Zn1   Zn    Zn3+2 0.500000 0.653120 0.500000 0.922586
Zn2   Zn    Zn3+2 0.500000 0.346880 0.500000 0.922591

loop_
_geom_bond_atom_site_label_1
_geom_bond_atom_site_label_2
_ccdc_geom_bond_type
O6    Zn2   S    
C7    C10   A    
C2    C4    A    
C18   H13   S    
O5    Zn1   S    
C17   H10   S    
C16   H7    S    
C11   H12   S    
C17   H9    S    
C8    C17   S    
N1    Zn1   S    
C19   H16   S    
C11   H1    S    
C10   C19   S    
C4    C15   S    
C21   C23   S    
C11   H18   S    
C21   O7    A    
C6    C26   A    
C16   H5    S    
C13   H19   S    
C9    N2    A    
C8    N1    A    
C15   H2    S    
C14   H24   S    
C3    C14   S    
C15   H4    S    
C14   H22   S    
C10   N1    A    
O3    Zn1   S    
C4    C6    A    
C7    C16   S    
C1    O4    A    
C20   C22   S    
C7    N2    A    
C15   H3    S    
O4    Zn2   S    
C23   C25   T    
C13   H20   S    
C22   C24   T    
O7    Zn1   S    
C14   H23   S    
C20   O8    A    
C17   H8    S    
C12   O2    A    
C1    C6    S    
C12   O3    A    
C9    C18   S    
C21   O6    A    
C18   H14   S    
C24   C25   S    
C5    C12   S    
O8    Zn2   S    
C13   H21   S    
C2    C13   S    
C1    O1    A    
C16   H6    S    
N2    Zn2   S    
O2    Zn2   S    
C11   C26   S    
C20   O5    A    
O1    Zn1   S    
C18   H11   S    
C3    C26   A    
C2    C5    A    
C19   H15   S    
C19   H17   S    
C8    C9    A    
C3    C5    A    
