data_mof_unit_55944.cif
_audit_creation_date              2012-12-10T20:34:52-0500
_audit_creation_method            fapswitch 2.2
_symmetry_space_group_name_H-M    P1
_symmetry_Int_Tables_number       1
_space_group_crystal_system       triclinic
_cell_length_a                    10.632076
_cell_length_b                    10.660916
_cell_length_c                    9.859672
_cell_angle_alpha                 89.976903
_cell_angle_beta                  90.251659
_cell_angle_gamma                 89.85766
_cell_volume                      1117.55651513

loop_
_atom_site_label
_atom_site_type_symbol
_atom_type_description
_atom_site_fract_x
_atom_site_fract_y
_atom_site_fract_z
_atom_type_partial_charge
C1    C     C_R   0.504219 0.259929 0.500133 0.867818
C2    C     C_3   0.878902 0.501381 0.499947 0.047465
C3    C     C_3   0.927737 0.623017 0.570943 1.030928
C4    C     C_3   0.928037 0.496437 0.351450 -0.453622
C5    C     C_R   0.519383 0.063768 0.623826 0.133987
C6    C     C_R   0.525055 0.128533 0.501459 -0.106257
C7    C     C_R   0.555437 0.064774 0.381544 -0.246110
C8    C     C_R   0.555691 0.934983 0.381547 -0.209930
C9    C     C_R   0.525397 0.871247 0.501419 -0.095028
C10   C     C_R   0.519559 0.935914 0.623805 0.110287
C11   C     C_3   0.424573 0.928740 0.734909 -0.476197
C12   C     C_R   0.257644 0.499767 0.499572 0.870757
C13   C     C_3   0.424271 0.070925 0.734844 -0.486582
C14   C     C_R   0.437126 0.409045 0.070935 0.219370
C15   C     C_R   0.571199 0.582775 0.072310 -0.137560
C16   C     C_R   0.571161 0.582831 0.928260 -0.108257
C17   C     C_R   0.437207 0.409005 0.928305 0.214422
C18   C     C_3   0.299559 0.383827 0.921669 -0.517230
C19   C     C_3   0.299342 0.384288 0.075483 -0.515118
C20   C     C_R   0.504442 0.740011 0.500059 0.902628
C21   C     C_R   0.742356 0.499945 0.500054 0.899238
C22   C     C_3   0.072605 0.385247 0.578842 -0.413298
C23   C     C_3   0.928431 0.383743 0.576117 -0.465662
C24   C     C_3   0.073145 0.622924 0.565384 -0.486350
C25   C     C_3   0.070649 0.493627 0.351150 -0.417962
C26   C     C_3   0.121264 0.500307 0.498775 0.077054
H1    H     H_    0.105556 0.389047 0.685994 0.193258
H2    H     H_    0.894584 0.579465 0.292777 0.219202
H3    H     H_    0.107461 0.705009 0.506364 0.148274
H4    H     H_    0.570099 0.114062 0.286843 0.171801
H5    H     H_    0.570570 0.885704 0.286882 0.168954
H6    H     H_    0.333811 0.887341 0.700922 0.198396
H7    H     H_    0.464698 0.887572 0.829307 0.203458
H8    H     H_    0.333376 0.112334 0.700651 0.193046
H9    H     H_    0.464056 0.112031 0.829287 0.203107
H10   H     H_    0.626738 0.651171 0.126956 0.150706
H11   H     H_    0.109577 0.296887 0.533693 0.164290
H12   H     H_    0.626612 0.651315 0.874082 0.172668
H13   H     H_    0.245456 0.463162 0.876922 0.222465
H14   H     H_    0.278488 0.290337 0.877436 0.193404
H15   H     H_    0.245678 0.464353 0.118352 0.216519
H16   H     H_    0.277740 0.291204 0.120409 0.197676
H17   H     H_    0.895064 0.296988 0.524513 0.166987
H18   H     H_    0.892502 0.380980 0.681950 0.224048
H19   H     H_    0.112004 0.632328 0.669933 0.181666
H20   H     H_    0.105794 0.574311 0.290422 0.191579
H21   H     H_    0.103105 0.405440 0.301775 0.189687
H22   H     H_    0.892254 0.411075 0.298866 0.195001
N1    N     N_R   0.499150 0.499140 0.142800 -0.109532
N2    N     N_R   0.499150 0.499180 0.857150 -0.111582
O1    O     O_R   0.500020 0.316790 0.614690 -0.619628
O2    O     O_R   0.500000 0.316760 0.385350 -0.624787
O3    O     O_R   0.314800 0.500000 0.614670 -0.630723
O4    O     O_R   0.314790 0.499960 0.385330 -0.626752
O5    O     O_R   0.500000 0.683240 0.614650 -0.618967
O6    O     O_R   0.499980 0.683210 0.385310 -0.624050
O7    O     O_R   0.685210 0.500040 0.614670 -0.582203
O8    O     O_R   0.685200 0.500000 0.385330 -0.634684
Zn1   Zn    Zn3+2 0.500010 0.500020 0.653130 0.956173
Zn2   Zn    Zn3+2 0.499990 0.499980 0.346870 0.938463
O9    O     O_3   0.878241 0.729487 0.501290 -0.673055
C27   C     C_3   0.876037 0.837018 0.584861 -0.266887
H23   H     H_    0.968074 0.853341 0.635928 0.158194
H24   H     H_    0.799546 0.829744 0.660936 0.206809
H25   H     H_    0.855389 0.920068 0.520598 0.173846
F1    F     F_    0.890251 0.621104 0.706477 -0.715619

loop_
_geom_bond_atom_site_label_1
_geom_bond_atom_site_label_2
_ccdc_geom_bond_type
C17   N2    A    
C2    C4    S    
C18   H13   S    
C21   O7    A    
C27   H23   S    
O5    Zn1   S    
C11   C13   S    
C9    C10   A    
C25   H21   S    
C9    C20   S    
C5    C13   S    
C12   O3    A    
C19   H16   S    
C20   O6    A    
C21   O8    A    
C2    C21   S    
C15   N1    A    
C17   C18   S    
O3    Zn1   S    
C13   H8    S    
C7    H4    S    
O4    Zn2   S    
C1    O1    A    
C14   C17   A    
C3    C24   S    
C6    C7    A    
N1    Zn2   S    
C20   O5    A    
C5    C6    A    
N2    Zn1   S    
C14   C19   S    
C5    C10   A    
C4    H2    S    
C24   C26   S    
C11   H6    S    
C4    C25   S    
C2    C3    S    
C22   H1    S    
C3    O9    S    
C22   C26   S    
O9    C27   S    
C1    O2    A    
O7    Zn1   S    
C3    F1    S    
O1    Zn1   S    
C10   C11   S    
C24   H19   S    
O8    Zn2   S    
C15   C16   A    
C14   N1    A    
C19   H15   S    
C15   H10   S    
C11   H7    S    
C23   H17   S    
C18   C19   S    
C4    H22   S    
C12   C26   S    
C2    C23   S    
C7    C8    A    
C18   H14   S    
C22   C23   S    
C27   H24   S    
O2    Zn2   S    
C27   H25   S    
C16   H12   S    
C25   C26   S    
C24   H3    S    
C22   H11   S    
C25   H20   S    
C13   H9    S    
C12   O4    A    
C8    H5    S    
O6    Zn2   S    
C16   N2    A    
C8    C9    A    
C23   H18   S    
C1    C6    S    
