data_mof_unit_47698.cif
_audit_creation_date              2012-12-10T18:52:11-0500
_audit_creation_method            fapswitch 2.2
_symmetry_space_group_name_H-M    P1
_symmetry_Int_Tables_number       1
_space_group_crystal_system       triclinic
_cell_length_a                    15.765039
_cell_length_b                    10.728215
_cell_length_c                    9.825674
_cell_angle_alpha                 89.652327
_cell_angle_beta                  90.794686
_cell_angle_gamma                 90.431837
_cell_volume                      1661.58680278

loop_
_atom_site_label
_atom_site_type_symbol
_atom_type_description
_atom_site_fract_x
_atom_site_fract_y
_atom_site_fract_z
_atom_type_partial_charge
C1    C     C_R   0.497275 0.260030 0.500685 0.956825
C2    C     C_R   0.503124 0.739719 0.499719 0.970435
C3    C     C_R   0.448911 0.932968 0.407268 0.445530
C4    C     C_R   0.544908 0.065445 0.603074 0.412988
C5    C     C_R   0.504099 0.872174 0.498916 -0.302038
C6    C     C_R   0.495322 0.127245 0.503223 -0.300199
C7    C     C_R   0.550356 0.582143 0.072872 0.560870
C8    C     C_R   0.449868 0.417474 0.927088 0.543514
C9    C     C_R   0.548931 0.582912 0.928108 -0.294268
C10   C     C_R   0.451167 0.416903 0.071839 -0.282564
C11   C     C_R   0.337914 0.498996 0.499003 0.897587
C12   C     C_R   0.662163 0.498704 0.500823 0.898221
C13   C     C_3   0.974068 0.397895 0.595710 0.425974
C14   C     C_3   0.025546 0.545988 0.393849 0.340518
C15   C     C_3   0.029601 0.356631 0.476033 0.327691
C16   C     C_3   0.972099 0.587369 0.515098 0.338112
C17   C     C_1   0.249389 0.490930 0.496406 -0.144846
C18   C     C_1   0.750660 0.488313 0.502056 -0.150295
C19   C     C_3   0.029226 0.515459 0.615993 -0.225957
C20   C     C_3   0.970394 0.427243 0.374414 -0.287670
C21   C     C_3   0.083902 0.474795 0.495441 -0.136323
C22   C     C_3   0.916087 0.470097 0.496332 -0.159126
C23   C     C_1   0.174482 0.482741 0.494786 0.118150
C24   C     C_1   0.825468 0.478455 0.500468 0.125963
C25   C     C_R   0.446852 0.062011 0.404734 -0.176161
C26   C     C_R   0.552883 0.937146 0.596903 -0.170640
H1    H     H_    0.586524 0.649942 0.872422 0.196351
H2    H     H_    0.413719 0.349583 0.127355 0.195408
N1    N     N_R   0.499980 0.499970 0.857200 -0.147136
N2    N     N_R   0.500020 0.500030 0.142800 -0.136412
O1    O     O_R   0.499990 0.316750 0.614620 -0.533927
O2    O     O_R   0.500010 0.683250 0.385380 -0.524953
O3    O     O_R   0.500000 0.316780 0.385290 -0.622400
O4    O     O_R   0.500000 0.683220 0.614710 -0.629319
O5    O     O_R   0.376780 0.499970 0.614640 -0.606475
O6    O     O_R   0.623220 0.500030 0.385360 -0.608376
O7    O     O_R   0.376780 0.500000 0.385310 -0.598304
O8    O     O_R   0.623220 0.500000 0.614690 -0.611565
Zn1   Zn    Zn3+2 0.500000 0.499980 0.653120 1.012162
Zn2   Zn    Zn3+2 0.500000 0.500020 0.346880 1.030322
O9    O     O_3   0.062389 0.234568 0.471485 -0.626064
C27   C     C_3   0.098487 0.211123 0.343914 0.148837
H3    H     H_    0.134903 0.292635 0.304004 0.180655
H4    H     H_    0.047890 0.184159 0.269944 0.173907
C28   C     C_3   0.158872 0.101963 0.357980 -0.830840
H5    H     H_    0.123433 0.015271 0.382808 0.235127
H6    H     H_    0.192496 0.087968 0.260779 0.228522
H7    H     H_    0.205875 0.120696 0.440638 0.280620
O10   O     O_3   0.936100 0.706054 0.532543 -0.589312
C29   C     C_3   0.000136 0.794615 0.562712 0.122094
H8    H     H_    0.061073 0.776428 0.510314 0.144863
H9    H     H_    0.011992 0.796287 0.674368 0.168449
C30   C     C_3   0.969708 0.922564 0.518427 -0.847392
H10   H     H_    0.906090 0.940444 0.560728 0.269242
H11   H     H_    0.015068 0.994326 0.556304 0.247260
H12   H     H_    0.965584 0.928382 0.405680 0.248686
O11   O     O_3   0.949912 0.324288 0.708419 -0.560839
C31   C     C_3   0.899636 0.222412 0.665379 0.128043
H13   H     H_    0.927818 0.172411 0.578906 0.178140
H14   H     H_    0.835797 0.254240 0.632901 0.117880
C32   C     C_3   0.891069 0.131031 0.783605 -0.804464
H15   H     H_    0.864245 0.178605 0.873177 0.266062
H16   H     H_    0.848580 0.052483 0.754344 0.202348
H17   H     H_    0.954329 0.093253 0.812004 0.265427
O12   O     O_3   0.061321 0.622653 0.291948 -0.611850
C33   C     C_3   0.996971 0.680999 0.214063 0.139858
H18   H     H_    0.948178 0.724082 0.278718 0.164481
H19   H     H_    0.965849 0.613096 0.144442 0.200628
C34   C     C_3   0.036361 0.783983 0.128097 -0.810118
H20   H     H_    0.085885 0.744866 0.061735 0.273346
H21   H     H_    0.986718 0.828330 0.063211 0.220751
H22   H     H_    0.065557 0.855990 0.195014 0.235843
C35   C     C_2   0.935085 0.380779 0.241113 0.903832
O13   O     O_2   0.982181 0.367220 0.144642 -0.612324
O14   O     O_R   0.848380 0.355366 0.227036 -0.824100
H23   H     H_    0.832218 0.326025 0.132198 0.339396
C36   C     C_2   0.059535 0.559364 0.753133 0.971437
O15   O     O_2   0.007809 0.582907 0.840656 -0.593113
O16   O     O_R   0.146276 0.572831 0.780435 -0.843348
H24   H     H_    0.158529 0.602315 0.876589 0.333277
C37   C     C_2   0.388591 0.124779 0.305468 0.949936
O17   O     O_2   0.346121 0.213611 0.340527 -0.687633
O18   O     O_R   0.380825 0.079773 0.172539 -0.727948
H25   H     H_    0.338204 0.128270 0.115509 0.325132
C38   C     C_2   0.613832 0.873634 0.691137 0.941265
O19   O     O_2   0.661297 0.793845 0.647872 -0.658263
O20   O     O_R   0.618366 0.907272 0.828372 -0.736237
H26   H     H_    0.664207 0.860767 0.880631 0.327454
O21   O     O_3   0.395206 0.865519 0.321755 -0.539370
C39   C     C_3   0.318797 0.840676 0.390872 0.080542
H27   H     H_    0.290844 0.927327 0.432227 0.125066
H28   H     H_    0.329633 0.773935 0.476306 0.118143
C40   C     C_3   0.254700 0.783227 0.292407 -0.734936
H29   H     H_    0.279441 0.694558 0.251505 0.267483
H30   H     H_    0.194693 0.763907 0.346512 0.229153
H31   H     H_    0.241680 0.848648 0.206743 0.255929
O22   O     O_3   0.575854 0.128037 0.716626 -0.525046
C41   C     C_3   0.657509 0.177064 0.692106 0.150485
H32   H     H_    0.659187 0.234076 0.597206 0.088905
H33   H     H_    0.704421 0.100820 0.683970 0.123443
C42   C     C_3   0.682233 0.260131 0.811812 -0.730023
H34   H     H_    0.692830 0.202275 0.904517 0.247021
H35   H     H_    0.740661 0.314151 0.790069 0.200469
H36   H     H_    0.630811 0.327352 0.831774 0.268897
O23   O     O_3   0.597146 0.669888 0.144649 -0.560443
C43   C     C_3   0.684573 0.650336 0.124466 0.080943
H37   H     H_    0.702423 0.670796 0.017534 0.126271
H38   H     H_    0.702629 0.552683 0.150441 0.168002
C44   C     C_3   0.735205 0.737945 0.216228 -0.723860
H39   H     H_    0.719591 0.720434 0.324544 0.268650
H40   H     H_    0.803968 0.722605 0.201995 0.187062
H41   H     H_    0.720259 0.836300 0.190076 0.251483
O24   O     O_3   0.403753 0.328823 0.855386 -0.557471
C45   C     C_3   0.316106 0.347463 0.874524 0.093182
H42   H     H_    0.297894 0.444999 0.848565 0.180286
H43   H     H_    0.297878 0.326634 0.981237 0.120605
C46   C     C_3   0.266113 0.259692 0.781774 -0.710260
H44   H     H_    0.278806 0.161424 0.811257 0.242092
H45   H     H_    0.197131 0.277753 0.790615 0.233417
H46   H     H_    0.284811 0.273994 0.674275 0.257259

loop_
_geom_bond_atom_site_label_1
_geom_bond_atom_site_label_2
_ccdc_geom_bond_type
C33   H19   S    
O20   H26   S    
C40   H29   S    
C32   H17   S    
C35   O13   D    
C45   H42   S    
O11   C31   S    
C1    O3    A    
C38   O19   D    
C17   C23   T    
C18   C24   T    
C8    N1    A    
C14   C21   S    
C2    O2    A    
C19   C21   S    
O7    Zn2   S    
C46   H45   S    
O8    Zn1   S    
C30   H12   S    
C6    C25   A    
C13   O11   S    
C43   H37   S    
C31   H14   S    
C41   H32   S    
C1    O1    A    
C19   C36   S    
O9    C27   S    
C11   O7    A    
C44   H40   S    
C20   C35   S    
C29   H9    S    
C7    O23   S    
C12   O6    A    
C9    N1    A    
C2    O4    A    
C31   C32   S    
C28   H6    S    
C33   H18   S    
C42   H35   S    
C7    N2    A    
C4    O22   S    
C25   C37   S    
C35   O14   S    
C34   H20   S    
C27   H4    S    
C37   O18   S    
O22   C41   S    
C30   H11   S    
C16   C19   S    
C15   C20   S    
C4    C26   A    
O3    Zn2   S    
C34   H21   S    
C13   C19   S    
C38   O20   S    
O4    Zn1   S    
C29   C30   S    
C42   H34   S    
C14   C20   S    
C3    C25   A    
C16   O10   S    
C15   O9    S    
C4    C6    A    
C46   H46   S    
C31   H13   S    
C36   O15   D    
C37   O17   D    
C1    C6    S    
C27   C28   S    
C34   H22   S    
O5    Zn1   S    
O14   H23   S    
C10   N2    A    
C39   H28   S    
O18   H25   S    
O6    Zn2   S    
N1    Zn1   S    
C32   H16   S    
C29   H8    S    
C36   O16   S    
N2    Zn2   S    
C8    O24   S    
C20   C22   S    
O12   C33   S    
C42   H36   S    
C41   H33   S    
C21   C23   S    
C22   C24   S    
O16   H24   S    
C44   H41   S    
C2    C5    S    
C27   H3    S    
C9    H1    S    
C39   C40   S    
O24   C45   S    
C28   H7    S    
C10   H2    S    
C7    C9    A    
C11   C17   S    
C16   C22   S    
C3    C5    A    
C45   H43   S    
C30   H10   S    
C40   H31   S    
C41   C42   S    
O23   C43   S    
C3    O21   S    
C13   C15   S    
C46   H44   S    
C39   H27   S    
C40   H30   S    
C43   H38   S    
C26   C38   S    
C11   O5    A    
C14   O12   S    
O1    Zn1   S    
C13   C22   S    
C14   C16   S    
O2    Zn2   S    
C12   O8    A    
C32   H15   S    
C45   C46   S    
C5    C26   A    
C33   C34   S    
C28   H5    S    
C15   C21   S    
C8    C10   A    
O10   C29   S    
C12   C18   S    
O21   C39   S    
C44   H39   S    
C43   C44   S    
