data_mof_unit_32399.cif
_audit_creation_date              2012-12-11T15:11:55-0500
_audit_creation_method            fapswitch 2.2
_symmetry_space_group_name_H-M    P1
_symmetry_Int_Tables_number       1
_space_group_crystal_system       triclinic
_cell_length_a                    30.616902
_cell_length_b                    22.333511
_cell_length_c                    18.106654
_cell_angle_alpha                 89.999716
_cell_angle_beta                  123.118252
_cell_angle_gamma                 90.000417
_cell_volume                      10369.6583822

loop_
_atom_site_label
_atom_site_type_symbol
_atom_type_description
_atom_site_fract_x
_atom_site_fract_y
_atom_site_fract_z
_atom_type_partial_charge
C1    C     C_R   0.540469 0.591280 0.733956 -0.223485
C2    C     C_R   0.268204 0.640383 0.579598 0.125317
C3    C     C_R   0.351387 0.223305 0.066342 -0.009975
C4    C     C_R   0.824355 0.200803 0.973450 0.012507
C5    C     C_R   0.148585 0.723237 0.933533 -0.009928
C6    C     C_R   0.175646 0.200839 0.026518 0.012779
C7    C     C_R   0.851446 0.723177 0.066562 -0.009959
C8    C     C_R   0.244728 0.677734 0.970767 0.018538
C9    C     C_R   0.717307 0.219862 0.901894 0.039925
C10   C     C_R   0.755297 0.677672 0.029309 0.018482
C11   C     C_R   0.282693 0.219877 0.098056 0.040276
C12   C     C_R   0.744724 0.177729 0.970767 0.018505
C13   C     C_R   0.353212 0.221257 0.583337 0.140345
C14   C     C_R   0.217312 0.719871 0.901897 0.039666
C15   C     C_R   0.255260 0.177777 0.029148 0.018577
C16   C     C_R   0.782704 0.719826 0.098162 0.039557
C17   C     C_R   0.742368 0.244662 0.862346 -0.386547
C18   C     C_R   0.219948 0.653658 0.011346 -0.378373
C19   C     C_R   0.257652 0.244641 0.137661 -0.387109
C20   C     C_R   0.780093 0.653578 0.988770 -0.378237
C21   C     C_R   0.242382 0.744688 0.862372 -0.386057
C22   C     C_R   0.719948 0.153662 0.011358 -0.378375
C23   C     C_R   0.757630 0.744643 0.137675 -0.385938
C24   C     C_R   0.731814 0.640392 0.420434 0.125324
C25   C     C_R   0.280006 0.153755 0.988481 -0.378552
C26   C     C_R   0.795907 0.237637 0.899713 0.563779
C27   C     C_R   0.172270 0.675652 0.992682 0.587935
C28   C     C_R   0.204098 0.237655 0.100284 0.563921
C29   C     C_R   0.827775 0.675570 0.007448 0.587930
C30   C     C_R   0.295916 0.737664 0.899750 0.563793
C31   C     C_R   0.672277 0.175666 0.992707 0.587980
C32   C     C_R   0.704105 0.737594 0.100308 0.563728
C33   C     C_R   0.327678 0.175756 0.007130 0.587996
C34   C     C_R   0.596531 0.579790 0.425457 -0.116243
C35   C     C_R   0.146805 0.721265 0.416673 0.140378
C36   C     C_R   0.421805 0.390771 0.574334 -0.102339
C37   C     C_R   0.403467 0.579774 0.574545 -0.116244
C38   C     C_R   0.578183 0.390766 0.425662 -0.102333
C39   C     C_R   0.096530 0.079780 0.425453 -0.116241
C40   C     C_R   0.921813 0.890769 0.574337 -0.102342
C41   C     C_R   0.903471 0.079791 0.574544 -0.116227
C42   C     C_R   0.078200 0.890775 0.425666 -0.102344
C43   C     C_R   0.387171 0.595052 0.268245 0.566827
C44   C     C_R   0.612798 0.404754 0.732433 0.544134
C45   C     C_R   0.612834 0.595042 0.731766 0.566807
C46   C     C_R   0.768189 0.140399 0.579571 0.125283
C47   C     C_R   0.387199 0.404762 0.267556 0.544197
C48   C     C_R   0.887169 0.095048 0.268240 0.566804
C49   C     C_R   0.112798 0.904753 0.732429 0.544157
C50   C     C_R   0.112827 0.095059 0.731746 0.566812
C51   C     C_R   0.887199 0.904758 0.267564 0.544142
C52   C     C_R   0.590863 0.613060 0.779031 -0.106186
C53   C     C_R   0.412710 0.376338 0.233182 -0.064982
C54   C     C_R   0.409146 0.613080 0.220990 -0.106171
C55   C     C_R   0.587285 0.376321 0.766795 -0.064960
C56   C     C_R   0.090850 0.113093 0.778995 -0.106092
C57   C     C_R   0.853213 0.721282 0.583367 0.140401
C58   C     C_R   0.912712 0.876314 0.233210 -0.064944
C59   C     C_R   0.909143 0.113073 0.220981 -0.106128
C60   C     C_R   0.087285 0.876318 0.766791 -0.064950
C61   C     C_R   0.646521 0.590721 0.498181 0.051079
C62   C     C_R   0.386513 0.356844 0.501625 0.068086
C63   C     C_R   0.353473 0.590694 0.501824 0.051073
C64   C     C_R   0.613468 0.356833 0.498368 0.068103
C65   C     C_R   0.146524 0.090704 0.498173 0.051048
C66   C     C_R   0.886526 0.856838 0.501630 0.068143
C67   C     C_R   0.853480 0.090724 0.501821 0.051070
C68   C     C_R   0.231795 0.140398 0.420402 0.125266
C69   C     C_R   0.113498 0.856852 0.498378 0.068127
C70   C     C_R   0.668169 0.267578 0.577205 -0.253293
C71   C     C_R   0.258821 0.614187 0.420209 -0.262197
C72   C     C_R   0.331790 0.267609 0.422772 -0.253657
C73   C     C_R   0.741156 0.614284 0.579817 -0.262170
C74   C     C_R   0.168226 0.767619 0.577234 -0.253081
C75   C     C_R   0.758847 0.114288 0.420192 -0.262149
C76   C     C_R   0.831824 0.767582 0.422796 -0.252944
C77   C     C_R   0.241172 0.114214 0.579786 -0.262163
C78   C     C_R   0.632776 0.296811 0.497481 0.119171
C79   C     C_R   0.687878 0.197810 0.497481 0.029836
C80   C     C_R   0.306274 0.604064 0.501052 0.117370
C81   C     C_R   0.367195 0.296826 0.502502 0.119328
C82   C     C_R   0.693719 0.604117 0.498965 0.117374
C83   C     C_R   0.132824 0.796839 0.497504 0.119088
C84   C     C_R   0.806283 0.104122 0.501039 0.117387
C85   C     C_R   0.867213 0.796819 0.502517 0.119027
C86   C     C_R   0.193721 0.104086 0.498943 0.117406
C87   C     C_R   0.618821 0.270166 0.417178 -0.256026
C88   C     C_R   0.309238 0.612741 0.580384 -0.249476
C89   C     C_R   0.381163 0.270160 0.582802 -0.256058
C90   C     C_R   0.223606 0.658250 0.498387 0.030016
C91   C     C_R   0.690772 0.612760 0.419640 -0.249450
C92   C     C_R   0.118862 0.770179 0.417208 -0.256035
C93   C     C_R   0.809230 0.112766 0.580362 -0.249481
C94   C     C_R   0.881166 0.770179 0.582821 -0.256026
C95   C     C_R   0.190757 0.112760 0.419613 -0.249520
C96   C     C_3   0.328819 0.663398 0.255493 -0.309685
C97   C     C_3   0.685535 0.462640 0.781353 -0.223650
C98   C     C_3   0.671198 0.663384 0.744551 -0.309621
C99   C     C_3   0.314461 0.462641 0.218656 -0.223781
C100  C     C_3   0.828826 0.163399 0.255501 -0.309624
C101  C     C_R   0.312106 0.197806 0.502493 0.029921
C102  C     C_3   0.185531 0.962649 0.781373 -0.223740
C103  C     C_3   0.171167 0.163412 0.744471 -0.309701
C104  C     C_3   0.814464 0.962645 0.218671 -0.223821
C105  C     C_3   0.811854 0.327299 0.854845 -0.241718
C106  C     C_3   0.129360 0.599663 0.009749 -0.286231
C107  C     C_3   0.188761 0.327140 0.146669 -0.241044
C108  C     C_3   0.870788 0.599603 0.990606 -0.286379
C109  C     C_3   0.312242 0.827457 0.855827 -0.242330
C110  C     C_3   0.629271 0.099740 0.009653 -0.286513
C111  C     C_3   0.687575 0.827438 0.143684 -0.242305
C112  C     C_R   0.460881 0.402986 0.271442 -0.243550
C113  C     C_R   0.776402 0.658279 0.501651 0.030011
C114  C     C_3   0.370578 0.099841 0.989901 -0.286660
C115  C     C_R   0.187903 0.697806 0.497514 0.029812
C116  C     C_R   0.723600 0.158282 0.498357 0.030007
C117  C     C_R   0.812121 0.697810 0.502526 0.029769
C118  C     C_R   0.276394 0.158262 0.501615 0.029992
C119  C     C_R   0.696618 0.218788 0.577793 0.121180
C120  C     C_R   0.217757 0.642178 0.418311 0.138012
C121  C     C_R   0.303349 0.218811 0.422181 0.121294
C122  C     C_R   0.782231 0.642251 0.581726 0.138016
C123  C     C_R   0.196662 0.718816 0.577826 0.121119
C124  C     C_R   0.459537 0.591291 0.266057 -0.223486
C125  C     C_R   0.717772 0.142253 0.418285 0.138007
C126  C     C_R   0.803381 0.718788 0.422211 0.121078
C127  C     C_R   0.282241 0.142197 0.581689 0.137982
C128  C     C_R   0.638020 0.199747 0.336944 -0.204634
C129  C     C_R   0.273279 0.656052 0.658804 -0.184958
C130  C     C_R   0.361992 0.199696 0.663031 -0.204631
C131  C     C_R   0.726759 0.656025 0.341231 -0.184963
C132  C     C_R   0.138022 0.699701 0.336980 -0.204627
C133  C     C_R   0.773245 0.156034 0.658773 -0.184795
C134  C     C_R   0.861975 0.699756 0.663067 -0.204611
C135  C     C_R   0.539115 0.402974 0.728545 -0.243534
C136  C     C_R   0.226723 0.156058 0.341199 -0.184645
C137  C     C_R   0.173436 0.660145 0.337790 -0.202741
C138  C     C_R   0.737307 0.194850 0.657669 -0.178404
C139  C     C_R   0.826544 0.660232 0.662254 -0.202738
C140  C     C_R   0.262655 0.194887 0.342304 -0.178929
C141  C     C_R   0.673456 0.160227 0.337759 -0.202746
C142  C     C_R   0.237355 0.694891 0.657703 -0.178155
C143  C     C_R   0.326568 0.160157 0.662214 -0.202739
C144  C     C_R   0.762695 0.694845 0.342335 -0.177965
C145  C     C_R   0.381727 0.637646 0.131555 0.146868
C146  C     C_R   0.040461 0.091300 0.733935 -0.223494
C147  C     C_R   0.605656 0.322943 0.822904 0.157901
C148  C     C_R   0.618290 0.637608 0.868480 0.146857
C149  C     C_R   0.394336 0.322971 0.177051 0.157889
C150  C     C_R   0.881721 0.137635 0.131543 0.146875
C151  C     C_R   0.105655 0.822938 0.822892 0.157906
C152  C     C_R   0.118272 0.137666 0.868425 0.146905
C153  C     C_R   0.894347 0.822919 0.177130 0.157888
C154  C     C_R   0.379225 0.700191 0.020723 -0.156735
C155  C     C_R   0.606356 0.254275 0.926532 -0.153744
C156  C     C_R   0.620796 0.700120 0.979344 -0.156864
C157  C     C_R   0.960884 0.902966 0.271462 -0.243523
C158  C     C_R   0.393618 0.254341 0.073370 -0.153680
C159  C     C_R   0.879217 0.200169 0.020699 -0.156488
C160  C     C_R   0.106347 0.754258 0.926502 -0.153674
C161  C     C_R   0.120782 0.200209 0.979263 -0.156172
C162  C     C_R   0.893689 0.754190 0.073601 -0.153744
C163  C     C_R   0.407759 0.671316 0.101942 -0.203779
C164  C     C_R   0.586396 0.305465 0.874075 -0.208351
C165  C     C_R   0.592260 0.671262 0.898113 -0.203729
C166  C     C_R   0.413587 0.305516 0.125860 -0.208358
C167  C     C_R   0.907752 0.171300 0.101921 -0.203895
C168  C     C_R   0.959534 0.091286 0.266051 -0.223487
C169  C     C_R   0.086389 0.805451 0.874052 -0.208382
C170  C     C_R   0.092244 0.171341 0.898039 -0.204069
C171  C     C_R   0.913635 0.805400 0.126017 -0.208332
C172  C     C_R   0.328212 0.629125 0.076399 -0.199129
C173  C     C_R   0.642148 0.287217 0.820887 -0.151601
C174  C     C_R   0.671806 0.629082 0.923633 -0.199121
C175  C     C_R   0.357851 0.287233 0.179066 -0.151608
C176  C     C_R   0.828206 0.129116 0.076391 -0.199158
C177  C     C_R   0.142150 0.787216 0.820879 -0.151628
C178  C     C_R   0.171785 0.129144 0.923580 -0.199197
C179  C     C_R   0.039117 0.902973 0.728545 -0.243542
C180  C     C_R   0.857840 0.787212 0.179132 -0.151693
C181  C     C_R   0.298236 0.667036 0.004549 0.035795
C182  C     C_R   0.668585 0.241850 0.882698 0.029595
C183  C     C_R   0.701786 0.666975 0.995509 0.035821
C184  C     C_R   0.331410 0.241874 0.117240 0.029545
C185  C     C_R   0.798229 0.167025 0.004537 0.035728
C186  C     C_R   0.168586 0.741848 0.882690 0.029621
C187  C     C_R   0.201764 0.167064 0.995414 0.035628
C188  C     C_R   0.831426 0.741814 0.117365 0.029650
C189  C     C_R   0.645518 0.578337 0.571805 -0.129600
C190  C     C_R   0.646781 0.221274 0.416639 0.140379
C191  C     C_R   0.373056 0.390328 0.427712 -0.182288
C192  C     C_R   0.354478 0.578328 0.428198 -0.129586
C193  C     C_R   0.626934 0.390319 0.572284 -0.182179
C194  C     C_R   0.145521 0.078331 0.571800 -0.129527
C195  C     C_R   0.873063 0.890321 0.427715 -0.182106
C196  C     C_R   0.854482 0.078338 0.428196 -0.129572
C197  C     C_R   0.126951 0.890334 0.572290 -0.182131
C198  C     C_R   0.324365 0.700822 0.973475 0.012293
C199  C     C_R   0.648590 0.223248 0.933554 -0.009997
C200  C     C_R   0.675656 0.700751 0.026588 0.012226
H1    H     H_    0.514125 0.591050 0.756262 0.131185
H2    H     H_    0.310499 0.595242 0.093808 0.156615
H3    H     H_    0.271254 0.460822 0.180552 0.158922
H4    H     H_    0.832735 0.192943 0.210049 0.164377
H5    H     H_    0.856266 0.178077 0.324952 0.152394
H6    H     H_    0.788631 0.168956 0.239977 0.192537
H7    H     H_    0.174477 0.991245 0.818959 0.158483
H8    H     H_    0.172270 0.982499 0.716216 0.156873
H9    H     H_    0.228739 0.960840 0.819518 0.158918
H10   H     H_    0.167253 0.192962 0.789914 0.164412
H11   H     H_    0.143727 0.178083 0.675018 0.152428
H12   H     H_    0.211362 0.168971 0.760001 0.192594
H13   H     H_    0.350166 0.296505 0.229088 0.134188
H14   H     H_    0.825472 0.991243 0.181029 0.158574
H15   H     H_    0.827763 0.982493 0.283841 0.156879
H16   H     H_    0.771260 0.960824 0.180604 0.158948
H17   H     H_    0.812557 0.347116 0.911997 0.137565
H18   H     H_    0.774479 0.337727 0.792104 0.157491
H19   H     H_    0.843363 0.349154 0.851777 0.166345
H20   H     H_    0.158765 0.565141 0.021814 0.142668
H21   H     H_    0.097905 0.601633 0.938323 0.138644
H22   H     H_    0.111200 0.585594 0.045799 0.174518
H23   H     H_    0.188899 0.347419 0.090512 0.138150
H24   H     H_    0.689515 0.595209 0.906205 0.156628
H25   H     H_    0.225936 0.336816 0.210194 0.156840
H26   H     H_    0.157138 0.349184 0.149185 0.166235
H27   H     H_    0.841437 0.565049 0.978672 0.142676
H28   H     H_    0.902253 0.601690 0.062018 0.138644
H29   H     H_    0.888955 0.585500 0.954579 0.174553
H30   H     H_    0.313537 0.846978 0.913657 0.137223
H31   H     H_    0.274721 0.838385 0.793628 0.157788
H32   H     H_    0.343617 0.849182 0.852309 0.166414
H33   H     H_    0.658605 0.065171 0.021514 0.142644
H34   H     H_    0.597766 0.101825 0.938260 0.138644
H35   H     H_    0.149846 0.796498 0.770867 0.134129
H36   H     H_    0.611153 0.085653 0.045762 0.174541
H37   H     H_    0.686069 0.846791 0.085563 0.136971
H38   H     H_    0.725144 0.838607 0.205663 0.158023
H39   H     H_    0.656193 0.849119 0.147275 0.166436
H40   H     H_    0.341214 0.065304 0.977921 0.142715
H41   H     H_    0.402089 0.101814 0.061286 0.138698
H42   H     H_    0.388677 0.085804 0.953736 0.174507
H43   H     H_    0.810493 0.095234 0.093805 0.156618
H44   H     H_    0.850119 0.796527 0.229103 0.134196
H45   H     H_    0.189499 0.095248 0.906193 0.156605
H46   H     H_    0.556268 0.331068 0.873703 0.121020
H47   H     H_    0.449724 0.676521 0.142167 0.127261
H48   H     H_    0.443711 0.331129 0.126233 0.121024
H49   H     H_    0.487274 0.398146 0.249982 0.124083
H50   H     H_    0.550296 0.676471 0.857891 0.127250
H51   H     H_    0.056257 0.831050 0.873675 0.121025
H52   H     H_    0.949717 0.176505 0.142142 0.127292
H53   H     H_    0.943775 0.830987 0.126403 0.121014
H54   H     H_    0.050280 0.176550 0.857815 0.127334
H55   H     H_    0.400157 0.726131 0.999123 0.168457
H56   H     H_    0.590633 0.241118 0.965098 0.166553
H57   H     H_    0.599868 0.726052 0.000957 0.168433
H58   H     H_    0.409330 0.241207 0.034779 0.166562
H59   H     H_    0.900151 0.226104 0.999095 0.168545
H60   H     H_    0.485884 0.591067 0.243756 0.131187
H61   H     H_    0.090618 0.741095 0.965057 0.166572
H62   H     H_    0.099849 0.226142 0.000864 0.168639
H63   H     H_    0.909434 0.741003 0.035079 0.166559
H64   H     H_    0.722267 0.272526 0.804915 0.153866
H65   H     H_    0.238163 0.620956 0.063350 0.181403
H66   H     H_    0.277803 0.272434 0.195158 0.153670
H67   H     H_    0.761899 0.620846 0.936804 0.181348
H68   H     H_    0.222300 0.772577 0.804961 0.153973
H69   H     H_    0.738158 0.120955 0.063357 0.181454
H70   H     H_    0.777695 0.772555 0.195067 0.153980
H71   H     H_    0.512720 0.398125 0.749998 0.124080
H72   H     H_    0.261764 0.121100 0.936411 0.181569
H73   H     H_    0.678677 0.571768 0.638007 0.145007
H74   H     H_    0.344474 0.378789 0.360756 0.159235
H75   H     H_    0.321322 0.571764 0.361995 0.144991
H76   H     H_    0.655516 0.378772 0.639237 0.159288
H77   H     H_    0.178680 0.071769 0.638002 0.144990
H78   H     H_    0.844482 0.878774 0.360761 0.159359
H79   H     H_    0.821323 0.071771 0.361995 0.145006
H80   H     H_    0.155537 0.878797 0.639245 0.159333
H81   H     H_    0.584781 0.576747 0.357435 0.088125
H82   H     H_    0.014114 0.091080 0.756237 0.131197
H83   H     H_    0.437219 0.380255 0.641945 0.085298
H84   H     H_    0.415217 0.576719 0.642566 0.088123
H85   H     H_    0.562762 0.380250 0.358049 0.085310
H86   H     H_    0.084778 0.076728 0.357431 0.088130
H87   H     H_    0.937235 0.880255 0.641949 0.085310
H88   H     H_    0.915220 0.076746 0.642566 0.088129
H89   H     H_    0.062784 0.880259 0.358056 0.085299
H90   H     H_    0.676984 0.285217 0.639515 0.114350
H91   H     H_    0.254783 0.605865 0.358016 0.124027
H92   H     H_    0.322961 0.285262 0.360462 0.114125
H93   H     H_    0.987281 0.898110 0.250013 0.124077
H94   H     H_    0.745178 0.606008 0.642009 0.124043
H95   H     H_    0.177054 0.785270 0.639544 0.114509
H96   H     H_    0.754827 0.106011 0.358005 0.124046
H97   H     H_    0.823006 0.785223 0.360483 0.114560
H98   H     H_    0.245209 0.105898 0.641976 0.124042
H99   H     H_    0.589420 0.289951 0.354866 0.117633
H100  H     H_    0.344761 0.602918 0.643065 0.118011
H101  H     H_    0.410574 0.289932 0.645116 0.117637
H102  H     H_    0.655259 0.602910 0.356953 0.118008
H103  H     H_    0.089462 0.789959 0.354896 0.117643
H104  H     H_    0.985881 0.091061 0.243749 0.131189
H105  H     H_    0.844741 0.102914 0.643043 0.118022
H106  H     H_    0.910556 0.789971 0.645129 0.117643
H107  H     H_    0.155234 0.102937 0.356932 0.118015
H108  H     H_    0.605973 0.216626 0.274332 0.134102
H109  H     H_    0.306726 0.641575 0.721641 0.143217
H110  H     H_    0.394047 0.216564 0.725646 0.134106
H111  H     H_    0.693318 0.641533 0.278389 0.143200
H112  H     H_    0.105974 0.716575 0.274370 0.134110
H113  H     H_    0.806686 0.141545 0.721612 0.143225
H114  H     H_    0.894018 0.716642 0.725680 0.134099
H115  H     H_    0.012722 0.898124 0.750002 0.124076
H116  H     H_    0.193275 0.141581 0.278362 0.143249
H117  H     H_    0.168153 0.647114 0.275732 0.148249
H118  H     H_    0.743431 0.209315 0.719376 0.164057
H119  H     H_    0.831808 0.647236 0.724311 0.148279
H120  H     H_    0.256519 0.209370 0.280603 0.164062
H121  H     H_    0.668191 0.147228 0.275705 0.148291
H122  H     H_    0.243495 0.709383 0.719408 0.164173
H123  H     H_    0.331850 0.147130 0.724271 0.148278
H124  H     H_    0.756570 0.709311 0.280627 0.164133
H125  H     H_    0.332746 0.692946 0.210065 0.164349
H126  H     H_    0.649839 0.296497 0.770867 0.134136
H127  H     H_    0.356244 0.678073 0.324948 0.152423
H128  H     H_    0.288617 0.668953 0.239931 0.192568
H129  H     H_    0.674495 0.491241 0.818955 0.158514
H130  H     H_    0.672262 0.482485 0.716188 0.156866
H131  H     H_    0.728743 0.460826 0.819478 0.158943
H132  H     H_    0.667255 0.692926 0.789969 0.164315
H133  H     H_    0.643788 0.678064 0.675092 0.152413
H134  H     H_    0.711409 0.668942 0.760150 0.192524
H135  H     H_    0.325488 0.491244 0.181039 0.158538
H136  H     H_    0.327744 0.482485 0.283825 0.156857
N1    N     N_R   0.532970 0.559900 0.665210 -0.064315
N2    N     N_R   0.402100 0.440070 0.454470 -0.045822
N3    N     N_R   0.402100 0.559930 0.454470 -0.045302
N4    N     N_R   0.597900 0.440070 0.545530 -0.045841
N5    N     N_R   0.097900 0.059930 0.545530 -0.045301
N6    N     N_R   0.902100 0.940070 0.454470 -0.045864
N7    N     N_R   0.902100 0.059930 0.454470 -0.045305
N8    N     N_R   0.097900 0.940070 0.545530 -0.045850
N9    N     N_R   0.567170 0.559950 0.454460 -0.039229
N10   N     N_R   0.432830 0.440050 0.545540 -0.035660
N11   N     N_R   0.432830 0.559950 0.545540 -0.039232
N12   N     N_R   0.467030 0.440100 0.334790 -0.058967
N13   N     N_R   0.567170 0.440050 0.454460 -0.035669
N14   N     N_R   0.067170 0.059950 0.454460 -0.039232
N15   N     N_R   0.932830 0.940050 0.545540 -0.035675
N16   N     N_R   0.932830 0.059950 0.545540 -0.039228
N17   N     N_R   0.067170 0.940050 0.454460 -0.035670
N18   N     N_R   0.421470 0.559970 0.334770 -0.097951
N19   N     N_R   0.578530 0.440030 0.665230 -0.103513
N20   N     N_R   0.578530 0.559970 0.665230 -0.097948
N21   N     N_R   0.421470 0.440030 0.334770 -0.103508
N22   N     N_R   0.921470 0.059970 0.334770 -0.097953
N23   N     N_R   0.467030 0.559900 0.334790 -0.064317
N24   N     N_R   0.078530 0.940030 0.665230 -0.103516
N25   N     N_R   0.078530 0.059970 0.665230 -0.097955
N26   N     N_R   0.921470 0.940030 0.334770 -0.103522
N27   N     N_R   0.532970 0.440100 0.665210 -0.058965
N28   N     N_R   0.032970 0.059900 0.665210 -0.064320
N29   N     N_R   0.967030 0.940100 0.334790 -0.058968
N30   N     N_R   0.967030 0.059900 0.334790 -0.064318
N31   N     N_R   0.032970 0.940100 0.665210 -0.058970
N32   N     N_R   0.597900 0.559930 0.545530 -0.045302
Ni1   Ni    Ni4+2 0.483030 0.500000 0.604430 0.197578
Ni2   Ni    Ni4+2 0.516970 0.500000 0.395570 0.197581
Ni3   Ni    Ni4+2 0.983030 0.000000 0.604430 0.197582
Ni4   Ni    Ni4+2 0.016970 0.000000 0.395570 0.197583
Ni5   Ni    Ni4+2 0.587400 0.500000 0.604430 0.214080
Ni6   Ni    Ni4+2 0.412600 0.500000 0.395570 0.214063
Ni7   Ni    Ni4+2 0.087400 0.000000 0.604430 0.214073
Ni8   Ni    Ni4+2 0.912600 0.000000 0.395570 0.214079
O1    O     O_3   0.336333 0.602585 0.244329 -0.673489
O2    O     O_3   0.152734 0.656165 0.041693 -0.622771
O3    O     O_3   0.178955 0.264886 0.136309 -0.634601
O4    O     O_3   0.847331 0.656048 0.958484 -0.622741
O5    O     O_3   0.320987 0.764984 0.863698 -0.634290
O6    O     O_3   0.652749 0.156181 0.041731 -0.622718
O7    O     O_3   0.679046 0.764940 0.136357 -0.634263
O8    O     O_3   0.347169 0.156334 0.958024 -0.622723
O9    O     O_3   0.666477 0.404050 0.772658 -0.671795
O10   O     O_3   0.663673 0.602568 0.755688 -0.673477
O11   O     O_3   0.333521 0.404052 0.227341 -0.671767
O12   O     O_3   0.836333 0.102585 0.244328 -0.673489
O13   O     O_3   0.166477 0.904055 0.772659 -0.671788
O14   O     O_3   0.163663 0.102600 0.755657 -0.673512
O15   O     O_3   0.833520 0.904056 0.227341 -0.671815
O16   O     O_3   0.821011 0.264919 0.863669 -0.634406

loop_
_geom_bond_atom_site_label_1
_geom_bond_atom_site_label_2
_ccdc_geom_bond_type
C7    C29   A    
C163  H47   S    
C74   C83   A    
C136  C140  A    
C106  O2    S    
C66   C85   S    
C41   C67   A    
C111  H37   S    
C49   C60   A    
N3    Ni6   S    
C122  C139  A    
C147  C164  A    
C107  H26   S    
N10   Ni1   S    
C2    C90   A    
C9    C182  A    
N29   Ni4   S    
C197  H80   S    
C11   C15   A    
C113  C122  A    
C91   H102  S    
C10   C20   A    
C45   N20   A    
C3    C158  A    
C159  H59   S    
C13   C130  A    
N16   Ni3   S    
C35   C115  A    
C117  C126  A    
C134  H114  S    
C191  H74   S    
C47   C53   A    
C194  N5    A    
C74   C123  A    
C153  C180  A    
C61   C189  A    
C148  C165  A    
C39   C65   A    
C5    C186  A    
C36   C62   A    
C103  H10   S    
C95   H107  S    
C37   C63   A    
C38   C64   A    
C154  H55   S    
C140  H120  S    
N25   N28   A    
C68   C95   A    
C115  C123  A    
C176  C185  A    
C104  H16   S    
C177  H35   S    
C16   C188  A    
N14   Ni4   S    
C129  C142  A    
C108  H28   S    
C132  C137  A    
C131  H111  S    
C34   C61   A    
C148  C174  A    
C82   C91   A    
N11   Ni1   S    
C149  C175  A    
C60   C151  S    
C75   H96   S    
C58   C153  S    
C50   N25   A    
C152  C170  A    
C109  H30   S    
C7    C188  A    
C43   C54   A    
C43   N18   A    
C107  O3    S    
C99   H136  S    
N7    N16   A    
C135  H71   S    
C127  C143  A    
C37   H84   S    
N12   N21   A    
C54   C145  S    
C62   C81   S    
C173  C182  A    
C105  H17   S    
C131  C144  A    
N22   N30   A    
C124  N23   A    
C191  N2    A    
N22   Ni8   S    
C121  C140  A    
C114  H40   S    
C65   C194  A    
C189  H73   S    
C168  N30   A    
N26   Ni8   S    
C51   O15   S    
C182  C199  A    
N24   N31   A    
C61   C82   S    
C166  H48   S    
C169  H51   S    
C112  N12   A    
N7    Ni8   S    
C80   C88   A    
C10   C16   A    
C44   C55   A    
C12   C185  A    
C98   H132  S    
C159  C167  A    
C128  C190  A    
C84   C93   A    
C86   C95   A    
C14   C21   A    
C4    C159  A    
C94   H106  S    
C168  H104  S    
C102  H8    S    
C35   C132  A    
C33   O8    S    
C97   H129  S    
C78   C87   A    
C23   H70   S    
C128  H108  S    
C109  H31   S    
C24   C131  A    
C48   N22   A    
C98   O10   S    
C112  H49   S    
C60   C179  A    
C69   C83   S    
C101  C118  A    
C70   H90   S    
C109  O5    S    
C111  O7    S    
C76   H97   S    
C154  C198  A    
C109  H32   S    
C146  N28   A    
C75   C84   A    
C151  C177  A    
C63   C192  A    
C12   C22   A    
C2    C129  A    
C155  H56   S    
N27   Ni1   S    
C68   C118  A    
C5    C27   A    
C189  N32   A    
C172  C181  A    
C6    C28   A    
N15   Ni3   S    
C105  H19   S    
N8    N17   A    
C77   C127  A    
C110  H33   S    
C89   H101  S    
N4    N13   A    
C145  C172  A    
C52   C148  S    
C53   C149  S    
C153  C171  A    
C51   N26   A    
C137  H117  S    
C63   C80   S    
C162  C171  A    
C165  H50   S    
C103  H11   S    
C134  C139  A    
C129  H109  S    
C48   O12   S    
C145  C163  A    
C45   C52   A    
C50   C56   A    
C167  H52   S    
C73   H94   S    
C90   C120  A    
C47   N21   A    
N5    N14   A    
C6    C161  A    
C5    C160  A    
C28   O3    S    
N8    Ni7   S    
C172  H2    S    
C19   C28   A    
C138  H118  S    
C97   H131  S    
C87   C190  A    
C113  C117  A    
C22   H69   S    
C114  H42   S    
C105  H18   S    
C16   C23   A    
C116  C125  A    
C44   N19   A    
C118  C127  A    
N2    Ni6   S    
C67   C196  A    
C20   H67   S    
C155  C199  A    
C48   C59   A    
C96   H128  S    
C156  H57   S    
C3    C184  A    
C193  N4    A    
C99   H3    S    
C119  C138  A    
C64   C78   S    
C11   C184  A    
C36   H83   S    
C58   C157  A    
C100  H5    S    
C102  H9    S    
C62   C191  A    
C120  C137  A    
N3    N11   A    
C183  C200  A    
C151  C169  A    
C57   C94   A    
C143  H123  S    
C17   H64   S    
C72   H92   S    
C45   O10   S    
C196  H79   S    
C107  H25   S    
C126  C144  A    
C9    C12   A    
C135  N27   A    
C37   N11   A    
C20   C29   A    
C50   O14   S    
C42   N17   A    
C175  C184  A    
C141  H121  S    
C173  H126  S    
C13   C101  A    
C25   C33   A    
C8    C181  A    
C106  H20   S    
C24   C91   A    
C72   C121  A    
C76   C126  A    
C133  H113  S    
C1    H1    S    
C31   C199  A    
C66   C195  A    
C65   C86   S    
C98   H133  S    
C193  H76   S    
C11   C19   A    
C105  O16   S    
N28   Ni3   S    
C74   H95   S    
C130  H110  S    
C106  H21   S    
C3    C33   A    
C38   N13   A    
C157  H93   S    
C196  N7    A    
C180  C188  A    
C21   H68   S    
C99   H135  S    
N4    Ni5   S    
C79   C119  A    
C160  C169  A    
C100  O12   S    
C88   H100  S    
C56   C152  S    
C128  C141  A    
C139  H119  S    
C72   C81   A    
C146  H82   S    
C99   O11   S    
N24   Ni7   S    
C81   C89   A    
C35   C92   A    
C42   H89   S    
C97   O9    S    
C133  C138  A    
C40   C66   A    
C10   C183  A    
C110  H36   S    
N18   Ni6   S    
C111  H38   S    
C26   O16   S    
C149  C166  A    
C31   O6    S    
C158  H58   S    
C6    C187  A    
C101  C121  A    
C75   C125  A    
C4    C185  A    
C104  O15   S    
N19   Ni5   S    
C178  H45   S    
C51   C58   A    
C90   C115  A    
C178  C187  A    
C32   O7    S    
C92   H103  S    
C96   H125  S    
C57   C134  A    
C17   C26   A    
N30   Ni4   S    
C73   C82   A    
C158  C166  A    
C57   C117  A    
C59   C150  S    
C176  H43   S    
C54   C124  A    
C98   H134  S    
C104  H15   S    
C174  C183  A    
C18   H65   S    
C4    C26   A    
C147  C173  A    
C192  N3    A    
C108  H27   S    
C21   C30   A    
C40   H87   S    
C46   C116  A    
C23   C32   A    
C32   C200  A    
C46   C133  A    
C100  H4    S    
C156  C165  A    
C108  O4    S    
C150  C167  A    
C123  C142  A    
N13   Ni2   S    
C56   C146  A    
C1    C52   A    
C8    C18   A    
C15   C25   A    
N6    N15   A    
C177  C186  A    
C124  H60   S    
C73   C122  A    
C34   H81   S    
C195  N6    A    
N20   Ni5   S    
C59   C168  A    
C110  H34   S    
C47   O11   S    
C77   H98   S    
N26   N29   A    
C150  C176  A    
C39   N14   A    
C70   C78   A    
C114  O8    S    
C136  H116  S    
C83   C92   A    
C197  N8    A    
N9    N32   A    
C71   C120  A    
C110  O6    S    
N21   Ni6   S    
C175  H13   S    
C192  H75   S    
N32   Ni5   S    
C14   C186  A    
C40   N15   A    
N18   N23   A    
N6    Ni8   S    
C36   N10   A    
N5    Ni7   S    
C49   O13   S    
C161  H62   S    
C79   C190  A    
C96   H127  S    
C2    C88   A    
C41   H88   S    
C164  H46   S    
C102  H7    S    
C97   H130  S    
C34   N9    A    
C24   C113  A    
C79   C116  A    
C195  H78   S    
C69   C197  A    
C156  C200  A    
C71   H91   S    
C181  C198  A    
C157  N29   A    
C71   C80   A    
C107  H23   S    
C108  H29   S    
C180  H44   S    
C39   H86   S    
C7    C162  A    
C22   C31   A    
C170  H54   S    
C154  C163  A    
C68   C136  A    
N23   Ni2   S    
C174  H24   S    
C125  C141  A    
C100  H6    S    
C76   C85   A    
C15   C187  A    
C42   C69   A    
C111  H39   S    
C144  H124  S    
C85   C94   A    
C55   C147  S    
C70   C119  A    
C64   C193  A    
C171  H53   S    
C49   N24   A    
C132  H112  S    
N17   Ni4   S    
C130  C143  A    
C96   O1    S    
C161  C170  A    
C53   C112  A    
C9    C17   A    
C103  O14   S    
C77   C86   A    
C19   H66   S    
C160  H61   S    
C41   N16   A    
C1    N1    A    
C29   O4    S    
C93   H105  S    
N9    Ni2   S    
C8    C14   A    
C13   C89   A    
C18   C27   A    
C103  H12   S    
N31   Ni3   S    
N1    N20   A    
C155  C164  A    
N19   N27   A    
C43   O1    S    
N2    N10   A    
C87   H99   S    
C142  H122  S    
C30   O5    S    
C104  H14   S    
C30   C198  A    
C106  H22   S    
C46   C93   A    
N12   Ni2   S    
C162  H63   S    
C55   C135  A    
C27   O2    S    
C152  C178  A    
C102  O13   S    
C25   H72   S    
C179  H115  S    
C67   C84   S    
C114  H41   S    
C194  H77   S    
N1    Ni1   S    
N25   Ni7   S    
C179  N31   A    
C44   O9    S    
C38   H85   S    
