data_mof_unit_18965.cif
_audit_creation_date              2012-10-26T20:02:31-0400
_audit_creation_method            fapswitch 2.2
_symmetry_space_group_name_H-M    P1
_symmetry_Int_Tables_number       1
_space_group_crystal_system       triclinic
_cell_length_a                    18.662445
_cell_length_b                    18.808858
_cell_length_c                    12.433549
_cell_angle_alpha                 90.016156
_cell_angle_beta                  130.17855
_cell_angle_gamma                 90.415857
_cell_volume                      3334.41930458

loop_
_atom_site_label
_atom_site_type_symbol
_atom_type_description
_atom_site_fract_x
_atom_site_fract_y
_atom_site_fract_z
_atom_type_partial_charge
C1    C     C_R   0.613468 0.899417 0.653757 0.543851
C2    C     C_R   0.678560 0.745731 0.042584 0.030927
C3    C     C_1   0.159399 0.500275 0.912813 0.292003
C4    C     C_1   0.414755 0.793291 0.203797 0.225269
C5    C     C_1   0.414512 0.202681 0.195484 0.203820
C6    C     C_1   0.913611 0.296167 0.196822 0.202661
C7    C     C_1   0.906684 0.677738 0.160691 0.233780
C8    C     C_R   0.160302 0.768626 0.020067 0.030400
C9    C     C_R   0.165807 0.236360 0.031565 0.025466
C10   C     C_R   0.582300 0.230303 0.910918 -0.129962
C11   C     C_R   0.596462 0.770871 0.916756 -0.126939
C12   C     C_R   0.080012 0.734974 0.902682 -0.131809
C13   C     C_R   0.086011 0.271154 0.918146 -0.131495
C14   C     C_R   0.580353 0.202174 0.806179 -0.113360
C15   C     C_R   0.597863 0.796325 0.813612 -0.112709
C16   C     C_R   0.080604 0.704447 0.801977 -0.115679
C17   C     C_R   0.608380 0.104563 0.647108 0.553613
C18   C     C_R   0.083293 0.299362 0.812801 -0.114199
C19   C     C_R   0.322122 0.808244 0.156769 -0.015271
C20   C     C_R   0.323039 0.191108 0.155685 -0.036298
C21   C     C_R   0.822002 0.308653 0.155364 -0.036127
C22   C     C_R   0.833551 0.697089 0.165907 -0.028725
C23   C     C_R   0.240250 0.825412 0.246853 -0.022023
C24   C     C_R   0.248245 0.179797 0.258233 -0.020817
C25   C     C_R   0.745550 0.320458 0.255030 -0.020815
C26   C     C_R   0.753286 0.683674 0.261138 -0.026092
C27   C     C_R   0.665691 0.169164 0.722609 0.007555
C28   C     C_R   0.108692 0.395840 0.647870 0.554809
C29   C     C_R   0.688690 0.850586 0.753499 0.014357
C30   C     C_R   0.169720 0.666787 0.727321 0.002003
C31   C     C_R   0.166245 0.332065 0.724460 0.007601
C32   C     C_R   0.680098 0.956369 0.292413 -0.134549
C33   C     C_R   0.178163 0.548593 0.290118 -0.133260
C34   C     C_R   0.340035 0.003528 0.624551 0.138517
C35   C     C_R   0.839925 0.495139 0.623996 0.138502
C36   C     C_R   0.303752 0.999985 0.692804 -0.140396
C37   C     C_R   0.803341 0.496165 0.691994 -0.140632
C38   C     C_R   0.387406 0.102079 0.347208 0.545489
C39   C     C_R   0.110403 0.603404 0.649736 0.542219
C40   C     C_R   0.386494 0.898239 0.346403 0.549621
C41   C     C_R   0.888400 0.602502 0.347958 0.545381
C42   C     C_R   0.887104 0.397806 0.347100 0.547217
C43   C     C_R   0.361930 0.992733 0.837823 -0.034967
C44   C     C_R   0.861260 0.502906 0.837272 -0.032227
C45   C     C_R   0.460931 0.992263 0.920431 -0.041854
C46   C     C_R   0.960171 0.506077 0.919919 -0.037186
C47   C     C_R   0.497128 0.992459 0.846377 0.121745
C48   C     C_R   0.996445 0.507881 0.846040 0.118883
C49   C     C_R   0.525277 0.988544 0.073023 -0.025636
C50   C     C_R   0.240416 0.777906 0.030914 0.042279
C51   C     C_R   0.024539 0.511095 0.072414 -0.012066
C52   C     C_R   0.617425 0.963961 0.144758 0.006915
C53   C     C_R   0.115326 0.539738 0.142758 0.013608
C54   C     C_R   0.648586 0.951961 0.070594 -0.055874
C55   C     C_R   0.144708 0.554811 0.066808 -0.056539
C56   C     C_R   0.596990 0.978910 0.933409 -0.005067
C57   C     C_R   0.095263 0.524892 0.932125 -0.006376
C58   C     C_R   0.503181 0.008742 0.159265 0.068358
C59   C     C_R   0.003473 0.489298 0.159431 0.082893
C60   C     C_R   0.653176 0.975117 0.368578 0.056415
C61   C     C_R   0.241802 0.223676 0.034032 0.020962
C62   C     C_R   0.152351 0.527955 0.367352 0.054986
C63   C     C_R   0.667622 0.283916 0.139737 -0.126054
C64   C     C_R   0.677202 0.720814 0.146801 -0.124144
C65   C     C_R   0.162263 0.789920 0.129601 -0.128924
C66   C     C_R   0.171242 0.216835 0.145050 -0.127304
C67   C     C_R   0.316909 0.841636 0.253134 -0.025232
C68   C     C_R   0.320033 0.159552 0.256059 -0.027215
C69   C     C_R   0.818853 0.340158 0.255342 -0.027734
C70   C     C_R   0.826099 0.662984 0.261169 -0.027547
C71   C     C_R   0.732615 0.190336 0.710660 -0.107362
C72   C     C_R   0.740025 0.277221 0.031591 0.021478
C73   C     C_R   0.774427 0.859893 0.782767 -0.105431
C74   C     C_R   0.239842 0.684930 0.720524 -0.112003
C75   C     C_R   0.231980 0.311053 0.710541 -0.107165
C76   C     C_R   0.302632 0.740050 0.802984 -0.121465
C77   C     C_R   0.292516 0.255204 0.789799 -0.121909
C78   C     C_R   0.793712 0.246646 0.791166 -0.121872
C79   C     C_R   0.856993 0.838644 0.911027 -0.127234
C80   C     C_R   0.301806 0.773325 0.902153 -0.092269
C81   C     C_R   0.294323 0.223785 0.892875 -0.102383
C82   C     C_R   0.794821 0.278091 0.893620 -0.101827
C83   C     C_R   0.762384 0.743731 0.062858 0.035011
C84   C     C_R   0.854112 0.805482 0.007867 -0.083799
C85   C     C_R   0.733312 0.254182 0.915909 0.040907
C86   C     C_R   0.767784 0.784225 0.971369 0.050077
C87   C     C_R   0.236539 0.752648 0.918968 0.049860
C88   C     C_R   0.234448 0.247420 0.917915 0.040707
C89   C     C_R   0.659232 0.207529 0.814477 0.030155
C90   C     C_R   0.683888 0.809340 0.843804 0.025328
C91   C     C_R   0.161746 0.706970 0.815766 0.027338
C92   C     C_R   0.160924 0.294097 0.818240 0.031739
C93   C     C_1   0.243039 0.836866 0.364267 0.231452
C94   C     C_R   0.662725 0.264721 0.026548 0.025295
C95   C     C_1   0.256156 0.171393 0.380906 0.237685
C96   C     C_1   0.752585 0.328880 0.376936 0.237431
C97   C     C_1   0.753695 0.668413 0.375283 0.240013
C98   C     C_1   0.741909 0.922199 0.143887 0.195722
C99   C     C_1   0.233708 0.591971 0.134439 0.196319
C100  C     C_1   0.273603 0.004772 0.473150 0.311054
C101  C     C_1   0.773690 0.495262 0.472531 0.312087
C102  C     C_1   0.314987 0.974818 0.891971 0.161731
C103  C     C_1   0.814070 0.518175 0.891767 0.185175
C104  C     C_1   0.660048 0.002428 0.910634 0.293915
Cu1   Cu    Cu3+1 0.526340 0.000000 0.421010 0.984504
Cu2   Cu    Cu3+1 0.026340 0.500000 0.421010 0.989487
Cu3   Cu    Cu3+1 0.473640 1.000000 0.578990 0.977472
Cu4   Cu    Cu3+1 0.973640 0.500000 0.578990 0.976216
H1    H     H_    0.750910 0.937250 0.351137 0.120654
H2    H     H_    0.236206 0.337375 0.637304 0.147119
H3    H     H_    0.350627 0.816821 0.961273 0.139646
H4    H     H_    0.340496 0.179187 0.948177 0.124448
H5    H     H_    0.841978 0.322690 0.951078 0.121774
H6    H     H_    0.920242 0.799922 0.113111 0.137145
H7    H     H_    0.515077 0.178145 0.717027 0.154991
H8    H     H_    0.531125 0.808636 0.712466 0.145801
H9    H     H_    0.015625 0.680709 0.711578 0.156421
H10   H     H_    0.018019 0.323009 0.725106 0.154591
H11   H     H_    0.701129 0.967976 0.481371 0.123267
H12   H     H_    0.248134 0.570323 0.347424 0.117944
H13   H     H_    0.200390 0.536474 0.479965 0.125261
H14   H     H_    0.437437 0.032855 0.115684 0.143501
H15   H     H_    0.938495 0.462967 0.116269 0.136568
H16   H     H_    0.228153 0.999491 0.630676 0.128782
H17   H     H_    0.727717 0.495199 0.629575 0.128328
H18   H     H_    0.521514 0.223103 0.903450 0.110788
H19   H     H_    0.530363 0.767981 0.895664 0.109969
H20   H     H_    0.017372 0.729998 0.891024 0.124632
H21   H     H_    0.026097 0.278322 0.912604 0.109709
H22   H     H_    0.353951 0.755770 0.792851 0.124483
H23   H     H_    0.610731 0.269683 0.138816 0.139122
H24   H     H_    0.339931 0.237219 0.773601 0.131888
H25   H     H_    0.842299 0.264733 0.776911 0.130255
H26   H     H_    0.923807 0.852165 0.939298 0.123292
H27   H     H_    0.616325 0.729834 0.138318 0.135494
H28   H     H_    0.102942 0.778210 0.124228 0.122184
H29   H     H_    0.115471 0.231288 0.146121 0.138215
H30   H     H_    0.737538 0.163645 0.638473 0.145944
H31   H     H_    0.779111 0.891111 0.714260 0.125512
H32   H     H_    0.246085 0.656690 0.651022 0.131808
N1    N     N_R   0.566260 0.000000 0.302220 -0.234342
N2    N     N_1   0.304318 0.621234 0.188067 -0.283773
N3    N     N_1   0.219058 0.005505 0.351330 -0.285422
N4    N     N_1   0.719351 0.495667 0.350689 -0.277957
N5    N     N_1   0.276730 0.960279 0.934183 -0.301467
N6    N     N_1   0.775617 0.530646 0.934256 -0.284096
N7    N     N_1   0.717171 0.018836 0.904189 -0.286619
N8    N     N_1   0.216850 0.483003 0.908198 -0.280589
N9    N     N_1   0.488751 0.781343 0.242056 -0.284057
N10   N     N_1   0.487646 0.211989 0.228053 -0.300397
N11   N     N_1   0.986802 0.286144 0.230645 -0.301746
N12   N     N_R   0.066260 0.500000 0.302220 -0.230813
N13   N     N_1   0.964713 0.662405 0.156172 -0.293770
N14   N     N_R   0.434410 1.000000 0.697680 -0.257740
N15   N     N_R   0.934410 0.500000 0.697680 -0.259281
N16   N     N_1   0.244987 0.844441 0.458511 -0.310773
N17   N     N_1   0.262378 0.166203 0.479410 -0.316514
N18   N     N_1   0.758045 0.334051 0.474782 -0.315722
N19   N     N_1   0.753833 0.657570 0.467035 -0.289205
N20   N     N_1   0.816102 0.899299 0.202804 -0.297519
O1    O     O_R   0.608610 0.924520 0.551740 -0.508418
O2    O     O_R   0.435880 0.924530 0.314850 -0.476906
O3    O     O_R   0.935880 0.575470 0.314850 -0.472811
O4    O     O_R   0.935880 0.424530 0.314850 -0.494686
O5    O     O_R   0.391380 0.075460 0.448260 -0.499599
O6    O     O_R   0.391380 0.924540 0.448260 -0.494229
O7    O     O_R   0.891380 0.575460 0.448260 -0.497659
O8    O     O_R   0.891380 0.424540 0.448260 -0.499049
O9    O     O_R   0.608610 0.075480 0.551740 -0.498654
O10   O     O_R   0.108610 0.424520 0.551740 -0.496760
O11   O     O_R   0.108610 0.575480 0.551740 -0.512124
O12   O     O_R   0.564110 0.924510 0.685150 -0.513149
O13   O     O_R   0.564110 0.075490 0.685150 -0.508978
O14   O     O_R   0.064110 0.424510 0.685150 -0.508653
O15   O     O_R   0.064110 0.575490 0.685150 -0.513608
O16   O     O_R   0.435880 0.075470 0.314850 -0.494887

loop_
_geom_bond_atom_site_label_1
_geom_bond_atom_site_label_2
_ccdc_geom_bond_type
C38   O5    A    
C96   N18   T    
Cu3   O5    S    
C87   C91   A    
Cu2   O11   S    
C99   N2    T    
C19   C50   A    
C72   C85   A    
C48   C57   A    
C5    C20   S    
C59   N12   A    
C4    N9    T    
Cu1   Cu3   S    
C63   C94   A    
C62   N12   A    
C13   C18   A    
C9    C61   A    
C97   N19   T    
C36   H16   S    
C84   C86   A    
C80   C87   A    
C102  N5    T    
Cu1   N1    S    
C79   C84   A    
C30   C74   A    
C101  N4    T    
C42   O4    A    
C29   C73   A    
C10   C94   A    
C14   H7    S    
Cu4   O15   S    
C9    C13   A    
C60   H11   S    
C25   C63   A    
C5    N10   T    
C23   C67   A    
C20   C61   A    
C26   C64   A    
C9    C66   A    
C32   C52   A    
C39   O11   A    
C17   O13   A    
C4    C19   S    
C11   C15   A    
Cu1   O2    S    
C12   C16   A    
C2    C64   A    
C33   C62   A    
C41   C70   S    
C40   C67   S    
Cu4   O14   S    
C34   C100  S    
C19   C67   A    
Cu2   O4    S    
C18   H10   S    
C40   O6    A    
C93   N16   T    
C24   C66   A    
C72   C94   A    
C45   C47   A    
Cu4   O8    S    
C64   H27   S    
C1    O1    A    
C3    N8    T    
C59   H15   S    
Cu2   O10   S    
C104  N7    T    
C2    C83   A    
C76   H22   S    
C2    C11   A    
C29   C90   A    
C44   C103  S    
C52   C54   A    
C71   H30   S    
C37   H17   S    
Cu3   O12   S    
C34   N14   A    
C33   C53   A    
C54   C56   A    
C58   H14   S    
Cu2   N12   S    
C32   H1    S    
C21   C72   A    
C65   H28   S    
C88   C92   A    
C56   C104  S    
C39   O15   A    
C10   C14   A    
C24   C95   S    
C85   C89   A    
Cu3   N14   S    
C44   C46   A    
C6    C21   S    
C74   H32   S    
C46   C51   A    
Cu1   O16   S    
C42   C69   S    
C49   C58   A    
C23   C93   S    
C21   C69   A    
C51   C53   A    
C77   H24   S    
C17   C27   S    
C11   H19   S    
C14   C89   A    
C40   O2    A    
C20   C68   A    
C61   C88   A    
C60   N1    A    
C43   C45   A    
C78   C82   A    
C38   O16   A    
C7    N13   T    
C81   H4    S    
C45   C49   A    
C8    C12   A    
C49   C52   A    
C1    C29   S    
C73   C79   A    
C73   H31   S    
Cu2   O3    S    
C75   C77   A    
Cu1   O9    S    
C50   C87   A    
C33   H12   S    
C6    N11   T    
C3    C57   S    
C28   O10   A    
Cu4   O7    S    
C98   N20   T    
C31   C92   A    
C63   H23   S    
C55   C57   A    
C17   O9    A    
C86   C90   A    
C26   C70   A    
Cu1   O1    S    
C42   O8    A    
C25   C69   A    
C74   C76   A    
C53   C55   A    
C82   C85   A    
C8    C50   A    
C31   C75   A    
C27   C71   A    
C79   H26   S    
C75   H2    S    
C84   H6    S    
C35   C37   A    
C95   N17   T    
C48   N15   A    
C28   C31   S    
C76   C80   A    
C82   H5    S    
C38   C68   S    
C30   C91   A    
C35   C101  S    
C100  N3    T    
C12   H20   S    
C47   N14   A    
C7    C22   S    
Cu3   O13   S    
C1    O12   A    
C36   C43   A    
C18   C92   A    
C22   C83   A    
C23   C65   A    
C37   C44   A    
C41   O3    A    
C43   C102  S    
C16   H9    S    
C15   C90   A    
C58   N1    A    
C28   O14   A    
Cu4   N15   S    
Cu2   Cu4   S    
C41   O7    A    
C80   H3    S    
C30   C39   S    
C27   C89   A    
C34   C36   A    
C71   C78   A    
C78   H25   S    
Cu3   O6    S    
C81   C88   A    
C24   C68   A    
C26   C97   S    
C46   C48   A    
C16   C91   A    
C8    C65   A    
C83   C86   A    
C51   C59   A    
C25   C96   S    
C77   C81   A    
C55   C99   S    
C32   C60   A    
C15   H8    S    
C54   C98   S    
C66   H29   S    
C10   H18   S    
C22   C70   A    
C62   H13   S    
C13   H21   S    
C35   N15   A    
C103  N6    T    
C47   C56   A    
