data_mof_unit_66614.cif
_audit_creation_date              2013-03-05T15:40:17-0500
_audit_creation_method            fapswitch 2.2
_symmetry_space_group_name_H-M    P1
_symmetry_Int_Tables_number       1
_space_group_crystal_system       triclinic
_cell_length_a                    10.930236
_cell_length_b                    8.815156
_cell_length_c                    7.61585
_cell_angle_alpha                 102.746795
_cell_angle_beta                  93.791915
_cell_angle_gamma                 95.31503
_cell_volume                      709.80124946

loop_
_atom_site_label
_atom_site_type_symbol
_atom_site_description
_atom_site_fract_x
_atom_site_fract_y
_atom_site_fract_z
_atom_type_partial_charge
O1    O     O_R   0.509050 0.286130 0.619770 -0.544647
O2    O     O_R   0.485540 0.256780 0.308360 -0.599342
C1    C     C_R   0.495737 0.201317 0.454896 0.755684
O3    O     O_R   0.331410 0.514680 0.655740 -0.534093
O4    O     O_R   0.307900 0.485330 0.344330 -0.602524
C2    C     C_R   0.263267 0.503833 0.503616 0.848075
Cu1   Cu    Cu3+1 0.513920 0.517380 0.684380 1.095560
Cu2   Cu    Cu3+1 0.486080 0.482620 0.315620 1.045804
O5    O     O_R   0.514460 0.743220 0.691640 -0.533303
O6    O     O_R   0.490950 0.713870 0.380230 -0.528437
O7    O     O_R   0.692100 0.514670 0.655670 -0.551765
O8    O     O_R   0.668590 0.485320 0.344260 -0.530496
C3    C     C_R   0.511418 0.800003 0.545904 0.934811
C4    C     C_R   0.736780 0.500733 0.496861 0.899746
H1    H     H_    0.092991 0.342358 0.252871 0.171312
C5    C     C_R   0.141773 0.701998 0.812517 0.455168
C6    C     C_R   0.076226 0.771753 0.957080 -0.150779
C7    C     C_R   0.957260 0.804363 0.917807 -0.315155
H2    H     H_    0.913733 0.886940 0.013836 0.197812
C8    C     C_R   0.899096 0.740256 0.746641 0.581976
C9    C     C_R   0.946858 0.614377 0.633846 -0.156367
C10   C     C_R   0.075030 0.605286 0.653885 -0.090065
C11   C     C_R   0.129519 0.510522 0.509511 -0.114031
C12   C     C_R   0.053444 0.417771 0.361744 -0.252539
C13   C     C_R   0.925497 0.412195 0.356052 0.488096
C14   C     C_R   0.871403 0.511663 0.492172 -0.156024
C15   C     C_2   0.483512 0.033622 0.436950 0.162509
C16   C     C_2   0.534908 0.969137 0.565604 -0.340151
N1    N     N_2   0.465100 0.456430 0.038520 0.073045
N2    N     N_2   0.534900 0.543570 0.961480 -0.131128
C17   C     C_2   0.629053 0.668537 0.043018 0.964244
O9    O     O_2   0.674838 0.746460 0.945897 -0.578642
O10   O     O_R   0.674617 0.706212 0.221967 -0.755364
H3    H     H_    0.746549 0.791096 0.247174 0.284619
O11   O     O_3   0.260132 0.768533 0.807768 -0.583982
C18   C     C_3   0.253711 0.892315 0.717645 -0.351611
H4    H     H_    0.175223 0.962330 0.752887 0.137110
H5    H     H_    0.247565 0.845710 0.569222 0.210770
H6    H     H_    0.338519 0.974739 0.757771 0.206680
C19   C     C_2   0.135389 0.828285 0.141419 0.911489
O12   O     O_2   0.196556 0.742385 0.207491 -0.573794
O13   O     O_R   0.115548 0.974956 0.243615 -0.812753
H7    H     H_    0.158088 0.998865 0.370437 0.323071
O14   O     O_3   0.811397 0.818534 0.676689 -0.552027
C20   C     C_3   0.873795 0.918040 0.581147 -0.331764
H8    H     H_    0.932445 0.855525 0.480814 0.151580
H9    H     H_    0.930233 0.017918 0.676156 0.194300
H10   H     H_    0.804944 0.965477 0.502580 0.185543
O15   O     O_3   0.854476 0.309574 0.214821 -0.555048
C21   C     C_3   0.830367 0.165869 0.265162 -0.354903
H11   H     H_    0.761220 0.175293 0.366318 0.159821
H12   H     H_    0.915620 0.124176 0.317256 0.185201
H13   H     H_    0.791012 0.075371 0.144964 0.209848
O16   O     O_3   0.396461 0.944675 0.306575 -0.592162
C22   C     C_3   0.442133 0.928257 0.136499 -0.031102
H14   H     H_    0.544565 0.946276 0.143094 0.148666
H15   H     H_    0.400591 0.009929 0.064768 0.200656
H16   H     H_    0.413917 0.807274 0.059135 0.215048
C23   C     C_2   0.617290 0.063715 0.723042 0.945851
O17   O     O_2   0.703719 0.154201 0.701189 -0.616946
O18   O     O_R   0.587958 0.061497 0.896618 -0.762936
H17   H     H_    0.634441 0.151631 0.990187 0.357424
O19   O     O_3   0.400258 0.334542 0.920500 -0.466729
C24   C     C_3   0.283113 0.311135 0.980435 -0.105378
H18   H     H_    0.240612 0.422646 0.016083 0.178789
H19   H     H_    0.287010 0.249793 0.092751 0.173670
H20   H     H_    0.221886 0.234777 0.867451 0.102006

loop_
_geom_bond_atom_site_label_1
_geom_bond_atom_site_label_2
_geom_bond_distance
_ccdc_geom_bond_type
C6    C7    1.385168 A    
O4    Cu2   1.975844 S    
C21   H12   1.113415 S    
C9    C14   1.406071 A    
N1    O19   1.346530 S    
C3    C16   1.461713 S    
C19   O12   1.221069 D    
N1    N2    1.290692 D    
O11   C18   1.415965 S    
Cu2   O8    1.989735 S    
C24   H18   1.113232 S    
O18   H17   1.012285 S    
C22   H14   1.112374 S    
C18   H5    1.109475 S    
O2    C1    1.315802 A    
O8    C4    1.312111 A    
C15   O16   1.378137 S    
C23   O17   1.223178 D    
Cu1   N2    2.066556 S    
O1    Cu1   1.983496 S    
C20   H8    1.114869 S    
C4    C14   1.469002 S    
Cu1   O7    1.975845 S    
O4    C2    1.319813 A    
C18   H4    1.115531 S    
O3    Cu1   1.989733 S    
Cu2   N1    2.066556 S    
C19   O13   1.398095 S    
H1    C12   1.083367 S    
C8    O14   1.376971 S    
O10   H3    1.011218 S    
O6    C3    1.314151 A    
C21   H11   1.109967 S    
C7    C8    1.386211 A    
C1    C15   1.446934 S    
C22   H15   1.106459 S    
C5    O11   1.376200 S    
N2    C17   1.435899 S    
O7    C4    1.319116 A    
C13   O15   1.381286 S    
C12   C13   1.392252 A    
C16   C23   1.490148 S    
C21   H13   1.105213 S    
C23   O18   1.384549 S    
O13   H7    1.012975 S    
C2    C11   1.471782 S    
C11   C12   1.403784 A    
O3    C2    1.315265 A    
O19   C24   1.400124 S    
C24   H20   1.107307 S    
Cu1   Cu2   2.750210 S    
C8    C9    1.409883 A    
Cu2   O6    1.983494 S    
O15   C21   1.409606 S    
C20   H9    1.112876 S    
C15   C16   1.353100 D    
Cu1   O5    1.978797 S    
C22   H16   1.103354 S    
O16   C22   1.401451 S    
C7    H2    1.079972 S    
C17   O10   1.376786 S    
O5    C3    1.314123 A    
C20   H10   1.099270 S    
C13   C14   1.403244 A    
C9    C10   1.410775 A    
C18   H6    1.104695 S    
C10   C11   1.426527 A    
O2    Cu2   1.978799 S    
O14   C20   1.414379 S    
C17   O9    1.216079 D    
C5    C10   1.425572 A    
C5    C6    1.410938 A    
O1    C1    1.303154 A    
C6    C19   1.465928 S    
C24   H19   1.108803 S    
