data_mof_unit_13172.cif
_audit_creation_date              2012-12-11T14:28:27-0500
_audit_creation_method            fapswitch 2.2
_symmetry_space_group_name_H-M    P1
_symmetry_Int_Tables_number       1
_space_group_crystal_system       triclinic
_cell_length_a                    11.040249
_cell_length_b                    19.102852
_cell_length_c                    18.428061
_cell_angle_alpha                 89.949713
_cell_angle_beta                  89.174486
_cell_angle_gamma                 89.916881
_cell_volume                      3886.07363355

loop_
_atom_site_label
_atom_site_type_symbol
_atom_type_description
_atom_site_fract_x
_atom_site_fract_y
_atom_site_fract_z
_atom_type_partial_charge
C1    C     C_R   0.321903 0.969860 0.646582 0.524360
C2    C     C_3   0.213126 0.766381 0.048169 -0.150630
C3    C     C_3   0.086926 0.181139 0.965060 -0.120005
C4    C     C_3   0.562417 0.316570 0.470004 -0.119577
C5    C     C_3   0.529519 0.302418 0.019425 -0.112157
C6    C     C_3   0.521805 0.701250 0.519486 -0.112819
C7    C     C_3   0.586901 0.681141 0.965065 -0.120005
C8    C     C_3   0.194459 0.809009 0.496652 -0.135001
C9    C     C_3   0.160421 0.820189 0.994252 -0.131787
C10   C     C_3   0.148818 0.176648 0.492981 -0.128600
C11   C     C_3   0.212226 0.201033 0.995883 -0.141968
C12   C     C_3   0.694459 0.309009 0.496652 -0.135001
C13   C     C_3   0.211083 0.225459 0.548139 -0.148312
C14   C     C_3   0.660431 0.320188 0.994256 -0.131792
C15   C     C_3   0.648818 0.676648 0.492981 -0.128599
C16   C     C_3   0.712212 0.701022 0.995883 -0.141964
C17   C     C_3   0.146607 0.765020 0.560572 0.060298
C18   C     C_3   0.151631 0.762651 0.938143 0.057271
C19   C     C_3   0.149593 0.236353 0.438505 0.056420
C20   C     C_3   0.146846 0.235706 0.060504 0.059887
C21   C     C_3   0.646606 0.265020 0.560572 0.060299
C22   C     C_3   0.651630 0.262653 0.938144 0.057270
C23   C     C_3   0.649593 0.736353 0.438505 0.056420
C24   C     C_3   0.207997 0.272190 0.955633 -0.134377
C25   C     C_3   0.646850 0.735706 0.060504 0.059888
C26   C     C_3   0.015900 0.773199 0.535427 -0.117292
C27   C     C_3   0.022897 0.744709 0.961778 -0.124298
C28   C     C_3   0.024193 0.260521 0.463229 -0.130631
C29   C     C_3   0.022640 0.215398 0.031069 -0.112551
C30   C     C_3   0.515900 0.273200 0.535427 -0.117292
C31   C     C_3   0.522895 0.244717 0.961781 -0.124299
C32   C     C_3   0.524194 0.760521 0.463229 -0.130631
C33   C     C_3   0.522633 0.715411 0.031074 -0.112556
C34   C     C_3   0.031091 0.705121 0.491474 -0.108638
C35   C     C_3   0.709546 0.240535 0.452550 -0.143295
C36   C     C_3   0.074742 0.691404 0.015061 -0.104119
C37   C     C_3   0.084813 0.308772 0.517718 -0.106845
C38   C     C_3   0.019000 0.286203 0.990889 -0.108222
C39   C     C_3   0.531090 0.205121 0.491474 -0.108637
C40   C     C_3   0.574734 0.191407 0.015060 -0.104119
C41   C     C_3   0.584814 0.808772 0.517718 -0.106845
C42   C     C_3   0.519014 0.786214 0.990891 -0.108220
C43   C     C_3   0.161910 0.697009 0.517331 -0.105458
C44   C     C_3   0.205323 0.708623 0.990128 -0.108736
C45   C     C_3   0.212010 0.285340 0.491900 -0.113664
C46   C     C_3   0.713130 0.266375 0.048169 -0.150635
C47   C     C_3   0.143197 0.306495 0.021082 -0.106473
C48   C     C_3   0.661908 0.197009 0.517332 -0.105460
C49   C     C_3   0.705317 0.208620 0.990126 -0.108733
C50   C     C_3   0.712010 0.785340 0.491900 -0.113665
C51   C     C_3   0.643222 0.806493 0.021079 -0.106472
C52   C     C_3   0.881624 0.022323 0.655687 -0.295229
C53   C     C_3   0.875518 0.948129 0.872332 -0.323715
C54   C     C_3   0.860865 0.076030 0.400008 -0.301491
C55   C     C_3   0.875278 0.921455 0.154550 -0.286287
C56   C     C_3   0.381622 0.522326 0.655686 -0.295230
C57   C     C_3   0.711083 0.725459 0.548139 -0.148312
C58   C     C_3   0.375515 0.448138 0.872333 -0.323707
C59   C     C_3   0.360869 0.576028 0.400002 -0.301492
C60   C     C_3   0.375271 0.421459 0.154543 -0.286321
C61   C     C_3   0.708004 0.772177 0.955629 -0.134384
C62   C     C_3   0.079493 0.748597 0.427432 0.056619
C63   C     C_3   0.083507 0.749154 0.072262 0.051939
C64   C     C_3   0.085235 0.249451 0.573246 0.053300
C65   C     C_R   0.318012 0.969784 0.853341 0.522113
C66   C     C_3   0.084272 0.251614 0.926254 0.058829
C67   C     C_3   0.579493 0.248597 0.427432 0.056620
C68   C     C_3   0.583509 0.249153 0.072263 0.051941
C69   C     C_3   0.585235 0.749451 0.573246 0.053300
C70   C     C_3   0.584269 0.751614 0.926255 0.058827
C71   C     C_R   0.322127 0.993030 0.423333 -0.036942
C72   C     C_R   0.333563 0.994159 0.076487 -0.034723
C73   C     C_R   0.334006 0.003938 0.574901 -0.037646
C74   C     C_R   0.317969 0.003737 0.925164 -0.035348
C75   C     C_R   0.822127 0.493029 0.423333 -0.036942
C76   C     C_R   0.318922 0.029490 0.352751 0.521484
C77   C     C_R   0.833566 0.494161 0.076485 -0.034725
C78   C     C_R   0.834005 0.503938 0.574900 -0.037646
C79   C     C_R   0.817970 0.503739 0.925162 -0.035349
C80   C     C_R   0.534184 0.962375 0.416278 -0.090193
C81   C     C_R   0.556729 0.006148 0.064145 -0.097545
C82   C     C_R   0.558828 0.993409 0.563396 -0.103766
C83   C     C_R   0.531514 0.035683 0.916914 -0.089632
C84   C     C_R   0.034183 0.462375 0.416278 -0.090194
C85   C     C_R   0.056731 0.506150 0.064142 -0.097558
C86   C     C_R   0.058828 0.493409 0.563396 -0.103765
C87   C     C_R   0.321889 0.029896 0.147044 0.523872
C88   C     C_R   0.031515 0.535685 0.916912 -0.089632
C89   C     C_R   0.643624 0.951745 0.449577 -0.107257
C90   C     C_R   0.655454 0.028958 0.022695 -0.135326
C91   C     C_R   0.657566 0.969062 0.522360 -0.130156
C92   C     C_R   0.642863 0.043883 0.949295 -0.120191
C93   C     C_R   0.143623 0.451744 0.449577 -0.107260
C94   C     C_R   0.155456 0.528957 0.022691 -0.135334
C95   C     C_R   0.157565 0.469062 0.522360 -0.130156
C96   C     C_R   0.142865 0.543884 0.949291 -0.120187
C97   C     C_R   0.442316 0.995423 0.532730 -0.002625
C98   C     C_R   0.821903 0.469860 0.646582 0.524359
C99   C     C_R   0.429934 0.013906 0.958174 0.001559
C100  C     C_R   0.433422 0.985118 0.456962 0.002475
C101  C     C_R   0.440240 0.003638 0.033706 -0.002991
C102  C     C_R   0.942316 0.495424 0.532730 -0.002625
C103  C     C_R   0.929935 0.513908 0.958171 0.001561
C104  C     C_R   0.933422 0.485118 0.456962 0.002475
C105  C     C_R   0.940242 0.503641 0.033704 -0.002990
C106  C     C_R   0.223679 0.013454 0.539144 -0.039945
C107  C     C_R   0.210887 0.998411 0.969154 -0.038748
C108  C     C_R   0.215871 0.994272 0.466520 -0.036232
C109  C     C_R   0.818012 0.469784 0.853341 0.522115
C110  C     C_R   0.222886 0.981284 0.042371 -0.032269
C111  C     C_R   0.723679 0.513454 0.539144 -0.039945
C112  C     C_R   0.710889 0.498414 0.969152 -0.038745
C113  C     C_R   0.715871 0.494272 0.466520 -0.036232
C114  C     C_R   0.722890 0.481286 0.042369 -0.032273
C115  C     C_R   0.118613 0.037588 0.575897 -0.065742
C116  C     C_R   0.092283 0.001432 0.940909 -0.082842
C117  C     C_R   0.101170 0.984900 0.436833 -0.101006
C118  C     C_R   0.120352 0.958418 0.082604 -0.078426
C119  C     C_R   0.618612 0.537588 0.575897 -0.065743
C120  C     C_R   0.818922 0.529490 0.352751 0.521485
C121  C     C_R   0.592284 0.501436 0.940909 -0.082841
C122  C     C_R   0.601170 0.484901 0.436832 -0.101004
C123  C     C_R   0.620359 0.458419 0.082602 -0.078419
C124  C     C_R   0.004532 0.032734 0.544692 0.177066
C125  C     C_R   0.990677 0.980024 0.981678 0.163288
C126  C     C_R   0.996961 0.008286 0.472613 0.142135
C127  C     C_R   0.004431 0.966704 0.055794 0.140230
C128  C     C_R   0.504532 0.532735 0.544692 0.177065
C129  C     C_R   0.490679 0.480030 0.981680 0.163288
C130  C     C_R   0.496961 0.508286 0.472613 0.142135
C131  C     C_R   0.821889 0.529897 0.147043 0.523870
C132  C     C_R   0.504437 0.466711 0.055795 0.140240
C133  C     C_R   0.182978 0.771266 0.635850 0.568233
C134  C     C_R   0.185466 0.771554 0.863056 0.568179
C135  C     C_R   0.184543 0.228401 0.363266 0.569610
C136  C     C_R   0.182976 0.228831 0.135841 0.570688
C137  C     C_R   0.682978 0.271265 0.635850 0.568233
C138  C     C_R   0.685465 0.271554 0.863057 0.568180
C139  C     C_R   0.684543 0.728401 0.363266 0.569610
C140  C     C_R   0.682977 0.728831 0.135841 0.570686
C141  C     C_R   0.544748 0.768436 0.645762 0.539581
C142  C     C_3   0.209546 0.740535 0.452550 -0.143294
C143  C     C_R   0.544469 0.768650 0.853951 0.540261
C144  C     C_R   0.541852 0.230640 0.355071 0.544295
C145  C     C_R   0.543190 0.230871 0.144927 0.542498
C146  C     C_R   0.044748 0.268436 0.645762 0.539580
C147  C     C_R   0.044471 0.268650 0.853950 0.540260
C148  C     C_R   0.041852 0.730641 0.355071 0.544296
C149  C     C_R   0.043189 0.730870 0.144926 0.542499
C150  C     C_3   0.062417 0.816570 0.470004 -0.119578
C151  C     C_3   0.029511 0.802413 0.019420 -0.112162
C152  C     C_3   0.021805 0.201249 0.519486 -0.112816
Cr1   Cr    Cr6+3 0.488160 0.884660 0.750000 0.979728
Cr2   Cr    Cr6+3 0.333410 0.272740 0.250000 0.956209
Cr3   Cr    Cr6+3 0.833410 0.227260 0.750000 0.990928
Cr4   Cr    Cr6+3 0.833410 0.772740 0.250000 0.956204
Cr5   Cr    Cr6+3 0.488160 0.115340 0.250000 0.983848
Cr6   Cr    Cr6+3 0.988160 0.384660 0.750000 0.979728
Cr7   Cr    Cr6+3 0.988160 0.615340 0.250000 0.983849
Cr8   Cr    Cr6+3 0.173480 0.883120 0.750000 0.979623
Cr9   Cr    Cr6+3 0.173480 0.116880 0.250000 0.985783
Cr10  Cr    Cr6+3 0.673480 0.383120 0.750000 0.979624
Cr11  Cr    Cr6+3 0.673480 0.616880 0.250000 0.985788
Cr12  Cr    Cr6+3 0.333410 0.727260 0.750000 0.990924
H1    H     H_    0.263388 0.850906 0.501244 0.114508
H2    H     H_    0.951781 0.837376 0.028714 0.123713
H3    H     H_    0.272790 0.572861 0.371859 0.162999
H4    H     H_    0.410007 0.524950 0.130461 0.252204
H5    H     H_    0.293954 0.436484 0.187139 0.131681
H6    H     H_    0.450646 0.411071 0.192264 0.138567
H7    H     H_    0.352596 0.374107 0.123792 0.195775
H8    H     H_    0.939576 0.172111 0.534966 0.150853
H9    H     H_    0.058047 0.132994 0.937704 0.115263
H10   H     H_    0.512828 0.361616 0.447592 0.112093
H11   H     H_    0.451795 0.337382 0.028732 0.123728
H12   H     H_    0.439575 0.672112 0.534967 0.150854
H13   H     H_    0.557998 0.632997 0.937715 0.115267
H14   H     H_    0.940555 0.788684 0.572413 0.121306
H15   H     H_    0.950716 0.733144 0.922511 0.114507
H16   H     H_    0.955100 0.279017 0.424854 0.113233
H17   H     H_    0.205542 0.867807 0.975615 0.127328
H18   H     H_    0.949008 0.191067 0.063955 0.119857
H19   H     H_    0.440555 0.288685 0.572413 0.121306
H20   H     H_    0.450710 0.233159 0.922513 0.114509
H21   H     H_    0.455100 0.779018 0.424854 0.113233
H22   H     H_    0.448998 0.691089 0.063964 0.119859
H23   H     H_    0.963223 0.662448 0.487528 0.117951
H24   H     H_    0.027226 0.642101 0.027243 0.146654
H25   H     H_    0.040993 0.358321 0.532687 0.153704
H26   H     H_    0.939934 0.321872 0.986611 0.109963
H27   H     H_    0.463222 0.162449 0.487528 0.117951
H28   H     H_    0.180408 0.126411 0.471528 0.135983
H29   H     H_    0.527215 0.142103 0.027239 0.146648
H30   H     H_    0.540994 0.858321 0.532687 0.153704
H31   H     H_    0.439958 0.821892 0.986614 0.109968
H32   H     H_    0.199784 0.647780 0.538443 0.125892
H33   H     H_    0.278464 0.671031 0.975830 0.119891
H34   H     H_    0.288930 0.320329 0.478021 0.114468
H35   H     H_    0.165669 0.358244 0.044625 0.128539
H36   H     H_    0.699781 0.147780 0.538444 0.125889
H37   H     H_    0.778454 0.171027 0.975826 0.119892
H38   H     H_    0.788930 0.820329 0.478021 0.114469
H39   H     H_    0.291316 0.165400 0.000198 0.106288
H40   H     H_    0.665718 0.858240 0.044619 0.128548
H41   H     H_    0.281953 0.726184 0.413309 0.104775
H42   H     H_    0.287977 0.776724 0.086202 0.109251
H43   H     H_    0.283376 0.208697 0.585547 0.104741
H44   H     H_    0.279639 0.297696 0.922244 0.114316
H45   H     H_    0.781953 0.226184 0.413309 0.104775
H46   H     H_    0.787984 0.276711 0.086202 0.109255
H47   H     H_    0.783376 0.708696 0.585547 0.104740
H48   H     H_    0.779649 0.797675 0.922235 0.114313
H49   H     H_    0.713956 0.924925 0.419703 0.135443
H50   H     H_    0.763388 0.350906 0.501244 0.114507
H51   H     H_    0.740377 0.039032 0.048184 0.167305
H52   H     H_    0.741473 0.956421 0.548492 0.144211
H53   H     H_    0.718492 0.063925 0.917702 0.154372
H54   H     H_    0.213954 0.424923 0.419703 0.135441
H55   H     H_    0.240381 0.539030 0.048179 0.167312
H56   H     H_    0.241473 0.456421 0.548492 0.144211
H57   H     H_    0.218494 0.563926 0.917699 0.154373
H58   H     H_    0.525967 0.947262 0.359896 0.124061
H59   H     H_    0.572296 0.992195 0.120114 0.139494
H60   H     H_    0.573708 0.007144 0.619448 0.136079
H61   H     H_    0.705560 0.367806 0.975621 0.127323
H62   H     H_    0.523880 0.049746 0.860218 0.127635
H63   H     H_    0.025966 0.447262 0.359896 0.124063
H64   H     H_    0.072299 0.492197 0.120111 0.139500
H65   H     H_    0.073708 0.507144 0.619448 0.136079
H66   H     H_    0.023880 0.549748 0.860216 0.127632
H67   H     H_    0.092315 0.961898 0.383422 0.129403
H68   H     H_    0.130089 0.939860 0.137730 0.134492
H69   H     H_    0.126358 0.061356 0.628972 0.136327
H70   H     H_    0.077417 0.022437 0.887424 0.140301
H71   H     H_    0.592314 0.461899 0.383422 0.129405
H72   H     H_    0.680407 0.626411 0.471528 0.135984
H73   H     H_    0.630100 0.439859 0.137727 0.134487
H74   H     H_    0.626357 0.561356 0.628972 0.136327
H75   H     H_    0.577418 0.522441 0.887423 0.140300
H76   H     H_    0.823215 0.061159 0.556205 0.262186
H77   H     H_    0.794199 0.040556 0.679577 0.129969
H78   H     H_    0.954324 0.037205 0.693593 0.145409
H79   H     H_    0.878861 0.964418 0.650256 0.139534
H80   H     H_    0.820509 0.935184 0.979164 0.267706
H81   H     H_    0.782354 0.932657 0.857005 0.152984
H82   H     H_    0.937078 0.903169 0.861787 0.178891
H83   H     H_    0.791293 0.665380 0.000197 0.106294
H84   H     H_    0.901346 0.993538 0.837920 0.128223
H85   H     H_    0.885908 0.970534 0.394539 0.225782
H86   H     H_    0.932713 0.090253 0.359808 0.167987
H87   H     H_    0.853550 0.117081 0.441673 0.146582
H88   H     H_    0.772800 0.072858 0.371849 0.162990
H89   H     H_    0.910004 0.024950 0.130458 0.252171
H90   H     H_    0.793899 0.936456 0.187110 0.131716
H91   H     H_    0.950634 0.911117 0.192307 0.138500
H92   H     H_    0.852691 0.874077 0.123809 0.195801
H93   H     H_    0.323215 0.561160 0.556203 0.262190
H94   H     H_    0.012827 0.861616 0.447592 0.112095
H95   H     H_    0.294197 0.540558 0.679575 0.129969
H96   H     H_    0.454321 0.537208 0.693593 0.145409
H97   H     H_    0.378858 0.464420 0.650256 0.139534
H98   H     H_    0.320515 0.435184 0.979169 0.267695
H99   H     H_    0.282351 0.432662 0.857010 0.152986
H100  H     H_    0.437086 0.403180 0.861781 0.178889
H101  H     H_    0.401332 0.493554 0.837921 0.128212
H102  H     H_    0.385904 0.470531 0.394543 0.225783
H103  H     H_    0.432702 0.590236 0.359787 0.167973
H104  H     H_    0.353589 0.617087 0.441660 0.146588
N1    N     N_2   0.900624 0.054793 0.585336 -0.532772
N2    N     N_2   0.876765 0.966958 0.948523 -0.534708
N3    N     N_2   0.887722 0.009437 0.433284 -0.545196
N4    N     N_2   0.905145 0.977142 0.104654 -0.567028
N5    N     N_2   0.400623 0.554795 0.585335 -0.532772
N6    N     N_2   0.376766 0.466962 0.948527 -0.534703
N7    N     N_2   0.387721 0.509438 0.433284 -0.545197
N8    N     N_2   0.405160 0.477150 0.104660 -0.567066
O1    O     O_R   0.575450 0.828820 0.667950 -0.526436
O2    O     O_R   0.416860 0.942890 0.825320 -0.497801
O3    O     O_R   0.416860 0.057110 0.325320 -0.499365
O4    O     O_R   0.416860 0.057110 0.174680 -0.512858
O5    O     O_R   0.916860 0.442890 0.674680 -0.511580
O6    O     O_R   0.916860 0.442890 0.825320 -0.497800
O7    O     O_R   0.916860 0.557110 0.325320 -0.499364
O8    O     O_R   0.916860 0.557110 0.174680 -0.512859
O9    O     O_R   0.213790 0.953680 0.668330 -0.525950
O10   O     O_R   0.213790 0.953680 0.831670 -0.544847
O11   O     O_R   0.213790 0.046320 0.331670 -0.538645
O12   O     O_R   0.575450 0.828820 0.832050 -0.520785
O13   O     O_R   0.213790 0.046320 0.168330 -0.525625
O14   O     O_R   0.713790 0.453680 0.668330 -0.525950
O15   O     O_R   0.713790 0.453680 0.831670 -0.544846
O16   O     O_R   0.713790 0.546320 0.331670 -0.538644
O17   O     O_R   0.713790 0.546320 0.168330 -0.525619
O18   O     O_R   0.121360 0.817890 0.672660 -0.499835
O19   O     O_R   0.121360 0.817890 0.827340 -0.510853
O20   O     O_R   0.121360 0.182110 0.327340 -0.507405
O21   O     O_R   0.121360 0.182110 0.172660 -0.496590
O22   O     O_R   0.621360 0.317890 0.672660 -0.499836
O23   O     O_R   0.575450 0.171180 0.332050 -0.520516
O24   O     O_R   0.621360 0.317890 0.827340 -0.510852
O25   O     O_R   0.621360 0.682110 0.327340 -0.507399
O26   O     O_R   0.621360 0.682110 0.172660 -0.496589
O27   O     O_R   0.206850 0.711370 0.665820 -0.522226
O28   O     O_R   0.206850 0.711370 0.834180 -0.528591
O29   O     O_R   0.206850 0.288630 0.334180 -0.531891
O30   O     O_R   0.206850 0.288630 0.165820 -0.548776
O31   O     O_R   0.706850 0.211370 0.665820 -0.522226
O32   O     O_R   0.706850 0.211370 0.834180 -0.528589
O33   O     O_R   0.706850 0.788630 0.334180 -0.531893
O34   O     O_R   0.575450 0.171180 0.167950 -0.518091
O35   O     O_R   0.706850 0.788630 0.165820 -0.548779
O36   O     O_R   0.457710 0.733190 0.672630 -0.515710
O37   O     O_R   0.457710 0.733190 0.827370 -0.530552
O38   O     O_R   0.457710 0.266810 0.327370 -0.534517
O39   O     O_R   0.457710 0.266810 0.172630 -0.544103
O40   O     O_R   0.957710 0.233190 0.672630 -0.515711
O41   O     O_R   0.957710 0.233190 0.827370 -0.530550
O42   O     O_R   0.957710 0.766810 0.327370 -0.534514
O43   O     O_R   0.957710 0.766810 0.172630 -0.544116
O44   O     O_3   0.331690 0.831680 0.750000 -0.286203
O45   O     O_R   0.075450 0.328820 0.667950 -0.526436
O46   O     O_3   0.331690 0.168320 0.250000 -0.282055
O47   O     O_3   0.831690 0.331680 0.750000 -0.286203
O48   O     O_3   0.831690 0.668320 0.250000 -0.282057
O49   O     O_R   0.075450 0.328820 0.832050 -0.520785
O50   O     O_R   0.075450 0.671180 0.332050 -0.520516
O51   O     O_R   0.075450 0.671180 0.167950 -0.518090
O52   O     O_R   0.416860 0.942890 0.674680 -0.511580

loop_
_geom_bond_atom_site_label_1
_geom_bond_atom_site_label_2
_ccdc_geom_bond_type
C6    C32   S    
C58   H99   S    
C88   H66   S    
C21   C137  S    
C79   C103  A    
C110  C118  A    
C58   N6    S    
C64   C152  S    
H80   N2    S    
C41   C69   S    
C149  O51   A    
C16   H83   S    
C82   H60   S    
C72   C101  A    
C132  N8    S    
Cr4   O43   S    
C131  O17   A    
Cr12  O44   S    
C113  C122  A    
C38   H26   S    
C54   H87   S    
C76   O11   A    
C12   H50   S    
C4    C12   S    
C117  C126  A    
Cr10  O22   S    
C40   H29   S    
C21   C48   S    
C119  C128  A    
C143  O12   A    
C71   C108  A    
C146  O45   A    
C7    C33   S    
C129  N6    S    
C56   H96   S    
Cr4   O48   S    
Cr2   O30   S    
H98   N6    S    
C11   C20   S    
C79   C109  S    
C25   C140  S    
C14   H61   S    
Cr10  O15   S    
C29   H18   S    
C121  H75   S    
Cr7   O50   S    
C82   C91   A    
Cr1   O2    S    
C36   H24   S    
C8    C150  S    
C17   C43   S    
C18   C44   S    
C39   H27   S    
Cr2   O39   S    
C90   C92   A    
Cr6   O47   S    
H102  N7    S    
C141  O36   A    
Cr7   O8    S    
C111  C113  A    
C85   H64   S    
C94   C96   A    
C28   H16   S    
C148  O50   A    
C22   C49   S    
C81   C90   A    
C99   C101  A    
C147  O41   A    
C17   C133  S    
C107  C110  A    
C36   C44   S    
C138  O24   A    
C59   H3    S    
C51   H40   S    
C140  O26   A    
Cr12  O37   S    
C21   C30   S    
C16   C25   S    
C9    C151  S    
C62   C150  S    
C64   C146  S    
C50   C57   S    
C119  H74   S    
C8    C17   S    
C59   H103  S    
C106  C115  A    
C56   H97   S    
C60   H6    S    
C144  O38   A    
C52   H77   S    
C13   C45   S    
C94   H55   S    
C55   H91   S    
C87   O4    A    
C92   H53   S    
C128  N5    S    
C147  O49   A    
C20   C47   S    
C3    C11   S    
C86   C95   A    
C136  O30   A    
Cr6   O6    S    
C96   H57   S    
C65   O2    A    
C125  C127  A    
C43   H32   S    
C43   C142  S    
C19   C135  S    
C6    C69   S    
C57   H47   S    
C123  C132  A    
C112  C114  A    
C98   O5    A    
C81   C101  A    
C7    H13   S    
C70   C143  S    
C32   H21   S    
C60   H5    S    
Cr12  O28   S    
C152  H8    S    
Cr6   O45   S    
Cr3   O47   S    
H89   N4    S    
C40   C49   S    
C42   C70   S    
C111  C119  A    
Cr8   O9    S    
C77   C131  S    
C3    C29   S    
C74   C107  A    
C145  O34   A    
C120  O7    A    
C2    C44   S    
Cr4   O42   S    
C29   C38   S    
C32   C41   S    
C33   H22   S    
C75   C113  A    
C89   C91   A    
Cr11  O16   S    
C84   C93   A    
C138  O32   A    
C93   C95   A    
C62   C148  S    
C47   H35   S    
C42   H31   S    
C62   C142  S    
Cr3   O40   S    
C49   H37   S    
Cr5   O34   S    
C52   H79   S    
Cr5   O23   S    
C65   C74   S    
C61   H48   S    
H76   N1    S    
Cr9   O13   S    
C46   C68   S    
Cr5   O3    S    
C35   C67   S    
Cr7   O51   S    
C103  C105  A    
C133  O18   A    
C20   C136  S    
C12   C35   S    
C19   C28   S    
C114  C123  A    
Cr9   O46   S    
C116  C125  A    
C84   C104  A    
Cr9   O20   S    
C16   C61   S    
C86   C102  A    
C72   C87   S    
C136  O21   A    
Cr8   O44   S    
C124  C126  A    
C60   N8    S    
C58   H100  S    
C60   H7    S    
C108  C117  A    
C75   C120  S    
Cr1   O44   S    
C19   C45   S    
Cr12  O36   S    
C125  N2    S    
C14   C22   S    
C112  C121  A    
C106  C108  A    
C28   C37   S    
C58   H101  S    
C30   C39   S    
C18   C134  S    
C34   H23   S    
C107  C116  A    
C139  O25   A    
C9    H17   S    
C8    H1    S    
H4    N8    S    
C80   H58   S    
C9    C18   S    
C53   N2    S    
C118  C127  A    
C116  H70   S    
C54   H88   S    
C83   C99   A    
C84   H63   S    
C25   C33   S    
C123  H73   S    
C83   H62   S    
Cr2   O46   S    
C61   C70   S    
Cr4   O33   S    
C88   C96   A    
C31   H20   S    
C78   C102  A    
C133  O27   A    
C30   H19   S    
C97   C100  A    
C7    C70   S    
C1    O9    A    
C14   C46   S    
C2    C63   S    
C46   C49   S    
C79   C112  A    
C48   H36   S    
C98   O14   A    
C27   H15   S    
C148  O42   A    
C71   C76   S    
C149  O43   A    
C67   C144  S    
C69   C141  S    
C34   C62   S    
C31   C40   S    
Cr1   O1    S    
C80   C89   A    
C53   H82   S    
C10   C152  S    
Cr11  O26   S    
Cr7   O7    S    
C137  O31   A    
C24   C66   S    
C129  C132  A    
C50   H38   S    
C122  H71   S    
C4    H10   S    
C5    H11   S    
C5    C68   S    
C35   C48   S    
C90   H51   S    
Cr11  O17   S    
C34   C43   S    
C126  N3    S    
C26   C150  S    
C86   H65   S    
Cr8   O19   S    
C23   C50   S    
Cr3   O41   S    
C24   H44   S    
C10   H28   S    
C65   O10   A    
C91   H52   S    
C52   H78   S    
C52   N1    S    
C139  O33   A    
C10   C19   S    
C95   H56   S    
C54   H86   S    
C11   H39   S    
C63   C151  S    
C5    C14   S    
Cr11  O48   S    
C7    C16   S    
Cr4   O35   S    
C75   C104  A    
C82   C97   A    
C3    C66   S    
C33   C42   S    
C77   C114  A    
C41   C50   S    
C115  H69   S    
C37   C64   S    
C89   H49   S    
C109  O15   A    
Cr2   O29   S    
C27   C151  S    
C115  C124  A    
C76   O3    A    
C121  C129  A    
Cr10  O14   S    
C128  C130  A    
C74   C99   A    
C27   C36   S    
C71   C100  A    
C22   C138  S    
C1    C73   S    
C23   C32   S    
C77   C105  A    
C53   H84   S    
C46   H46   S    
C109  O6    A    
Cr2   O38   S    
C144  O23   A    
C13   C64   S    
C87   O13   A    
C117  H67   S    
Cr8   O10   S    
C1    O52   A    
C140  O35   A    
Cr3   O32   S    
C40   C68   S    
C56   N5    S    
C8    C142  S    
C55   N4    S    
C68   C145  S    
C39   C48   S    
Cr10  O47   S    
C37   H25   S    
H85   N3    S    
C51   C61   S    
Cr9   O21   S    
C73   C97   A    
C83   C92   A    
C41   H30   S    
C59   H104  S    
C17   C26   S    
C23   C139  S    
Cr5   O46   S    
C11   C24   S    
C55   H92   S    
C142  H41   S    
C134  O19   A    
C63   C149  S    
C6    C15   S    
C3    H9    S    
Cr6   O5    S    
C38   C66   S    
C118  H68   S    
C59   N7    S    
C78   C98   S    
C13   H43   S    
C36   C63   S    
C42   C51   S    
C15   C23   S    
C44   H33   S    
C80   C100  A    
C15   C57   S    
C137  O22   A    
C134  O28   A    
C85   C105  A    
C131  O8    A    
C26   C34   S    
C20   C29   S    
C26   H14   S    
C81   H59   S    
C72   C110  A    
C124  N1    S    
C22   C31   S    
Cr12  O27   S    
C45   H34   S    
C12   C21   S    
C93   H54   S    
Cr11  O25   S    
C15   H72   S    
C135  O20   A    
C25   C51   S    
Cr8   O18   S    
C85   C94   A    
Cr1   O12   S    
C54   N3    S    
C66   C147  S    
C102  C104  A    
C143  O37   A    
C38   C47   S    
C78   C111  A    
C2    H42   S    
C28   C152  S    
C127  N4    S    
C88   C103  A    
Cr10  O24   S    
C135  O29   A    
C24   C47   S    
C39   C67   S    
C18   C27   S    
Cr3   O31   S    
C10   C13   S    
C4    C67   S    
C151  H2    S    
H93   N5    S    
C55   H90   S    
C35   H45   S    
C141  O1    A    
Cr1   O52   S    
C150  H94   S    
Cr5   O4    S    
C2    C9    S    
C73   C106  A    
Cr7   O48   S    
C6    H12   S    
C145  O39   A    
C146  O40   A    
C53   H81   S    
C56   H95   S    
Cr6   O49   S    
C120  O16   A    
C57   C69   S    
C130  N7    S    
C37   C45   S    
C122  C130  A    
C4    C30   S    
Cr9   O11   S    
C5    C31   S    
