data_mof_unit_61314.cif
_audit_creation_date              2012-12-10T19:52:04-0500
_audit_creation_method            fapswitch 2.2
_symmetry_space_group_name_H-M    P1
_symmetry_Int_Tables_number       1
_space_group_crystal_system       triclinic
_cell_length_a                    25.931378
_cell_length_b                    25.999499
_cell_length_c                    22.188911
_cell_angle_alpha                 89.999889
_cell_angle_beta                  125.732028
_cell_angle_gamma                 90.000026
_cell_volume                      12143.74712

loop_
_atom_site_label
_atom_site_type_symbol
_atom_type_description
_atom_site_fract_x
_atom_site_fract_y
_atom_site_fract_z
_atom_type_partial_charge
Br1   Br    Br    0.649198 0.755090 0.667440 -0.462780
Br2   Br    Br    0.634074 0.063876 0.499412 -0.392280
Br3   Br    Br    0.134070 0.436123 0.499404 -0.391454
Br4   Br    Br    0.134073 0.563876 0.499409 -0.391491
Br5   Br    Br    0.902417 0.063341 0.606459 -0.436145
Br6   Br    Br    0.902416 0.936656 0.606457 -0.436080
Br7   Br    Br    0.402417 0.563343 0.606462 -0.435274
Br8   Br    Br    0.402416 0.436657 0.606463 -0.434749
Br9   Br    Br    0.649641 0.240572 0.061674 -0.390579
Br10  Br    Br    0.648005 0.771595 0.061660 -0.386149
Br11  Br    Br    0.147499 0.725874 0.061664 -0.385237
Br12  Br    Br    0.649199 0.244905 0.667441 -0.461456
Br13  Br    Br    0.147423 0.274483 0.061661 -0.385010
Br14  Br    Br    0.006536 0.636962 0.939143 -0.396365
Br15  Br    Br    0.006186 0.363153 0.939142 -0.396320
Br16  Br    Br    0.520426 0.142478 0.939083 -0.397726
Br17  Br    Br    0.508992 0.862196 0.939128 -0.400479
Br18  Br    Br    0.149204 0.254909 0.667433 -0.464836
Br19  Br    Br    0.149199 0.744943 0.667439 -0.463855
Br20  Br    Br    0.340506 0.700317 0.299451 -0.423992
Br21  Br    Br    0.340509 0.299685 0.299453 -0.423858
Br22  Br    Br    0.840413 0.200659 0.299285 -0.423504
Br23  Br    Br    0.840488 0.799619 0.299419 -0.424177
Br24  Br    Br    0.634074 0.936124 0.499412 -0.392200
C1    C     C_R   0.650331 0.749970 0.300640 0.507506
C2    C     C_3   0.480932 0.786712 0.024847 0.001443
C3    C     C_R   0.281637 0.526375 0.480129 -0.027323
C4    C     C_R   0.743712 0.945799 0.494113 0.029993
C5    C     C_R   0.743712 0.054200 0.494114 0.029917
C6    C     C_R   0.243712 0.445799 0.494114 0.030023
C7    C     C_R   0.243712 0.554200 0.494114 0.030040
C8    C     C_R   0.697762 0.972764 0.497188 0.164384
C9    C     C_R   0.697762 0.027236 0.497188 0.164329
C10   C     C_R   0.197761 0.472764 0.497186 0.164563
C11   C     C_R   0.197762 0.527236 0.497186 0.164550
C12   C     C_3   0.850344 0.029984 0.509146 0.171671
C13   C     C_3   0.980131 0.713967 0.024852 0.000950
C14   C     C_3   0.850344 0.970015 0.509146 0.171551
C15   C     C_3   0.350346 0.529985 0.509150 0.171231
C16   C     C_3   0.350346 0.470015 0.509151 0.171228
C17   C     C_R   0.610614 0.749066 0.501448 0.538732
C18   C     C_R   0.610614 0.250934 0.501448 0.538647
C19   C     C_R   0.110612 0.249068 0.501443 0.538671
C20   C     C_R   0.110614 0.750934 0.501447 0.538709
C21   C     C_R   0.748915 0.890074 0.499084 0.563014
C22   C     C_R   0.748915 0.109926 0.499085 0.562954
C23   C     C_R   0.248915 0.390074 0.499084 0.563072
C24   C     C_3   0.980020 0.285934 0.024852 0.000786
C25   C     C_R   0.248915 0.609926 0.499084 0.563054
C26   C     C_R   0.750052 0.609997 0.499754 0.515873
C27   C     C_R   0.750052 0.390003 0.499754 0.515982
C28   C     C_R   0.250052 0.109997 0.499753 0.515451
C29   C     C_R   0.250052 0.890003 0.499753 0.515634
C30   C     C_R   0.697831 0.526013 0.446413 0.020588
C31   C     C_R   0.697831 0.473986 0.446413 0.020567
C32   C     C_R   0.197826 0.026013 0.446418 0.020532
C33   C     C_R   0.197826 0.973986 0.446418 0.020514
C34   C     C_R   0.750830 0.554463 0.499319 0.025247
C35   C     C_3   0.940474 0.760042 0.975543 -0.019423
C36   C     C_R   0.750830 0.445537 0.499319 0.025281
C37   C     C_R   0.250831 0.054463 0.499314 0.025094
C38   C     C_R   0.250831 0.945537 0.499314 0.025141
C39   C     C_R   0.806182 0.527000 0.553072 -0.141415
C40   C     C_R   0.806182 0.473000 0.553072 -0.141390
C41   C     C_R   0.306188 0.027000 0.553053 -0.142144
C42   C     C_R   0.306188 0.973000 0.553053 -0.142004
C43   C     C_3   0.516531 0.751487 0.647852 -0.312509
C44   C     C_3   0.516532 0.248503 0.647853 -0.311294
C45   C     C_3   0.016522 0.251362 0.647839 -0.312976
C46   C     C_3   0.940504 0.239814 0.975543 -0.019703
C47   C     C_3   0.016530 0.748537 0.647850 -0.312871
C48   C     C_3   0.480520 0.806614 0.358207 -0.410016
C49   C     C_3   0.480519 0.193380 0.358219 -0.410011
C50   C     C_3   0.980621 0.306834 0.358380 -0.409231
C51   C     C_3   0.980539 0.693346 0.358238 -0.409621
C52   C     C_3   0.858860 0.056697 0.453687 -0.337059
C53   C     C_3   0.858859 0.943303 0.453684 -0.336831
C54   C     C_3   0.358863 0.556697 0.453691 -0.336614
C55   C     C_3   0.358864 0.443302 0.453692 -0.336600
C56   C     C_3   0.621423 0.443102 0.314235 -0.383710
C57   C     C_3   0.439616 0.254071 0.975538 -0.019162
C58   C     C_3   0.621421 0.556899 0.314235 -0.384090
C59   C     C_3   0.121379 0.943102 0.314247 -0.384218
C60   C     C_3   0.121379 0.056898 0.314246 -0.384203
C61   C     C_3   0.872266 0.771440 0.947156 -0.367816
C62   C     C_3   0.872331 0.228250 0.947157 -0.367169
C63   C     C_3   0.370400 0.258657 0.947148 -0.368391
C64   C     C_3   0.371837 0.730739 0.947157 -0.368060
C65   C     C_3   0.467668 0.165061 0.053448 -0.361698
C66   C     C_3   0.459177 0.828356 0.053496 -0.362673
C67   C     C_3   0.957483 0.673114 0.053505 -0.361676
C68   C     C_3   0.440279 0.740971 0.975544 -0.019305
C69   C     C_3   0.957245 0.326673 0.053507 -0.361333
C70   C     C_3   0.042823 0.826991 0.947040 -0.363954
C71   C     C_3   0.043059 0.173223 0.947038 -0.364018
C72   C     C_3   0.532689 0.335049 0.947094 -0.362706
C73   C     C_3   0.541150 0.671516 0.947048 -0.363400
C74   C     C_1   0.889339 0.750010 0.778634 0.048536
C75   C     C_1   0.889338 0.249991 0.778634 0.048592
C76   C     C_1   0.389358 0.250031 0.778634 0.048421
C77   C     C_R   0.650329 0.250027 0.300640 0.507797
C78   C     C_1   0.389345 0.749983 0.778634 0.048412
C79   C     C_1   0.610749 0.250100 0.221382 0.038603
C80   C     C_1   0.610758 0.749888 0.221383 0.038397
C81   C     C_1   0.110756 0.750109 0.221383 0.038497
C82   C     C_1   0.110756 0.249891 0.221383 0.038553
C83   C     C_3   0.003041 0.703733 0.975463 0.201150
C84   C     C_3   0.002898 0.296315 0.975463 0.201160
C85   C     C_3   0.508743 0.206013 0.975441 0.201573
C86   C     C_3   0.504053 0.795913 0.975458 0.201227
C87   C     C_3   0.963356 0.749906 0.926388 0.030949
C88   C     C_R   0.150331 0.249971 0.300640 0.507546
C89   C     C_3   0.963355 0.250096 0.926388 0.030949
C90   C     C_3   0.463402 0.249946 0.926387 0.030827
C91   C     C_3   0.463370 0.750076 0.926388 0.031062
C92   C     C_3   0.561206 0.246009 0.024899 0.208916
C93   C     C_3   0.560510 0.758986 0.024895 0.208951
C94   C     C_3   0.060291 0.739968 0.024895 0.208757
C95   C     C_3   0.060259 0.260180 0.024894 0.208749
C96   C     C_3   0.536977 0.250156 0.073686 0.013529
C97   C     C_3   0.536979 0.749833 0.073687 0.013455
C98   C     C_3   0.036971 0.750157 0.073687 0.013397
C99   C     C_R   0.150331 0.750030 0.300640 0.507520
C100  C     C_3   0.036971 0.249844 0.073687 0.013395
C101  C     C_3   0.020250 0.785987 0.975518 -0.021908
C102  C     C_3   0.020360 0.214114 0.975517 -0.021863
C103  C     C_3   0.515530 0.289764 0.975541 -0.022372
C104  C     C_3   0.519474 0.713307 0.975521 -0.022080
C105  C     C_R   0.849665 0.749995 0.699369 0.521802
C106  C     C_R   0.849665 0.250005 0.699369 0.521808
C107  C     C_R   0.349667 0.249998 0.699368 0.521490
C108  C     C_R   0.349666 0.750004 0.699369 0.521659
C109  C     C_3   0.491670 0.294532 0.025112 -0.126380
C110  C     C_3   0.629833 0.470058 0.381020 -0.110239
C111  C     C_3   0.496378 0.703534 0.025098 -0.126481
C112  C     C_3   0.997376 0.796795 0.025094 -0.126483
C113  C     C_3   0.997521 0.203159 0.025093 -0.126464
C114  C     C_1   0.922752 0.749970 0.845313 0.000496
C115  C     C_1   0.922751 0.250031 0.845313 0.000530
C116  C     C_1   0.422787 0.250006 0.845312 0.000386
C117  C     C_1   0.422763 0.750015 0.845313 0.000485
C118  C     C_1   0.577440 0.250173 0.154704 -0.004541
C119  C     C_1   0.577451 0.749811 0.154705 -0.004816
C120  C     C_1   0.077446 0.750183 0.154705 -0.004801
C121  C     C_3   0.629833 0.529942 0.381021 -0.110079
C122  C     C_1   0.077447 0.249817 0.154705 -0.004766
C123  C     C_R   0.497980 0.732388 0.443218 -0.017284
C124  C     C_R   0.497981 0.267613 0.443220 -0.017258
C125  C     C_R   0.997952 0.232485 0.443160 -0.017660
C126  C     C_R   0.997975 0.767594 0.443207 -0.017440
C127  C     C_R   0.557575 0.744785 0.506856 0.032042
C128  C     C_R   0.557576 0.255215 0.506857 0.032034
C129  C     C_R   0.057564 0.244796 0.506833 0.032147
C130  C     C_R   0.057573 0.755213 0.506851 0.032054
C131  C     C_R   0.565128 0.748665 0.575434 0.157467
C132  C     C_3   0.129819 0.970058 0.381049 -0.109959
C133  C     C_R   0.565129 0.251332 0.575436 0.157440
C134  C     C_R   0.065122 0.248601 0.575419 0.157426
C135  C     C_R   0.065127 0.751347 0.575431 0.157412
C136  C     C_R   0.510427 0.748118 0.575786 -0.017866
C137  C     C_R   0.510428 0.251878 0.575788 -0.018396
C138  C     C_R   0.010419 0.248062 0.575769 -0.017621
C139  C     C_R   0.010425 0.751892 0.575783 -0.017718
C140  C     C_R   0.449321 0.744459 0.506965 0.000748
C141  C     C_R   0.449322 0.255541 0.506967 0.000699
C142  C     C_R   0.949310 0.244477 0.506940 0.000773
C143  C     C_3   0.129819 0.029942 0.381049 -0.109951
C144  C     C_R   0.949319 0.755537 0.506960 0.000781
C145  C     C_R   0.445273 0.731661 0.443475 0.031071
C146  C     C_R   0.445274 0.268341 0.443478 0.031138
C147  C     C_R   0.945242 0.231763 0.443414 0.030499
C148  C     C_R   0.945267 0.768320 0.443463 0.030894
C149  C     C_3   0.402724 0.751523 0.365822 0.057314
C150  C     C_3   0.402725 0.248478 0.365826 0.057288
C151  C     C_3   0.902730 0.251749 0.365827 0.058231
C152  C     C_3   0.902725 0.748435 0.365823 0.057551
C153  C     C_R   0.890657 0.750764 0.501139 0.510463
C154  C     C_3   0.484918 0.210218 0.024826 0.001342
C155  C     C_R   0.890655 0.249239 0.501134 0.510619
C156  C     C_R   0.390658 0.250766 0.501141 0.510360
C157  C     C_R   0.390658 0.749235 0.501140 0.510386
C158  C     C_3   0.461313 0.752372 0.365107 -0.129249
C159  C     C_3   0.461313 0.247625 0.365112 -0.129199
C160  C     C_3   0.961318 0.252587 0.365112 -0.129333
C161  C     C_3   0.961314 0.747589 0.365108 -0.129341
C162  C     C_R   0.781635 0.973624 0.480127 -0.027610
C163  C     C_R   0.781636 0.026375 0.480128 -0.027686
C164  C     C_R   0.281637 0.473624 0.480129 -0.027347
H1    H     H_    0.849156 0.546977 0.595529 0.165840
H2    H     H_    0.459634 0.275810 0.326300 0.194851
H3    H     H_    0.548115 0.320794 0.912808 0.173211
H4    H     H_    0.490652 0.360355 0.912776 0.145903
H5    H     H_    0.582589 0.650954 0.994697 0.161358
H6    H     H_    0.501869 0.643780 0.912731 0.145267
H7    H     H_    0.554909 0.689066 0.912755 0.172217
H8    H     H_    0.959587 0.224453 0.326215 0.194854
H9    H     H_    0.959625 0.775768 0.326283 0.194753
H10   H     H_    0.599425 0.453442 0.396340 0.152289
H11   H     H_    0.599425 0.546557 0.396341 0.152297
H12   H     H_    0.099429 0.953443 0.396394 0.152056
H13   H     H_    0.099429 0.046557 0.396394 0.152031
H14   H     H_    0.484846 0.330922 0.045821 0.129766
H15   H     H_    0.493418 0.665563 0.045794 0.128748
H16   H     H_    0.995243 0.835046 0.045785 0.128410
H17   H     H_    0.849156 0.453023 0.595528 0.165846
H18   H     H_    0.995506 0.164870 0.045784 0.128426
H19   H     H_    0.504679 0.790986 0.655041 0.176439
H20   H     H_    0.483923 0.723514 0.647380 0.142120
H21   H     H_    0.564551 0.741782 0.697300 0.185840
H22   H     H_    0.504676 0.209004 0.655035 0.176929
H23   H     H_    0.564553 0.258204 0.697303 0.186840
H24   H     H_    0.483927 0.276476 0.647386 0.142517
H25   H     H_    0.004668 0.290845 0.655080 0.176441
H26   H     H_    0.983911 0.223368 0.647323 0.141851
H27   H     H_    0.064542 0.241645 0.697276 0.185452
H28   H     H_    0.349166 0.046977 0.595500 0.165513
H29   H     H_    0.004680 0.709041 0.655051 0.176429
H30   H     H_    0.064548 0.758248 0.697295 0.185504
H31   H     H_    0.983919 0.776513 0.647367 0.141926
H32   H     H_    0.485563 0.832864 0.400916 0.165524
H33   H     H_    0.526373 0.805075 0.364869 0.154042
H34   H     H_    0.443792 0.822309 0.302307 0.157667
H35   H     H_    0.485562 0.167135 0.400932 0.165507
H36   H     H_    0.443791 0.177682 0.302322 0.157681
H37   H     H_    0.526372 0.194916 0.364881 0.153973
H38   H     H_    0.985710 0.333024 0.401169 0.165678
H39   H     H_    0.349166 0.953023 0.595500 0.165581
H40   H     H_    0.026472 0.305275 0.365038 0.154030
H41   H     H_    0.943922 0.322613 0.302528 0.159090
H42   H     H_    0.985590 0.667107 0.400960 0.165630
H43   H     H_    0.943817 0.677636 0.302346 0.158238
H44   H     H_    0.026392 0.694889 0.364900 0.154116
H45   H     H_    0.906792 0.048151 0.468121 0.152475
H46   H     H_    0.822278 0.044417 0.395661 0.131772
H47   H     H_    0.854797 0.098996 0.456425 0.198077
H48   H     H_    0.906791 0.951848 0.468118 0.152478
H49   H     H_    0.854795 0.901003 0.456422 0.198200
H50   H     H_    0.382226 0.789881 0.362653 0.132371
H51   H     H_    0.822276 0.955583 0.395659 0.132064
H52   H     H_    0.406796 0.548152 0.468127 0.152643
H53   H     H_    0.322282 0.544417 0.395665 0.132625
H54   H     H_    0.354800 0.598996 0.456429 0.198203
H55   H     H_    0.406796 0.451848 0.468128 0.152652
H56   H     H_    0.354801 0.401003 0.456430 0.198199
H57   H     H_    0.322283 0.455582 0.395666 0.132630
H58   H     H_    0.624419 0.400835 0.322368 0.175483
H59   H     H_    0.573811 0.452119 0.263043 0.139464
H60   H     H_    0.658556 0.454858 0.306793 0.142912
H61   H     H_    0.382224 0.210121 0.362658 0.132340
H62   H     H_    0.573810 0.547881 0.263043 0.139387
H63   H     H_    0.624415 0.599166 0.322369 0.175294
H64   H     H_    0.658556 0.545145 0.306794 0.142616
H65   H     H_    0.124375 0.900835 0.322379 0.175260
H66   H     H_    0.073758 0.952120 0.263069 0.139181
H67   H     H_    0.158497 0.954856 0.306779 0.142258
H68   H     H_    0.073758 0.047881 0.263069 0.139186
H69   H     H_    0.124375 0.099166 0.322379 0.175274
H70   H     H_    0.158498 0.045144 0.306779 0.142250
H71   H     H_    0.869611 0.777069 0.994853 0.151167
H72   H     H_    0.882304 0.290116 0.362785 0.133346
H73   H     H_    0.855740 0.806878 0.912831 0.162286
H74   H     H_    0.841290 0.738766 0.912898 0.164237
H75   H     H_    0.869693 0.222540 0.994853 0.151823
H76   H     H_    0.841254 0.260882 0.912899 0.164772
H77   H     H_    0.855913 0.192814 0.912832 0.162281
H78   H     H_    0.367243 0.260935 0.994842 0.150688
H79   H     H_    0.349437 0.293902 0.912834 0.164245
H80   H     H_    0.343619 0.224518 0.912880 0.161369
H81   H     H_    0.369066 0.725685 0.994854 0.150987
H82   H     H_    0.341572 0.763704 0.912897 0.163426
H83   H     H_    0.882241 0.710075 0.362677 0.132689
H84   H     H_    0.354544 0.695295 0.912834 0.162687
H85   H     H_    0.428385 0.142795 0.005865 0.165756
H86   H     H_    0.509644 0.139708 0.087826 0.174252
H87   H     H_    0.452295 0.179487 0.087709 0.131120
H88   H     H_    0.417661 0.848904 0.005925 0.165688
H89   H     H_    0.445490 0.810642 0.087765 0.132124
H90   H     H_    0.498391 0.856132 0.087872 0.172400
H91   H     H_    0.915526 0.652952 0.005936 0.166726
H92   H     H_    0.996090 0.644871 0.087884 0.172962
H93   H     H_    0.944187 0.691491 0.087772 0.132488
H94   H     H_    0.459633 0.724183 0.326299 0.194759
H95   H     H_    0.915225 0.346781 0.005940 0.167068
H96   H     H_    0.944007 0.308202 0.087775 0.133078
H97   H     H_    0.995764 0.354983 0.087887 0.172845
H98   H     H_    0.084704 0.847168 0.994687 0.161087
H99   H     H_    0.056194 0.808776 0.912748 0.171861
H100  H     H_    0.004150 0.855198 0.912722 0.145009
H101  H     H_    0.085003 0.153101 0.994683 0.161076
H102  H     H_    0.004473 0.144950 0.912719 0.144994
H103  H     H_    0.056373 0.191532 0.912745 0.171786
H104  H     H_    0.571896 0.357315 0.994756 0.160668
O1    O     O_3   0.749980 0.749980 0.500000 -0.463047
O2    O     O_R   0.612630 0.280380 0.456900 -0.550185
O3    O     O_R   0.112630 0.219620 0.456900 -0.550200
O4    O     O_R   0.112630 0.780380 0.456900 -0.550201
O5    O     O_R   0.698160 0.780350 0.335610 -0.503398
O6    O     O_R   0.698160 0.219650 0.335610 -0.504001
O7    O     O_R   0.198160 0.280350 0.335610 -0.503105
O8    O     O_R   0.198160 0.719650 0.335610 -0.503105
O9    O     O_R   0.801810 0.780340 0.664390 -0.504981
O10   O     O_R   0.801810 0.219660 0.664390 -0.504969
O11   O     O_R   0.301810 0.280340 0.664390 -0.505059
O12   O     O_3   0.749980 0.250020 0.500000 -0.463016
O13   O     O_R   0.301810 0.719660 0.664390 -0.504989
O14   O     O_R   0.637440 0.719620 0.335610 -0.560901
O15   O     O_R   0.637440 0.280380 0.335610 -0.560592
O16   O     O_R   0.137440 0.219620 0.335610 -0.560945
O17   O     O_R   0.137440 0.780380 0.335610 -0.560997
O18   O     O_R   0.862520 0.719620 0.664390 -0.535280
O19   O     O_R   0.862520 0.280380 0.664390 -0.535311
O20   O     O_R   0.362520 0.219620 0.664390 -0.534986
O21   O     O_R   0.362520 0.780380 0.664390 -0.535301
O22   O     O_R   0.844240 0.780350 0.456900 -0.508586
O23   O     O_3   0.249980 0.249980 0.500000 -0.463078
O24   O     O_R   0.844240 0.219650 0.456900 -0.508563
O25   O     O_R   0.344240 0.280350 0.456900 -0.508589
O26   O     O_R   0.344240 0.719650 0.456900 -0.508589
O27   O     O_R   0.655730 0.780340 0.543100 -0.476211
O28   O     O_R   0.655730 0.219660 0.543100 -0.476271
O29   O     O_R   0.155730 0.280340 0.543100 -0.476176
O30   O     O_R   0.155730 0.719660 0.543100 -0.476161
O31   O     O_R   0.758800 0.865790 0.456890 -0.548547
O32   O     O_R   0.758800 0.134210 0.456890 -0.548832
O33   O     O_R   0.258800 0.365790 0.456890 -0.548284
O34   O     O_3   0.249980 0.750020 0.500000 -0.463045
O35   O     O_R   0.258800 0.634210 0.456890 -0.548295
O36   O     O_R   0.698070 0.634180 0.456910 -0.549603
O37   O     O_R   0.698070 0.365820 0.456910 -0.549566
O38   O     O_R   0.198070 0.134180 0.456910 -0.549694
O39   O     O_R   0.198070 0.865820 0.456910 -0.549669
O40   O     O_R   0.741170 0.865780 0.543090 -0.483691
O41   O     O_R   0.741170 0.134220 0.543090 -0.483636
O42   O     O_R   0.241170 0.365780 0.543090 -0.483719
O43   O     O_R   0.241170 0.634220 0.543090 -0.483771
O44   O     O_R   0.801880 0.634180 0.543110 -0.539899
O45   O     O_R   0.887330 0.719620 0.543100 -0.552587
O46   O     O_R   0.801880 0.365820 0.543110 -0.539860
O47   O     O_R   0.301880 0.134180 0.543110 -0.540167
O48   O     O_R   0.301880 0.865820 0.543110 -0.540041
O49   O     O_R   0.887330 0.280380 0.543100 -0.552517
O50   O     O_R   0.387330 0.219620 0.543100 -0.552493
O51   O     O_R   0.387330 0.780380 0.543100 -0.552603
O52   O     O_R   0.612630 0.719620 0.456900 -0.550152
Zn1   Zn    Zn3+2 0.824140 0.706600 0.561580 0.956844
Zn2   Zn    Zn3+2 0.737390 0.206640 0.561570 1.039951
Zn3   Zn    Zn3+2 0.237390 0.293360 0.561570 1.039868
Zn4   Zn    Zn3+2 0.237390 0.706640 0.561570 1.039933
Zn5   Zn    Zn3+2 0.675820 0.706600 0.438430 0.931245
Zn6   Zn    Zn3+2 0.675820 0.293400 0.438430 0.931517
Zn7   Zn    Zn3+2 0.175820 0.206600 0.438430 0.930917
Zn8   Zn    Zn3+2 0.175820 0.793400 0.438430 0.931013
Zn9   Zn    Zn3+2 0.824140 0.293400 0.561580 0.957037
Zn10  Zn    Zn3+2 0.324140 0.206600 0.561580 0.956674
Zn11  Zn    Zn3+2 0.324140 0.793400 0.561580 0.956535
Zn12  Zn    Zn3+2 0.762580 0.793360 0.438420 0.985473
Zn13  Zn    Zn3+2 0.762580 0.206640 0.438420 0.985081
Zn14  Zn    Zn3+2 0.262580 0.293360 0.438420 0.985939
Zn15  Zn    Zn3+2 0.262580 0.706640 0.438420 0.985865
Zn16  Zn    Zn3+2 0.737390 0.793360 0.561570 1.039969

loop_
_geom_bond_atom_site_label_1
_geom_bond_atom_site_label_2
_ccdc_geom_bond_type
O40   Zn16  S    
C28   O47   A    
C91   C117  S    
C22   O32   A    
C19   O3    A    
O20   Zn10  S    
C108  O13   A    
C19   O29   A    
C126  C161  S    
C156  O50   A    
C132  H12   S    
C23   O42   A    
C47   C139  S    
C74   C114  T    
C72   H3    S    
C78   C108  S    
C57   C154  S    
C121  H11   S    
C28   C37   S    
C73   C104  S    
C2    C68   S    
Br5   C12   S    
C5    C9    A    
C141  C146  A    
C32   C33   A    
C81   C99   S    
O16   Zn7   S    
C96   C109  S    
C71   H102  S    
C73   H5    S    
C125  C129  A    
O52   Zn5   S    
C126  C148  A    
C42   H39   S    
C87   C101  S    
C35   C87   S    
C78   C117  T    
C55   H55   S    
Br12  C133  S    
C63   H80   S    
C106  O19   A    
C155  O49   A    
C77   C79   S    
O17   Zn8   S    
C65   H85   S    
O48   Zn11  S    
C62   H76   S    
O39   Zn8   S    
O51   Zn11  S    
O41   Zn2   S    
C88   O7    A    
C3    C7    A    
C100  C113  S    
C4    C8    A    
O18   Zn1   S    
C104  C111  S    
C6    C10   A    
C111  H15   S    
Br23  C152  S    
Br3   C10   S    
C72   C103  S    
Br15  C84   S    
Br24  C8    S    
C58   H63   S    
C20   O30   A    
C88   O16   A    
O2    Zn6   S    
C56   H59   S    
C97   C111  S    
C98   C112  S    
O43   Zn4   S    
C30   C121  S    
Br14  C83   S    
C149  C158  S    
C68   C111  S    
C136  C140  A    
C58   C121  S    
O26   Zn15  S    
C146  C150  S    
C128  C133  A    
Br9   C92   S    
O38   Zn7   S    
O34   Zn4   S    
C45   H26   S    
C72   H104  S    
C24   C46   S    
C158  H94   S    
C70   H99   S    
C17   C127  S    
C2    C66   S    
C40   H17   S    
C36   C40   A    
C20   C130  S    
C73   H7    S    
C157  O51   A    
C74   C105  S    
C43   H21   S    
O50   Zn10  S    
C93   C104  S    
C63   H78   S    
C95   C102  S    
C37   C41   A    
C64   H81   S    
C20   O4    A    
C65   H87   S    
Br7   C15   S    
C52   H46   S    
Br8   C16   S    
C161  H9    S    
C162  C163  A    
C137  C141  A    
C25   O43   A    
C18   C128  S    
C44   H22   S    
Br22  C151  S    
C47   H31   S    
O33   Zn14  S    
C27   O46   A    
C47   H30   S    
O12   Zn6   S    
C66   H89   S    
C58   H64   S    
C10   C11   A    
C49   C159  S    
C50   C160  S    
C1    C80   S    
C35   C112  S    
C94   C98   S    
C129  C134  A    
C17   O52   A    
C50   H40   S    
C140  C157  S    
C85   C154  S    
C27   O37   A    
C57   C90   S    
C125  C160  S    
C89   C115  S    
C2    C97   S    
C71   H103  S    
C83   C94   S    
C75   C115  T    
O23   Zn7   S    
C50   H41   S    
C101  C112  S    
C113  H18   S    
C46   C89   S    
C48   H32   S    
C33   C132  S    
C16   C55   S    
C54   H53   S    
C38   C42   A    
C59   H66   S    
C15   C54   S    
C60   H69   S    
C45   C138  S    
C15   C16   S    
C89   C102  S    
C14   C162  S    
C100  C122  S    
C92   C103  S    
C91   C104  S    
C92   C96   S    
C123  C127  A    
C35   C61   S    
C60   H68   S    
C4    C162  A    
C80   C119  T    
C65   C154  S    
C61   H71   S    
C67   H91   S    
C13   C35   S    
C85   C90   S    
C127  C131  A    
C56   H58   S    
O24   Zn13  S    
C44   H24   S    
C49   H35   S    
C70   C101  S    
O29   Zn3   S    
C26   O36   A    
C30   C31   A    
C125  C147  A    
C83   C87   S    
C58   H62   S    
C124  C128  A    
O27   Zn16  S    
O1    Zn16  S    
C66   H88   S    
O14   Zn5   S    
C57   C109  S    
C16   C164  S    
O42   Zn3   S    
C150  H61   S    
C72   H4    S    
C139  C144  A    
C130  C135  A    
C50   H38   S    
Br10  C93   S    
C69   H97   S    
C71   C102  S    
C29   O39   A    
C124  C159  S    
O12   Zn13  S    
C32   C143  S    
C67   H93   S    
C71   H101  S    
C51   H44   S    
O15   Zn6   S    
C39   C40   A    
C1    O5    A    
C145  C149  S    
C27   C36   S    
Br11  C94   S    
C69   H96   S    
C43   H20   S    
C148  C152  S    
C152  H83   S    
C63   H79   S    
O6    Zn13  S    
C102  C113  S    
C112  H16   S    
C61   H74   S    
C81   C120  T    
C152  C161  S    
C44   C137  S    
C105  O9    A    
C55   H57   S    
C13   C83   S    
C144  C153  S    
O21   Zn11  S    
C18   O28   A    
C56   C110  S    
C96   C154  S    
C155  O24   A    
C85   C92   S    
C138  C142  A    
O47   Zn10  S    
Br16  C85   S    
C56   H60   S    
C94   C101  S    
C98   C120  S    
C107  O20   A    
C151  H72   S    
Br4   C11   S    
O12   Zn2   S    
C31   C36   A    
C106  O10   A    
C53   H49   S    
C84   C95   S    
C7    C25   S    
C86   C93   S    
C24   C69   S    
C26   C34   S    
O22   Zn12  S    
O32   Zn13  S    
C153  O45   A    
O34   Zn15  S    
C70   H100  S    
C160  H8    S    
C53   H48   S    
C5    C163  A    
C59   H67   S    
C6    C164  A    
C73   H6    S    
C51   H42   S    
C24   C100  S    
Br18  C134  S    
O1    Zn5   S    
C99   O17   A    
O23   Zn3   S    
C55   H56   S    
O3    Zn7   S    
C57   C63   S    
O31   Zn12  S    
C29   O48   A    
C77   O15   A    
Br2   C9    S    
C64   H82   S    
C28   O38   A    
C65   H86   S    
C7    C11   A    
C159  H2    S    
C133  C137  A    
C62   H75   S    
C107  O11   A    
C109  H14   S    
C110  C121  S    
O35   Zn15  S    
C1    O14   A    
C75   C106  S    
O23   Zn14  S    
C103  C109  S    
C150  C159  S    
O30   Zn4   S    
C14   C53   S    
C31   C110  S    
C157  O26   A    
C47   H29   S    
C5    C22   S    
C66   H90   S    
C12   C163  S    
Br19  C135  S    
C8    C9    A    
C12   C14   S    
C77   O6    A    
C60   C143  S    
C90   C103  S    
C24   C84   S    
O25   Zn14  S    
C3    C164  A    
C143  H13   S    
C68   C91   S    
O49   Zn9   S    
C13   C98   S    
C144  C148  A    
C46   C113  S    
Br21  C150  S    
C53   H51   S    
C17   O27   A    
C32   C37   A    
C62   H77   S    
C19   C129  S    
C86   C91   S    
O1    Zn12  S    
C87   C114  S    
C151  C160  S    
C84   C89   S    
C97   C119  S    
C99   O8    A    
C45   H27   S    
O28   Zn2   S    
Br17  C86   S    
C76   C107  S    
C33   C38   A    
C70   H98   S    
C82   C88   S    
C95   C100  S    
O12   Zn9   S    
C54   H54   S    
C59   H65   S    
C60   H70   S    
C48   H33   S    
O44   Zn1   S    
Br1   C131  S    
C93   C97   S    
C12   C52   S    
C108  O21   A    
C64   H84   S    
C64   C68   S    
C3    C15   S    
C26   O44   A    
C22   O41   A    
C124  C146  A    
C43   C136  S    
C76   C116  T    
C2    C86   S    
O45   Zn1   S    
C142  C147  A    
C140  C145  A    
C51   C161  S    
O37   Zn6   S    
O4    Zn8   S    
C141  C156  S    
Br13  C95   S    
O8    Zn15  S    
C156  O25   A    
C4    C21   S    
C13   C67   S    
C18   O2    A    
C6    C23   S    
C96   C118  S    
C41   H28   S    
C25   O35   A    
C149  H50   S    
C59   C132  S    
C132  C143  S    
C39   H1    S    
C147  C151  S    
O34   Zn8   S    
O9    Zn16  S    
C29   C38   S    
Br20  C149  S    
C48   H34   S    
O19   Zn9   S    
Br6   C14   S    
C51   H43   S    
C52   H45   S    
C21   O40   A    
O36   Zn5   S    
C90   C116  S    
O46   Zn9   S    
C135  C139  A    
O13   Zn4   S    
C46   C62   S    
C79   C118  T    
C69   H95   S    
C43   H19   S    
O34   Zn11  S    
C123  C158  S    
C30   C34   A    
C34   C39   A    
C110  H10   S    
C23   O33   A    
C54   H52   S    
C49   H36   S    
C131  C136  A    
O11   Zn3   S    
C153  O22   A    
C61   H73   S    
C21   O31   A    
C105  O18   A    
O10   Zn2   S    
C82   C122  T    
C45   H25   S    
O1    Zn1   S    
O7    Zn14  S    
C48   C158  S    
C49   H37   S    
C52   H47   S    
C67   H92   S    
C134  C138  A    
O5    Zn12  S    
C41   C42   A    
C126  C130  A    
O23   Zn10  S    
C142  C155  S    
C44   H23   S    
C123  C145  A    
