data_mof_unit_64549.cif
_audit_creation_date              2012-12-10T20:58:42-0500
_audit_creation_method            fapswitch 2.2
_symmetry_space_group_name_H-M    P1
_symmetry_Int_Tables_number       1
_space_group_crystal_system       triclinic
_cell_length_a                    15.880625
_cell_length_b                    15.087555
_cell_length_c                    14.178479
_cell_angle_alpha                 89.998866
_cell_angle_beta                  89.978688
_cell_angle_gamma                 90.01842
_cell_volume                      3397.16036572

loop_
_atom_site_label
_atom_site_type_symbol
_atom_type_description
_atom_site_fract_x
_atom_site_fract_y
_atom_site_fract_z
_atom_type_partial_charge
C1    C     C_1   0.250772 0.499947 0.500066 -0.191798
C2    C     C_R   0.661059 0.500011 0.499953 0.901939
C3    C     C_R   0.499999 0.500001 0.328664 0.891957
C4    C     C_R   0.499999 0.499999 0.671336 0.891962
C5    C     C_1   0.499943 0.807024 0.499998 0.101715
C6    C     C_1   0.500050 0.192976 0.500004 0.099596
C7    C     C_1   0.499997 0.500002 0.227353 -0.202727
C8    C     C_1   0.499997 0.499998 0.772647 -0.202738
C9    C     C_1   0.499995 0.500001 0.142253 -0.007890
C10   C     C_1   0.499996 0.499998 0.857747 -0.007896
C11   C     C_1   0.499994 0.500000 0.042547 0.009162
C12   C     C_1   0.749239 0.500013 0.499943 -0.182997
C13   C     C_1   0.499995 0.499999 0.957453 0.009160
C14   C     C_R   0.423577 0.953182 0.492360 0.026080
C15   C     C_R   0.576411 0.046820 0.507649 0.025519
C16   C     C_R   0.576047 0.952605 0.507626 0.108578
C17   C     C_R   0.423940 0.047397 0.492393 0.108838
C18   C     C_R   0.955851 0.580789 0.500112 0.097911
C19   C     C_R   0.043825 0.418486 0.499949 0.098032
C20   C     C_R   0.043736 0.581078 0.500178 0.037245
C21   C     C_R   0.956232 0.418403 0.499913 0.069959
C22   C     C_R   0.912914 0.499642 0.499980 0.013099
C23   C     C_R   0.087084 0.499822 0.500073 0.003680
C24   C     C_1   0.823912 0.499900 0.499950 -0.012010
C25   C     C_1   0.176103 0.499892 0.500077 -0.065180
C26   C     C_R   0.499812 0.905030 0.499988 -0.032416
C27   C     C_R   0.500177 0.094971 0.500017 -0.031595
C28   C     C_R   0.338944 0.499986 0.500045 0.905556
H1    H     H_    0.316918 0.076702 0.421719 0.202760
H2    H     H_    0.126258 0.666552 0.560217 0.198140
H3    H     H_    0.873741 0.332859 0.440013 0.189159
H4    H     H_    0.873658 0.332761 0.559585 0.189320
H5    H     H_    0.927025 0.698741 0.559986 0.201811
H6    H     H_    0.927127 0.698891 0.440528 0.201713
H7    H     H_    0.126435 0.333039 0.440093 0.193035
H8    H     H_    0.126361 0.332927 0.559677 0.192850
H9    H     H_    0.307386 0.076704 0.540686 0.202879
H10   H     H_    0.692624 0.923310 0.459394 0.203193
H11   H     H_    0.683037 0.923295 0.578355 0.202915
H12   H     H_    0.653127 0.133014 0.575321 0.192041
H13   H     H_    0.662662 0.133013 0.456266 0.192079
H14   H     H_    0.337332 0.866977 0.543733 0.191572
H15   H     H_    0.346858 0.866998 0.424678 0.191651
H16   H     H_    0.126394 0.666747 0.440610 0.198329
N1    N     N_1   0.500000 0.270550 0.500000 -0.085630
N2    N     N_3   0.087931 0.335456 0.499874 -0.422123
N3    N     N_1   0.500000 0.729450 0.500000 -0.084976
N4    N     N_3   0.346322 0.095382 0.484622 -0.449938
N5    N     N_3   0.653663 0.904623 0.515432 -0.446155
N6    N     N_3   0.655311 0.092509 0.515538 -0.469643
N7    N     N_3   0.344677 0.907493 0.484469 -0.470106
N8    N     N_3   0.087877 0.664134 0.500369 -0.468635
N9    N     N_3   0.912174 0.335319 0.499818 -0.423809
N10   N     N_3   0.909640 0.662544 0.500195 -0.437328
O1    O     O_R   0.378020 0.573650 0.500030 -0.611304
O2    O     O_R   0.621980 0.426350 0.499970 -0.614174
O3    O     O_R   0.621980 0.573650 0.499970 -0.592336
O4    O     O_R   0.378020 0.426350 0.500030 -0.600465
O5    O     O_R   0.500000 0.573680 0.373720 -0.594175
O6    O     O_R   0.500000 0.426320 0.626280 -0.594354
O7    O     O_R   0.500000 0.573680 0.626280 -0.593320
O8    O     O_R   0.500000 0.426320 0.373720 -0.593487
Zn1   Zn    Zn3+2 0.500000 0.598370 0.500000 0.975304
Zn2   Zn    Zn3+2 0.500000 0.401630 0.500000 0.970463

loop_
_geom_bond_atom_site_label_1
_geom_bond_atom_site_label_2
_ccdc_geom_bond_type
H13   N6    S    
C1    C28   S    
C19   C23   A    
O2    Zn2   S    
H8    N2    S    
C6    N1    T    
C28   O4    A    
C9    C11   S    
C12   C24   T    
N1    Zn2   S    
C15   C27   A    
C6    C27   S    
C20   C23   A    
C4    C8    S    
H14   N7    S    
O6    Zn2   S    
C17   N4    S    
C2    C12   S    
C4    O6    A    
O7    Zn1   S    
C2    O3    A    
C10   C13   S    
C20   N8    S    
H10   N5    S    
C2    O2    A    
C21   C22   A    
C14   C26   A    
H9    N4    S    
C21   N9    S    
C11   C13   T    
C14   C17   A    
H16   N8    S    
H15   N7    S    
H12   N6    S    
C19   C21   A    
C28   O1    A    
H6    N10   S    
C3    C7    S    
C23   C25   S    
C14   N7    S    
N3    Zn1   S    
C22   C24   S    
C19   N2    S    
C18   N10   S    
H1    N4    S    
C5    C26   S    
C17   C27   A    
H4    N9    S    
C16   N5    S    
C3    O8    A    
C18   C20   A    
C8    C10   T    
C15   N6    S    
H5    N10   S    
C7    C9    T    
H2    N8    S    
C5    N3    T    
O8    Zn2   S    
O4    Zn2   S    
H11   N5    S    
C18   C22   A    
H7    N2    S    
O5    Zn1   S    
C4    O7    A    
C1    C25   T    
H3    N9    S    
C15   C16   A    
O3    Zn1   S    
O1    Zn1   S    
C16   C26   A    
C3    O5    A    
