data_mof_unit_44343.cif
_audit_creation_date              2013-03-05T15:50:44-0500
_audit_creation_method            fapswitch 2.2
_symmetry_space_group_name_H-M    P1
_symmetry_Int_Tables_number       1
_space_group_crystal_system       triclinic
_cell_length_a                    10.953187
_cell_length_b                    12.122884
_cell_length_c                    12.82503
_cell_angle_alpha                 93.54947
_cell_angle_beta                  93.24063
_cell_angle_gamma                 86.562926
_cell_volume                      1694.25151768

loop_
_atom_site_label
_atom_site_type_symbol
_atom_site_description
_atom_site_fract_x
_atom_site_fract_y
_atom_site_fract_z
_atom_type_partial_charge
O1    O     O_R   0.506240 0.421700 0.658830 -0.631052
O2    O     O_R   0.491240 0.609310 0.646410 -0.586766
C1    C     C_R   0.485583 0.521195 0.699406 1.001653
O3    O     O_R   0.692710 0.406190 0.506230 -0.538459
O4    O     O_R   0.677700 0.593810 0.493810 -0.559474
C2    C     C_R   0.741489 0.498446 0.491555 1.051495
Zn1   Zn    Zn3+2 0.510020 0.374730 0.508290 1.102761
Zn2   Zn    Zn3+2 0.489980 0.625270 0.491710 1.090780
O5    O     O_R   0.508760 0.390690 0.353590 -0.568426
O6    O     O_R   0.493760 0.578300 0.341170 -0.623153
O7    O     O_R   0.322300 0.406190 0.506190 -0.580244
O8    O     O_R   0.307290 0.593810 0.493770 -0.621240
C3    C     C_R   0.503957 0.478699 0.298516 0.932293
C4    C     C_R   0.258277 0.499037 0.496272 0.894930
C5    C     C_3   0.939315 0.369793 0.508655 0.336062
C6    C     C_3   0.080846 0.375984 0.503752 -0.024898
H1    H     H_    0.118657 0.357600 0.582126 0.231049
C7    C     C_3   0.918889 0.532529 0.373047 -0.025234
C8    C     C_3   0.929836 0.584036 0.573329 0.023220
C9    C     C_3   0.878709 0.494913 0.486840 -0.362772
H2    H     H_    0.908464 0.665141 0.540924 0.229179
C10   C     C_3   0.122051 0.497290 0.489115 -0.358161
C11   C     C_3   0.067311 0.544011 0.379657 -0.031140
C12   C     C_3   0.072768 0.574919 0.583836 0.034375
H3    H     H_    0.105184 0.658221 0.576308 0.205960
C13   C     C_R   0.493618 0.469190 0.183602 -0.051453
C14   C     C_R   0.451139 0.534267 0.808272 -0.179701
C15   C     C_R   0.437808 0.657162 0.962971 0.278528
C16   C     C_R   0.444597 0.641194 0.855708 -0.142211
C17   C     C_R   0.421135 0.443430 0.865325 0.001332
C18   C     C_R   0.410665 0.460843 0.974390 0.143348
C19   C     C_R   0.442881 0.563594 0.023353 -0.047141
C20   C     C_R   0.489244 0.567020 0.127924 -0.069609
C21   C     C_R   0.461338 0.368865 0.131493 -0.165847
C22   C     C_R   0.392604 0.373052 0.037560 -0.110168
H4    H     H_    0.446968 0.712828 0.809875 0.235380
N1    N     N_R   0.523380 0.207800 0.519350 -0.126677
N2    N     N_R   0.476620 0.792180 0.480650 -0.194684
C23   C     C_R   0.385327 0.948891 0.394187 0.195788
C24   C     C_R   0.397729 0.834887 0.406792 0.042058
C25   C     C_R   0.545108 0.859540 0.546488 0.405343
C26   C     C_R   0.533627 0.975745 0.539300 -0.024455
C27   C     C_R   0.458821 0.021996 0.459121 -0.155698
C28   C     C_R   0.463242 0.138181 0.445818 0.145779
C29   C     C_R   0.587633 0.160436 0.603033 0.057457
C30   C     C_R   0.595892 0.045753 0.610969 -0.199463
H5    H     H_    0.650258 0.011352 0.675712 0.202217
H6    H     H_    0.344721 0.779493 0.356564 0.235932
N3    N     N_R   0.894419 0.278835 0.432945 0.268147
O9    O     O_R   0.792985 0.288289 0.376013 -0.256096
O10   O     O_R   0.941392 0.177918 0.439637 -0.194796
C31   C     C_2   0.860461 0.643820 0.336315 0.573106
H7    H     H_    0.878061 0.665668 0.257858 0.128435
O11   O     O_2   0.797236 0.709269 0.388789 -0.508489
N4    N     N_R   0.099329 0.662736 0.372598 0.186092
O12   O     O_R   0.162758 0.691093 0.296520 -0.326999
O13   O     O_R   0.052265 0.743852 0.431460 -0.352172
C32   C     C_2   0.569212 0.657606 0.165937 0.545113
H8    H     H_    0.665918 0.649550 0.151145 0.082877
O14   O     O_2   0.528055 0.740809 0.213136 -0.494421
C33   C     C_2   0.529436 0.262597 0.152451 0.517174
H9    H     H_    0.500548 0.186012 0.112992 0.066010
O15   O     O_2   0.623658 0.259504 0.207855 -0.434030
N5    N     N_R   0.417234 0.767258 0.008531 0.235001
O16   O     O_R   0.465977 0.850263 0.970247 -0.314028
O17   O     O_R   0.331787 0.786844 0.074744 -0.227263
C34   C     C_2   0.297012 0.291840 0.012509 0.588926
H10   H     H_    0.295630 0.218416 0.056596 0.083774
O18   O     O_2   0.214627 0.309340 0.946367 -0.454457
C35   C     C_2   0.414571 0.329595 0.814468 0.506892
H11   H     H_    0.362822 0.315568 0.740774 0.146407
O19   O     O_2   0.468860 0.250342 0.853957 -0.614077
C36   C     C_2   0.419886 0.176819 0.343761 0.578199
H12   H     H_    0.444637 0.127033 0.274464 0.039280
O20   O     O_2   0.349350 0.256949 0.334901 -0.544448
N6    N     N_R   0.918548 0.334626 0.615571 0.234015
O21   O     O_R   0.905068 0.230358 0.628271 -0.279572
O22   O     O_R   0.957289 0.391660 0.698652 -0.266218
C37   C     C_2   0.652437 0.222143 0.690270 0.574680
H13   H     H_    0.670971 0.184007 0.764371 0.108467
O23   O     O_2   0.693540 0.311322 0.681202 -0.452038
N7    N     N_R   0.290494 0.987629 0.321879 0.208551
O24   O     O_R   0.301019 0.965553 0.222203 -0.280063
O25   O     O_R   0.183123 0.017444 0.355703 -0.194316
N8    N     N_R   0.636470 0.811707 0.616382 0.227201
O26   O     O_R   0.750650 0.819088 0.596614 -0.301880
O27   O     O_R   0.609471 0.796991 0.711693 -0.354400
N9    N     N_R   0.139862 0.284728 0.440052 0.260746
O28   O     O_R   0.112147 0.267193 0.340870 -0.260381
O29   O     O_R   0.200525 0.205761 0.488699 -0.304003
N10   N     N_R   0.872527 0.453305 0.288469 0.221661
O30   O     O_R   0.937629 0.370774 0.246951 -0.216001
O31   O     O_R   0.758883 0.464708 0.253682 -0.426119
C38   C     C_2   0.131691 0.481984 0.288366 0.633814
H14   H     H_    0.214293 0.430397 0.301709 0.075882
O32   O     O_2   0.100406 0.500438 0.197732 -0.466180
N11   N     N_R   0.870430 0.597429 0.674976 0.293629
O33   O     O_R   0.887700 0.686788 0.734229 -0.210710
O34   O     O_R   0.781632 0.537636 0.697074 -0.303425
N12   N     N_R   0.123492 0.550309 0.690168 0.258392
O35   O     O_R   0.116429 0.628120 0.764486 -0.260650
O36   O     O_R   0.202991 0.468610 0.706030 -0.444033

loop_
_geom_bond_atom_site_label_1
_geom_bond_atom_site_label_2
_geom_bond_distance
_ccdc_geom_bond_type
N4    O12   1.303710 A    
C25   C26   1.415052 A    
C20   C32   1.487146 S    
C14   C16   1.397026 A    
C36   H12   1.081118 S    
C8    C9    1.601635 S    
N11   O33   1.301217 A    
C8    N11   1.485345 S    
C7    C31   1.546877 S    
N8    O26   1.299408 A    
Zn1   O7    2.067570 S    
C16   H4    1.080732 S    
C7    N10   1.491334 S    
C15   C16   1.382846 A    
C8    H2    1.098292 S    
N6    O22   1.298571 A    
C17   C18   1.411705 A    
O7    C4    1.299169 A    
C32   O14   1.219737 D    
C5    C6    1.561503 S    
C24   H6    1.074214 S    
C21   C22   1.386044 A    
C26   C30   1.390039 A    
C33   O15   1.219479 D    
O5    C3    1.312393 A    
N11   O34   1.301113 A    
C13   C21   1.405366 A    
C6    H1    1.095958 S    
N3    O10   1.304351 A    
C35   H11   1.083766 S    
C5    N6    1.494303 S    
C12   N12   1.483982 S    
C14   C17   1.423526 A    
C36   O20   1.211278 D    
C28   C36   1.461875 S    
Zn2   N2    2.033099 S    
O3    Zn1   2.061319 S    
C17   C35   1.493374 S    
C31   O11   1.217665 D    
N8    O27   1.299093 A    
C5    C9    1.652415 S    
C7    C11   1.636927 S    
C15   C19   1.409182 A    
N6    O21   1.302577 A    
N2    C25   1.363455 A    
O3    C2    1.296451 A    
N10   O30   1.297869 A    
C37   O23   1.210312 D    
C23   C27   1.430152 A    
C32   H8    1.084217 S    
C29   C30   1.397439 A    
C21   C33   1.480966 S    
C34   H10   1.084944 S    
O1    C1    1.296033 A    
N5    O17   1.300648 A    
C27   C28   1.433234 A    
N10   O31   1.300696 A    
C13   C20   1.418778 A    
C18   C19   1.414665 A    
C22   C34   1.488349 S    
Zn2   O8    2.061320 S    
N12   O36   1.296952 A    
Zn1   N1    2.033340 S    
C38   H14   1.080220 S    
C29   C37   1.478319 S    
C12   H3    1.101883 S    
C38   O32   1.223347 D    
C15   N5    1.433816 S    
O8    C4    1.299896 A    
N3    O9    1.297693 A    
N7    O25   1.299693 A    
N4    O13   1.301502 A    
C10   C12   1.588851 S    
C3    C13   1.469611 S    
C26   C27   1.401498 A    
N1    C29   1.385386 A    
C23   C24   1.399051 A    
C2    C9    1.505565 S    
C31   H7    1.086651 S    
Zn1   O5    2.004526 S    
C30   H5    1.084057 S    
C6    C10   1.588993 S    
O1    Zn1   1.980796 S    
O2    Zn2   2.004527 S    
C23   N7    1.430381 S    
N9    O29   1.303073 A    
O6    C3    1.295616 A    
O4    Zn2   2.067569 S    
C11   N4    1.510960 S    
C25   N8    1.426380 S    
C11   C38   1.534358 S    
N5    O16   1.301505 A    
C4    C10   1.491093 S    
N1    C28   1.390475 A    
C1    C14   1.463503 S    
C8    C12   1.561603 S    
C19   C20   1.406009 A    
N2    C24   1.351483 A    
O4    C2    1.314093 A    
C18   C22   1.406519 A    
N12   O35   1.300967 A    
O2    C1    1.307463 A    
C7    C9    1.646390 S    
C5    N3    1.509634 S    
C33   H9    1.084962 S    
C37   H13   1.086027 S    
N9    O28   1.298438 A    
Zn2   O6    1.980796 S    
N7    O24   1.299878 A    
C6    N9    1.473494 S    
C10   C11   1.616630 S    
C35   O19   1.221018 D    
C34   O18   1.221328 D    
