data_mof_unit_13907.cif
_audit_creation_date              2012-10-26T20:07:08-0400
_audit_creation_method            fapswitch 2.2
_symmetry_space_group_name_H-M    P1
_symmetry_Int_Tables_number       1
_space_group_crystal_system       triclinic
_cell_length_a                    10.96175
_cell_length_b                    9.694124
_cell_length_c                    27.782239
_cell_angle_alpha                 89.777729
_cell_angle_beta                  92.351433
_cell_angle_gamma                 91.710123
_cell_volume                      2948.45735968

loop_
_atom_site_label
_atom_site_type_symbol
_atom_type_description
_atom_site_fract_x
_atom_site_fract_y
_atom_site_fract_z
_atom_type_partial_charge
C1    C     C_R   0.262369 0.498487 0.501298 0.553878
C2    C     C_R   0.446836 0.580776 0.872559 0.032157
C3    C     C_R   0.513740 0.498299 0.355287 -0.064511
C4    C     C_R   0.507792 0.499377 0.645363 -0.047035
C5    C     C_R   0.440768 0.563159 0.974197 -0.014425
C6    C     C_R   0.643876 0.460432 0.027501 -0.014681
C7    C     C_R   0.638010 0.449374 0.976522 -0.014479
C8    C     C_R   0.434921 0.545482 0.024616 -0.015362
C9    C     C_R   0.538734 0.506920 0.949988 0.018452
C10   C     C_R   0.539210 0.501080 0.051371 0.015238
C11   C     C_R   0.351935 0.635992 0.947332 -0.128082
C12   C     C_R   0.737270 0.501363 0.499585 0.571758
C13   C     C_R   0.751550 0.435842 0.055431 -0.122097
C14   C     C_R   0.354182 0.645657 0.897186 0.293196
C15   C     C_R   0.753193 0.441808 0.105718 0.284116
C16   C     C_R   0.504158 0.500103 0.407914 0.591119
C17   C     C_R   0.500874 0.499771 0.592286 0.611106
C18   C     C_R   0.326045 0.563521 0.048837 -0.124871
C19   C     C_R   0.726817 0.380385 0.951290 -0.125229
C20   C     C_R   0.057523 0.372892 0.498778 0.210133
C21   C     C_R   0.940239 0.623191 0.511228 0.205303
C22   C     C_R   0.930620 0.377662 0.491270 0.215041
C23   C     C_R   0.538345 0.496420 0.102316 -0.129641
C24   C     C_R   0.067239 0.622668 0.508766 0.203932
C25   C     C_R   0.871262 0.501829 0.500234 -0.059365
C26   C     C_R   0.127712 0.497076 0.503780 -0.060070
C27   C     C_R   0.465804 0.073488 0.459503 0.305153
C28   C     C_R   0.513261 0.927625 0.541863 0.328936
C29   C     C_R   0.526872 0.073902 0.541162 0.307470
C30   C     C_R   0.475711 0.926438 0.458239 0.311584
C31   C     C_R   0.435478 0.531223 0.176623 0.435406
C32   C     C_R   0.611405 0.423958 0.823806 0.460357
C33   C     C_R   0.637244 0.446345 0.179863 0.434807
C34   C     C_R   0.536728 0.507315 0.898977 -0.123076
C35   C     C_R   0.452561 0.586525 0.822090 0.459223
C36   C     C_R   0.623021 0.557499 0.282940 0.264384
C37   C     C_R   0.416527 0.446826 0.722086 0.255078
C38   C     C_R   0.616774 0.557383 0.333473 0.158671
C39   C     C_R   0.414762 0.434165 0.671401 0.166360
C40   C     C_R   0.422821 0.429121 0.326722 0.213880
C41   C     C_R   0.607202 0.566480 0.670146 0.172925
C42   C     C_R   0.437402 0.412890 0.277285 0.280245
C43   C     C_R   0.621231 0.551801 0.720818 0.246421
C44   C     C_R   0.533531 0.483863 0.254605 0.134783
C45   C     C_R   0.431515 0.526636 0.126051 0.017157
C46   C     C_R   0.522749 0.498940 0.746758 0.175102
C47   C     C_3   0.229378 0.469862 0.346987 -0.121379
C48   C     C_3   0.702167 0.779510 0.661716 -0.059422
C49   C     C_3   0.286060 0.147806 0.425041 0.087073
C50   C     C_3   0.214989 0.077090 0.383354 -0.383559
C51   C     C_3   0.374804 0.864222 0.596875 0.026160
C52   C     C_3   0.361216 0.840785 0.650574 -0.368694
C53   C     C_3   0.667757 0.149404 0.598690 0.010896
C54   C     C_3   0.681556 0.163655 0.653174 -0.371486
C55   C     C_3   0.513195 0.889387 0.378407 0.016924
C56   C     C_R   0.624198 0.433729 0.874390 0.028552
C57   C     C_3   0.445458 0.855869 0.330718 -0.360646
C58   C     C_3   0.396621 0.200930 0.245805 -0.107463
C59   C     C_3   0.827483 0.525079 0.732767 -0.083768
C60   C     C_3   0.172616 0.398762 0.120772 -0.073414
C61   C     C_3   0.912951 0.384798 0.874036 -0.101872
C62   C     C_3   0.318015 0.225260 0.654990 0.029994
C63   C     C_3   0.192615 0.172005 0.669783 -0.399691
C64   C     C_3   0.805842 0.532299 0.368729 0.026506
C65   C     C_3   0.919441 0.616258 0.384828 -0.373588
C66   C     C_3   0.215259 0.480806 0.737232 -0.071956
C67   C     C_R   0.322675 0.547499 0.098671 0.287673
C68   C     C_3   0.702773 0.759144 0.254193 -0.104282
C69   C     C_3   0.155648 0.641883 0.870100 -0.103277
C70   C     C_3   0.905971 0.573523 0.140333 -0.068413
C71   C     C_3   0.136289 0.199795 0.544009 -0.131437
C72   C     C_3   0.902606 0.790983 0.565365 -0.094635
C73   C     C_3   0.858669 0.150284 0.494033 -0.035882
C74   C     C_3   0.132425 0.810549 0.467230 -0.083165
C75   C     C_R   0.720515 0.371461 0.900999 0.291505
C76   C     C_R   0.643799 0.460338 0.129510 0.012789
Cu1   Cu    Cu3+1 0.500000 0.640660 0.500000 1.064640
Cu2   Cu    Cu3+1 0.500000 0.359340 0.500000 1.023778
H1    H     H_    0.281766 0.690913 0.964790 0.121142
H2    H     H_    0.711649 0.850228 0.630879 0.147055
H3    H     H_    0.262580 0.257949 0.424377 0.233318
H4    H     H_    0.253319 0.103916 0.459248 0.133260
H5    H     H_    0.226303 0.964017 0.385095 0.142602
H6    H     H_    0.116286 0.097762 0.385642 0.118695
H7    H     H_    0.246682 0.116612 0.348361 0.203636
H8    H     H_    0.324800 0.779434 0.577042 0.202395
H9    H     H_    0.329646 0.962262 0.587119 0.086885
H10   H     H_    0.406336 0.927156 0.671275 0.153130
H11   H     H_    0.262947 0.834082 0.658717 0.092181
H12   H     H_    0.837595 0.420096 0.038953 0.115497
H13   H     H_    0.402970 0.742995 0.662037 0.156659
H14   H     H_    0.709174 0.243212 0.582238 0.159401
H15   H     H_    0.718844 0.057764 0.588087 0.078806
H16   H     H_    0.635919 0.074524 0.670927 0.157298
H17   H     H_    0.779909 0.167488 0.664539 0.086345
H18   H     H_    0.639464 0.259748 0.664943 0.150164
H19   H     H_    0.595671 0.826692 0.382246 0.196898
H20   H     H_    0.545663 0.998896 0.376722 0.151215
H21   H     H_    0.365534 0.921992 0.325372 0.144808
H22   H     H_    0.505976 0.876114 0.300447 0.079522
H23   H     H_    0.240176 0.579666 0.029418 0.114844
H24   H     H_    0.413080 0.746521 0.329903 0.152862
H25   H     H_    0.414753 0.151758 0.281577 0.127411
H26   H     H_    0.480538 0.202469 0.224557 0.124291
H27   H     H_    0.326283 0.136145 0.226014 0.137601
H28   H     H_    0.806074 0.412789 0.727874 0.145803
H29   H     H_    0.899417 0.535274 0.761899 0.115955
H30   H     H_    0.866628 0.567791 0.699480 0.129041
H31   H     H_    0.246411 0.329352 0.133790 0.122331
H32   H     H_    0.136616 0.365529 0.084516 0.111751
H33   H     H_    0.098582 0.384918 0.146372 0.196854
H34   H     H_    0.799780 0.326938 0.969983 0.122198
H35   H     H_    0.956731 0.408936 0.909976 0.088613
H36   H     H_    0.891441 0.481842 0.854267 0.117631
H37   H     H_    0.980184 0.329707 0.853019 0.148095
H38   H     H_    0.388254 0.190149 0.682273 0.152791
H39   H     H_    0.338309 0.176194 0.620548 0.178389
H40   H     H_    0.182508 0.059621 0.662960 0.087456
H41   H     H_    0.181728 0.189741 0.708765 0.186571
H42   H     H_    0.119008 0.224856 0.648989 0.133753
H43   H     H_    0.827656 0.474565 0.335646 0.174317
H44   H     H_    0.782752 0.456839 0.397389 0.167143
H45   H     H_    0.145550 0.420089 0.360927 0.132436
H46   H     H_    0.897438 0.688372 0.413914 0.183878
H47   H     H_    0.991458 0.546532 0.398499 0.078503
H48   H     H_    0.954166 0.677246 0.354083 0.151355
H49   H     H_    0.238535 0.591381 0.729931 0.149392
H50   H     H_    0.155164 0.477139 0.768373 0.112732
H51   H     H_    0.161253 0.437803 0.705930 0.140490
H52   H     H_    0.707178 0.815352 0.289033 0.144103
H53   H     H_    0.614704 0.776147 0.233890 0.109226
H54   H     H_    0.776742 0.802946 0.232174 0.133079
H55   H     H_    0.114569 0.634668 0.905990 0.093077
H56   H     H_    0.206389 0.507400 0.309870 0.170757
H57   H     H_    0.168500 0.536705 0.855475 0.105883
H58   H     H_    0.089832 0.694244 0.845318 0.149289
H59   H     H_    0.983901 0.572090 0.167014 0.190498
H60   H     H_    0.835460 0.637764 0.156338 0.125729
H61   H     H_    0.938327 0.622733 0.106754 0.123882
H62   H     H_    0.182997 0.100233 0.542361 0.119481
H63   H     H_    0.051291 0.181385 0.563664 0.083152
H64   H     H_    0.196962 0.273434 0.564814 0.177502
H65   H     H_    0.875747 0.708927 0.591267 0.151459
H66   H     H_    0.845884 0.881473 0.570676 0.100663
H67   H     H_    0.256203 0.558098 0.371063 0.105862
H68   H     H_    0.998546 0.826037 0.573314 0.144981
H69   H     H_    0.858130 0.170113 0.533294 0.065338
H70   H     H_    0.771308 0.095272 0.483794 0.127495
H71   H     H_    0.933192 0.080350 0.485744 0.169013
H72   H     H_    0.146484 0.737241 0.437240 0.108900
H73   H     H_    0.210647 0.884405 0.467663 0.144642
H74   H     H_    0.047303 0.867948 0.460297 0.139480
H75   H     H_    0.786231 0.792613 0.685032 0.131998
H76   H     H_    0.621922 0.813855 0.681430 0.143551
N1    N     N_R   0.535865 0.486985 0.202642 -0.393762
N2    N     N_R   0.528968 0.502861 0.798697 -0.360876
N3    N     N_R   0.500000 0.852070 0.500000 -0.270904
N4    N     N_R   0.500000 0.147930 0.500000 -0.282974
O1    O     O_R   0.319640 0.618740 0.500000 -0.474175
O2    O     O_2   0.679344 0.335434 0.799874 -0.454195
O3    O     O_2   0.383568 0.675760 0.796499 -0.458703
O4    O     O_2   0.730100 0.389899 0.205677 -0.419365
O5    O     O_3   0.321099 0.371000 0.347252 -0.550913
O6    O     O_3   0.690898 0.642616 0.644076 -0.573980
O7    O     O_3   0.413439 0.138788 0.419784 -0.525760
O8    O     O_3   0.500289 0.865994 0.586179 -0.522604
O9    O     O_3   0.542511 0.139416 0.584998 -0.534490
O10   O     O_3   0.435205 0.858334 0.416714 -0.538235
O11   O     O_3   0.351676 0.334654 0.250651 -0.509418
O12   O     O_R   0.680360 0.381260 0.500000 -0.498531
O13   O     O_3   0.725494 0.600353 0.746056 -0.545433
O14   O     O_3   0.210786 0.539432 0.119802 -0.543330
O15   O     O_3   0.808053 0.298467 0.878303 -0.506893
O16   O     O_3   0.316465 0.369747 0.647024 -0.577646
O17   O     O_3   0.708506 0.622844 0.361098 -0.571262
O18   O     O_3   0.318547 0.400401 0.748391 -0.542578
O19   O     O_3   0.723280 0.617950 0.261622 -0.514440
O20   O     O_3   0.266047 0.720680 0.872522 -0.504966
O21   O     O_3   0.863855 0.436428 0.131174 -0.545266
O22   O     O_3   0.112024 0.247144 0.496544 -0.585123
O23   O     O_R   0.680360 0.618740 0.500000 -0.443308
O24   O     O_3   0.883219 0.747091 0.517292 -0.543640
O25   O     O_3   0.867443 0.271960 0.466202 -0.549484
O26   O     O_3   0.132167 0.746512 0.512823 -0.572974
O27   O     O_R   0.319640 0.381260 0.500000 -0.496380
O28   O     O_R   0.500020 0.618770 0.430260 -0.456376
O29   O     O_R   0.499980 0.381230 0.569740 -0.459921
O30   O     O_R   0.499980 0.618770 0.569740 -0.445760
O31   O     O_R   0.500020 0.381230 0.430260 -0.444209
O32   O     O_2   0.340599 0.582176 0.199638 -0.435473

loop_
_geom_bond_atom_site_label_1
_geom_bond_atom_site_label_2
_ccdc_geom_bond_type
C2    C35   A    
C49   H4    S    
C30   N3    A    
C48   H75   S    
C47   H67   S    
C34   C56   A    
C23   C45   A    
C15   O21   S    
C13   H12   S    
C24   O26   S    
C23   C76   A    
C74   H74   S    
C50   H6    S    
C20   O22   S    
C53   C54   S    
C27   N4    A    
C62   H38   S    
C57   H24   S    
C31   O32   S    
C35   O3    S    
C73   H69   S    
C28   C29   A    
C24   C26   A    
C5    C11   A    
C73   O25   S    
C11   C14   A    
C64   H44   S    
C70   O21   S    
C74   O26   S    
C4    C41   A    
C17   O30   A    
C64   H43   S    
C62   O16   S    
C68   O19   S    
Cu2   O12   S    
C66   H49   S    
C72   H66   S    
C65   H46   S    
C49   H3    S    
C68   H54   S    
C62   H39   S    
C21   C25   A    
C60   H31   S    
C50   H7    S    
C32   N2    A    
C53   O9    S    
C3    C38   A    
C75   O15   S    
C22   C25   A    
C45   C67   A    
Cu1   O23   S    
C54   H18   S    
C28   O8    S    
C71   H63   S    
C66   H51   S    
C47   O5    S    
C2    C34   A    
C40   C42   A    
C15   C76   A    
C70   H61   S    
C69   H57   S    
C56   C75   A    
C27   C30   A    
Cu1   O28   S    
C41   C43   A    
C66   O18   S    
C52   H11   S    
Cu2   O31   S    
C42   C44   A    
C55   O10   S    
C53   H14   S    
C39   O16   S    
C59   O13   S    
C51   H8    S    
Cu2   N4    S    
C50   H5    S    
C21   O24   S    
C59   H28   S    
C73   H70   S    
C53   H15   S    
C51   C52   S    
C60   O14   S    
C52   H10   S    
C58   O11   S    
C61   O15   S    
C35   N2    A    
C58   H25   S    
C40   O5    S    
C51   H9    S    
C63   H40   S    
C43   O13   S    
C61   H37   S    
C12   O12   A    
C18   C67   A    
Cu1   Cu2   S    
C57   H22   S    
C59   H29   S    
C18   H23   S    
C65   H47   S    
C71   O22   S    
C68   H53   S    
C5    C9    A    
C22   O25   S    
C42   O11   S    
C69   O20   S    
C63   H41   S    
C33   C76   A    
C47   H45   S    
C12   O23   A    
C4    C39   A    
C1    O1    A    
C55   H19   S    
C62   C63   S    
Cu2   O27   S    
C19   H34   S    
C64   O17   S    
C68   H52   S    
C13   C15   A    
C54   H17   S    
C6    C7    A    
C11   H1    S    
Cu1   O1    S    
C71   H64   S    
C4    C17   S    
C27   O7    S    
C3    C40   A    
C70   H60   S    
C69   H58   S    
C7    C19   A    
C55   C57   S    
C47   H56   S    
C61   H35   S    
C9    C34   A    
C67   O14   S    
C74   H73   S    
C36   C44   A    
C58   H26   S    
C21   C24   A    
C14   O20   S    
C7    C9    A    
C48   H76   S    
C69   H55   S    
C73   H71   S    
C44   N1    S    
C49   O7    S    
C36   O19   S    
C20   C22   A    
C52   H13   S    
C6    C10   A    
C5    C8    A    
C31   N1    A    
C33   N1    A    
C71   H62   S    
C48   O6    S    
C1    O27   A    
C10   C23   A    
C46   N2    S    
C59   H30   S    
C12   C25   S    
C58   H27   S    
C64   C65   S    
C29   O9    S    
C36   C38   A    
C33   O4    S    
C30   O10   S    
C37   C39   A    
C60   H33   S    
C16   O28   A    
C65   H48   S    
C6    C13   A    
C29   N4    A    
C63   H42   S    
C48   H2    S    
C38   O17   S    
C1    C26   S    
C72   H65   S    
C20   C26   A    
C17   O29   A    
C72   H68   S    
C55   H20   S    
C19   C75   A    
C28   N3    A    
C66   H50   S    
C2    C14   A    
C43   C46   A    
C8    C18   A    
C54   H16   S    
C60   H32   S    
C16   O31   A    
C72   O24   S    
C70   H59   S    
C8    C10   A    
C49   C50   S    
C31   C45   A    
C41   O6    S    
C61   H36   S    
Cu1   O30   S    
C74   H72   S    
C51   O8    S    
Cu2   O29   S    
C32   O2    S    
C37   C46   A    
C32   C56   A    
C3    C16   S    
Cu1   N3    S    
C37   O18   S    
C57   H21   S    
