data_mof_unit_66729.cif
_audit_creation_date              2012-12-11T14:04:27-0500
_audit_creation_method            fapswitch 2.2
_symmetry_space_group_name_H-M    P1
_symmetry_Int_Tables_number       1
_space_group_crystal_system       triclinic
_cell_length_a                    20.247699
_cell_length_b                    22.814239
_cell_length_c                    8.540719
_cell_angle_alpha                 90.0
_cell_angle_beta                  104.068387
_cell_angle_gamma                 89.511967
_cell_volume                      3826.78355562

loop_
_atom_site_label
_atom_site_type_symbol
_atom_type_description
_atom_site_fract_x
_atom_site_fract_y
_atom_site_fract_z
_atom_type_partial_charge
Ba1   Ba    Ba6+2 0.999900 0.456810 0.844860 1.673906
Ba2   Ba    Ba6+2 0.999900 0.543190 0.344860 1.768174
Ba3   Ba    Ba6+2 0.499900 0.956810 0.844860 1.638401
Ba4   Ba    Ba6+2 0.499900 0.043190 0.344860 1.770187
C1    C     C_3   0.053316 0.186127 0.592851 0.538667
C2    C     C_3   0.068249 0.813587 0.229199 0.558960
C3    C     C_3   0.551427 0.678728 0.608738 0.566123
C4    C     C_3   0.569628 0.309829 0.239994 0.531920
C5    C     C_R   0.133810 0.689676 0.832171 0.025944
C6    C     C_R   0.137474 0.314000 0.327714 0.030692
C7    C     C_R   0.630099 0.192107 0.838482 0.041365
C8    C     C_R   0.633912 0.810710 0.333474 0.055937
C9    C     C_R   0.184023 0.731822 0.896375 0.345735
C10   C     C_R   0.195094 0.277713 0.384713 0.387393
C11   C     C_R   0.681504 0.233319 0.902514 0.350443
C12   C     C_R   0.690812 0.773796 0.392792 0.368103
C13   C     C_R   0.228165 0.725588 0.054717 0.012211
C14   C     C_R   0.231713 0.277552 0.550980 0.021812
C15   C     C_R   0.726265 0.226357 0.060433 0.013520
C16   C     C_R   0.729125 0.776082 0.557800 0.001363
C17   C     C_R   0.213507 0.675076 0.146074 0.310382
C18   C     C_R   0.213724 0.325698 0.645738 0.305970
C19   C     C_R   0.711941 0.175514 0.151933 0.376260
C20   C     C_R   0.708108 0.821705 0.655547 0.343861
C21   C     C_R   0.157978 0.635782 0.084666 0.061304
C22   C     C_R   0.157509 0.364594 0.584014 0.103361
C23   C     C_R   0.655094 0.137453 0.090056 0.049525
C24   C     C_R   0.654196 0.862495 0.588986 0.069938
C25   C     C_R   0.814182 0.276685 0.294484 -0.065075
C26   C     C_R   0.843636 0.744937 0.757165 -0.095235
C27   C     C_R   0.317266 0.775753 0.288128 -0.087982
C28   C     C_R   0.324662 0.229602 0.781803 -0.113965
C29   C     C_R   0.868099 0.314262 0.358823 -0.050541
C30   C     C_R   0.894081 0.703478 0.822915 -0.027044
C31   C     C_R   0.373367 0.811211 0.351124 -0.035943
C32   C     C_R   0.382525 0.195482 0.842907 -0.040065
C33   C     C_R   0.856712 0.360177 0.097839 0.065998
C34   C     C_R   0.856917 0.641073 0.589455 0.059650
C35   C     C_R   0.359049 0.858923 0.092026 0.062577
C36   C     C_R   0.359577 0.140829 0.591519 0.063965
C37   C     C_R   0.809933 0.314570 0.028949 -0.157047
C38   C     C_R   0.797108 0.677169 0.544123 -0.116055
C39   C     C_R   0.311377 0.814009 0.023065 -0.169022
C40   C     C_R   0.306306 0.181946 0.526175 -0.139559
C41   C     C_R   0.784890 0.271875 0.126509 0.075682
C42   C     C_R   0.790450 0.732715 0.619556 0.058431
C43   C     C_R   0.286859 0.771174 0.120677 0.056707
C44   C     C_R   0.289195 0.230586 0.617508 0.037851
C45   C     C_3   0.981026 0.242853 0.064474 0.587043
C46   C     C_3   0.987936 0.764797 0.601861 0.499632
C47   C     C_3   0.474157 0.744196 0.054332 0.784377
C48   C     C_3   0.474640 0.258233 0.588564 0.379665
C49   C     C_R   0.888038 0.356530 0.261972 -0.173824
C50   C     C_R   0.906942 0.657116 0.726644 -0.245927
C51   C     C_R   0.393197 0.853521 0.254288 -0.155478
C52   C     C_R   0.400890 0.151447 0.745871 -0.262155
C53   C     C_3   0.951009 0.181594 0.065164 0.702602
C54   C     C_3   0.958446 0.827009 0.575826 0.648835
C55   C     C_3   0.438433 0.685178 0.046640 0.723993
C56   C     C_3   0.437227 0.317439 0.573423 0.719521
C57   C     C_3   0.229178 0.494736 0.388446 0.620235
C58   C     C_3   0.227805 0.506155 0.885404 0.622293
C59   C     C_3   0.719585 0.979499 0.336661 0.627585
C60   C     C_3   0.717720 0.020982 0.829733 0.627321
C61   C     C_3   0.286114 0.533625 0.487467 0.360425
C62   C     C_3   0.285894 0.468182 0.987553 0.353005
C63   C     C_3   0.791290 0.980669 0.448670 0.243154
C64   C     C_3   0.788759 0.018119 0.942646 0.253858
C65   C     C_3   0.755079 0.518995 0.929455 1.023074
C66   C     C_3   0.746749 0.489977 0.436774 1.057176
C67   C     C_3   0.251601 0.016651 0.938987 1.023252
C68   C     C_3   0.246656 0.992600 0.441292 1.041169
C69   C     C_3   0.677807 0.520187 0.841017 0.293730
C70   C     C_3   0.667951 0.503489 0.397526 0.276183
C71   C     C_3   0.183016 0.017864 0.991968 0.289027
C72   C     C_3   0.167763 0.007466 0.399391 0.193553
C73   C     C_3   1.000000 0.232673 0.521345 0.365305
C74   C     C_3   0.034091 0.757732 0.156196 0.368498
C75   C     C_3   0.513936 0.736998 0.561364 0.280745
C76   C     C_3   0.532459 0.256131 0.157240 0.368720
C77   C     C_R   0.119414 0.644389 0.927844 -0.351488
C78   C     C_R   0.118426 0.355833 0.427743 -0.346966
C79   C     C_R   0.615451 0.147067 0.934518 -0.371813
C80   C     C_R   0.616429 0.854353 0.430998 -0.377523
H1    H     H_    0.027373 0.273311 0.503551 0.010254
H2    H     H_    0.052831 0.721256 0.242114 0.065494
H3    H     H_    0.549822 0.773225 0.606911 0.042368
H4    H     H_    0.551071 0.218051 0.237110 0.064006
H5    H     H_    0.262831 0.569738 0.542500 0.132229
H6    H     H_    0.263731 0.432473 0.045583 0.112971
H7    H     H_    0.796320 0.019550 0.528620 0.116925
H8    H     H_    0.791722 0.982139 0.031514 0.109129
H9    H     H_    0.316338 0.551797 0.407619 0.145978
H10   H     H_    0.316567 0.449227 0.909109 0.146548
H11   H     H_    0.829760 0.984351 0.375931 0.107037
H12   H     H_    0.827459 0.009326 0.872661 0.125275
H13   H     H_    0.666667 0.560387 0.764947 0.057410
H14   H     H_    0.635894 0.463887 0.387880 -0.036536
H15   H     H_    0.183289 0.058362 0.066177 -0.000183
H16   H     H_    0.157614 0.031547 0.504223 0.090804
H17   H     H_    0.647375 0.522986 0.933230 0.007013
H18   H     H_    0.657945 0.529765 0.498459 0.099630
H19   H     H_    0.178334 0.979565 0.066681 0.075515
H20   H     H_    0.155641 0.038747 0.296521 0.051252
H21   H     H_    0.969671 0.217373 0.403052 0.006473
H22   H     H_    0.048075 0.748726 0.040192 -0.071886
H23   H     H_    0.498123 0.740003 0.427827 0.013725
H24   H     H_    0.544878 0.249328 0.038631 -0.067409
H25   H     H_    0.794082 0.254375 0.382328 0.201409
H26   H     H_    0.848301 0.785966 0.818756 0.180498
H27   H     H_    0.295281 0.756753 0.377453 0.210787
H28   H     H_    0.303972 0.248456 0.872470 0.162173
H29   H     H_    0.792296 0.315420 0.900607 0.167416
H30   H     H_    0.755555 0.660123 0.452468 0.186266
H31   H     H_    0.292481 0.815574 0.894967 0.165667
H32   H     H_    0.274499 0.170100 0.411117 0.183930
H33   H     H_    0.925224 0.388912 0.316946 0.067520
H34   H     H_    0.949702 0.628158 0.773421 0.038948
H35   H     H_    0.430968 0.885476 0.309038 0.051323
H36   H     H_    0.441553 0.121063 0.798324 0.042932
H37   H     H_    0.079825 0.613511 0.876285 0.070012
H38   H     H_    0.075388 0.384462 0.379544 0.075867
H39   H     H_    0.575276 0.116674 0.883207 0.077367
H40   H     H_    0.575101 0.884354 0.380054 0.083846
H41   H     H_    0.028116 0.144936 0.614770 0.062576
H42   H     H_    0.047475 0.828419 0.330782 0.161888
H43   H     H_    0.514500 0.642687 0.602915 0.100678
H44   H     H_    0.549704 0.323502 0.343079 0.167626
H45   H     H_    0.953564 0.266670 0.954026 0.063993
H46   H     H_    0.950087 0.733930 0.530882 -0.010811
H47   H     H_    0.452553 0.768789 0.940949 -0.003413
H48   H     H_    0.444117 0.228125 0.497130 0.006606
H49   H     H_    0.972567 0.266595 0.171648 -0.665694
H50   H     H_    0.996913 0.754904 0.732880 -0.281017
H51   H     H_    0.463110 0.768373 0.157545 -0.566889
H52   H     H_    0.477115 0.241987 0.712334 -0.162835
H53   H     H_    0.899747 0.187375 0.089835 0.010961
H54   H     H_    0.921230 0.831454 0.652084 0.023239
H55   H     H_    0.383020 0.694766 0.030435 -0.072261
H56   H     H_    0.384124 0.307676 0.579593 -0.097774
H57   H     H_    0.185442 0.491242 0.443484 0.004574
H58   H     H_    0.183926 0.509758 0.940266 -0.003750
H59   H     H_    0.680277 0.980835 0.407253 -0.005034
H60   H     H_    0.678061 0.020933 0.899564 -0.023577
O1    O     O_2   0.866180 0.413660 0.823810 -0.441826
O2    O     O_2   0.866180 0.586340 0.323810 -0.463392
O3    O     O_2   0.366180 0.913660 0.823810 -0.425093
O4    O     O_2   0.366180 0.086340 0.323810 -0.439163
O5    O     O_3   0.208196 0.483125 0.728565 -0.640612
O6    O     O_3   0.208509 0.516176 0.229684 -0.640853
O7    O     O_3   0.714411 0.973840 0.725518 -0.622392
O8    O     O_3   0.715633 0.026012 0.229435 -0.609731
O9    O     O_3   0.050997 0.238935 0.069731 -0.469034
O10   O     O_3   0.049487 0.760450 0.553973 -0.585496
O11   O     O_3   0.544783 0.736638 0.076268 -0.520987
O12   O     O_3   0.540880 0.262602 0.565649 -0.618922
O13   O     O_3   0.077880 0.530130 0.092320 -0.496075
O14   O     O_3   0.077880 0.469870 0.592320 -0.491171
O15   O     O_3   0.577880 0.030130 0.092320 -0.507496
O16   O     O_3   0.577880 0.969870 0.592320 -0.502328
O17   O     O_3   0.922050 0.469730 0.097400 -0.523317
O18   O     O_3   0.922050 0.530270 0.597400 -0.496930
O19   O     O_3   0.422050 0.969730 0.097400 -0.524006
O20   O     O_3   0.422050 0.030270 0.597400 -0.492608
O21   O     O_3   0.976760 0.360270 0.628090 -0.476222
O22   O     O_3   0.976760 0.639730 0.128090 -0.520862
O23   O     O_3   0.476760 0.860270 0.628090 -0.496683
O24   O     O_3   0.476760 0.139730 0.128090 -0.545293
O25   O     O_2   0.866619 0.313389 0.691077 -0.470983
O26   O     O_2   0.864716 0.693602 0.121952 -0.509987
O27   O     O_2   0.363645 0.814282 0.674709 -0.460227
O28   O     O_2   0.367056 0.190344 0.161577 -0.497603
O29   O     O_3   0.773692 0.459557 0.959411 -0.627629
O30   O     O_3   0.772722 0.547124 0.457023 -0.597547
O31   O     O_3   0.272010 0.957447 0.936016 -0.672473
O32   O     O_3   0.273448 0.048806 0.478214 -0.651510
O33   O     O_3   0.955772 0.241221 0.623574 -0.539188
O34   O     O_3   0.963657 0.764325 0.132794 -0.538415
O35   O     O_3   0.456347 0.740238 0.626616 -0.570440
O36   O     O_3   0.461954 0.263723 0.136702 -0.566798
O37   O     O_2   0.133470 0.412980 0.865660 -0.458867
O38   O     O_2   0.133470 0.587020 0.365660 -0.459659
O39   O     O_2   0.633470 0.912980 0.865660 -0.391696
O40   O     O_2   0.633470 0.087020 0.365660 -0.399253
O41   O     O_3   0.022720 0.360150 0.061220 -0.496926
O42   O     O_3   0.022720 0.639850 0.561220 -0.513112
O43   O     O_3   0.522720 0.860150 0.061220 -0.494564
O44   O     O_3   0.522720 0.139850 0.561220 -0.503663
O45   O     O_2   0.132940 0.315215 0.995680 -0.375706
O46   O     O_2   0.136992 0.682870 0.508642 -0.356249
O47   O     O_2   0.629967 0.809272 0.000270 -0.360239
O48   O     O_2   0.632884 0.189271 0.511644 -0.327743
P1    P     P_3+3 0.859590 0.433890 0.993820 1.053838
P2    P     P_3+3 0.859590 0.566110 0.493820 1.108316
P3    P     P_3+3 0.359590 0.933890 0.993820 1.025847
P4    P     P_3+3 0.359590 0.066110 0.493820 1.097388
P5    P     P_3+3 0.140130 0.433190 0.695710 1.043927
P6    P     P_3+3 0.140130 0.566810 0.195710 1.025389
P7    P     P_3+3 0.640130 0.933190 0.695710 1.102682
P8    P     P_3+3 0.640130 0.066810 0.195710 1.095853
P9    P     P_3+3 0.087429 0.308214 0.115528 1.161246
P10   P     P_3+3 0.086716 0.692225 0.616711 1.088476
P11   P     P_3+3 0.583992 0.805112 0.119807 1.167424
P12   P     P_3+3 0.582741 0.195186 0.621639 1.097622
P13   P     P_3+3 0.926234 0.699942 0.046883 0.955515
P14   P     P_3+3 0.913517 0.308215 0.573441 1.036975
P15   P     P_3+3 0.421665 0.198126 0.064397 0.917432
P16   P     P_3+3 0.415072 0.807299 0.568259 1.010151
Cl1   Cl    Cl    0.347641 0.498571 0.644508 -0.579779
Cl2   Cl    Cl    0.346563 0.504683 0.141223 -0.584659
Cl3   Cl    Cl    0.811225 0.916641 0.570428 -0.727090
Cl4   Cl    Cl    0.810348 0.084832 0.045392 -0.705830
O49   O     O_3   0.792524 0.542983 0.826204 -0.707067
C81   C     C_3   0.852835 0.568773 0.913129 0.219856
H61   H     H_    0.895120 0.555365 0.860372 0.032412
H62   H     H_    0.869550 0.559113 0.043117 0.125454
H63   H     H_    0.842208 0.615307 0.907320 -0.002050
O50   O     O_3   0.770187 0.461382 0.311567 -0.682642
C82   C     C_3   0.720387 0.425027 0.213666 0.114892
H64   H     H_    0.685177 0.450561 0.118796 0.138963
H65   H     H_    0.690251 0.400178 0.279568 0.092659
H66   H     H_    0.745164 0.391622 0.156510 0.078204
O51   O     O_3   0.240374 0.041018 0.780182 -0.682100
C83   C     C_3   0.211799 0.098465 0.767739 0.130561
H67   H     H_    0.156621 0.096435 0.710622 0.162901
H68   H     H_    0.234975 0.124697 0.687160 0.106083
H69   H     H_    0.218962 0.122267 0.884628 0.074909
O52   O     O_3   0.268390 0.971402 0.306443 -0.704587
C84   C     C_3   0.249761 0.912539 0.275316 0.046647
H70   H     H_    0.258229 0.900072 0.159488 0.054921
H71   H     H_    0.194927 0.905636 0.253189 0.187913
H72   H     H_    0.278961 0.883384 0.370785 0.084564
O53   O     O_3   0.763000 0.549326 0.079924 -0.680067
C85   C     C_3   0.735371 0.607252 0.062482 0.183782
H73   H     H_    0.740067 0.629814 0.950660 0.047963
H74   H     H_    0.761603 0.633852 0.166630 0.132040
H75   H     H_    0.681068 0.607266 0.065257 0.146607
O54   O     O_3   0.768466 0.459629 0.585815 -0.660718
C86   C     C_3   0.745104 0.401075 0.578566 0.275212
H76   H     H_    0.772298 0.373221 0.508041 0.058660
H77   H     H_    0.689468 0.397022 0.535232 0.030890
H78   H     H_    0.754747 0.382931 0.701488 0.126342
O55   O     O_3   0.300633 0.046723 0.054091 -0.694886
C87   C     C_3   0.349805 0.070589 0.983512 0.337243
H79   H     H_    0.359517 0.046555 0.877648 -0.023656
H80   H     H_    0.397845 0.070671 0.073641 0.149181
H81   H     H_    0.332132 0.114535 0.947743 -0.026525
O56   O     O_3   0.271636 0.956266 0.579893 -0.639768
C88   C     C_3   0.223139 0.917444 0.616564 0.218960
H82   H     H_    0.248991 0.886556 0.710948 0.108988
H83   H     H_    0.199116 0.888539 0.516450 0.112494
H84   H     H_    0.184028 0.941665 0.662563 0.102109
O57   O     O_3   0.657978 0.469976 0.745339 -0.690919
C89   C     C_3   0.586132 0.469168 0.692063 0.120116
H85   H     H_    0.563086 0.457240 0.793205 0.130737
H86   H     H_    0.571242 0.435496 0.596672 0.131542
H87   H     H_    0.564778 0.511787 0.638009 0.076320
O58   O     O_3   0.648544 0.538087 0.256441 -0.659460
C90   C     C_3   0.576964 0.540300 0.202019 0.267212
H88   H     H_    0.562908 0.576347 0.113140 0.170001
H89   H     H_    0.551560 0.548992 0.301361 0.100708
H90   H     H_    0.557898 0.498986 0.139830 0.101581
O59   O     O_3   0.126236 0.016116 0.856629 -0.688712
C91   C     C_3   0.068852 0.041785 0.897446 0.132646
H91   H     H_    0.050867 0.013348 0.984206 0.099974
H92   H     H_    0.027170 0.045835 0.786174 0.095396
H93   H     H_    0.079081 0.087130 0.946106 0.150726
O60   O     O_3   0.124196 0.958631 0.363777 -0.681541
C92   C     C_3   0.056445 0.976258 0.353132 0.259939
H94   H     H_    0.024119 0.936826 0.341786 0.162245
H95   H     H_    0.037403 0.003382 0.243837 0.044615
H96   H     H_    0.051003 0.999805 0.463305 -0.007338
Cl5   Cl    Cl    0.106547 0.171516 0.459357 -0.736522
Cl6   Cl    Cl    0.054340 0.871010 0.083402 -0.748259
Cl7   Cl    Cl    0.604120 0.661204 0.476027 -0.710297
Cl8   Cl    Cl    0.560704 0.370520 0.106839 -0.786472
Cl9   Cl    Cl    0.106125 0.210991 0.777678 -0.637565
Cl10  Cl    Cl    0.156028 0.798740 0.306054 -0.777613
Cl11  Cl    Cl    0.604075 0.682670 0.807832 -0.652136
Cl12  Cl    Cl    0.656617 0.292689 0.319055 -0.798481
O61   O     O_3   0.996226 0.146984 0.181673 -0.598171
C93   C     C_3   0.961051 0.105695 0.252529 0.212469
H97   H     H_    0.944152 0.068810 0.168244 0.114364
H98   H     H_    0.918267 0.125583 0.295304 0.112922
H99   H     H_    0.996500 0.087700 0.361473 0.045560
O62   O     O_3   0.011946 0.867596 0.617885 -0.656538
C94   C     C_3   0.987765 0.921605 0.661524 0.168781
H100  H     H_    0.031750 0.950999 0.694730 0.103863
H101  H     H_    0.965961 0.917246 0.768542 0.134121
H102  H     H_    0.950432 0.942011 0.558407 0.097532
O63   O     O_3   0.468277 0.651834 0.185946 -0.639150
C95   C     C_3   0.419255 0.637002 0.270885 0.222334
H103  H     H_    0.372502 0.619146 0.189725 0.168896
H104  H     H_    0.405926 0.675833 0.335179 0.057525
H105  H     H_    0.440794 0.602711 0.361279 0.117500
O64   O     O_3   0.471678 0.356424 0.694183 -0.659900
C96   C     C_3   0.429481 0.372497 0.796670 0.271039
H106  H     H_    0.425980 0.335798 0.879551 0.096326
H107  H     H_    0.377700 0.385646 0.727768 0.152308
H108  H     H_    0.451489 0.411111 0.868784 0.168084
O65   O     O_3   0.187080 0.779945 0.801291 -0.649239
C97   C     C_3   0.147288 0.824898 0.846049 0.201608
H109  H     H_    0.174063 0.845121 0.961956 0.076200
H110  H     H_    0.096488 0.809124 0.853683 0.116340
H111  H     H_    0.138049 0.859248 0.752452 0.117305
O66   O     O_3   0.215500 0.243969 0.271436 -0.642672
C98   C     C_3   0.264447 0.275517 0.214386 0.285339
H112  H     H_    0.314790 0.272573 0.301656 0.076951
H113  H     H_    0.250369 0.322281 0.187544 0.113719
H114  H     H_    0.267893 0.255801 0.098868 0.137136
O67   O     O_3   0.687944 0.279463 0.803747 -0.649963
C99   C     C_3   0.644084 0.325262 0.826413 0.200658
H115  H     H_    0.594716 0.309887 0.846221 0.098805
H116  H     H_    0.631782 0.352122 0.715523 0.123790
H117  H     H_    0.669853 0.353415 0.928047 0.081835
O68   O     O_3   0.707408 0.735139 0.284377 -0.661053
C100  C     C_3   0.759568 0.759453 0.222904 0.252821
H118  H     H_    0.809875 0.748899 0.303603 0.090149
H119  H     H_    0.755484 0.807511 0.205485 0.171658
H120  H     H_    0.755836 0.740309 0.102126 0.151436
Cl13  Cl    Cl    0.264490 0.656013 0.334336 -0.754172
Cl14  Cl    Cl    0.263857 0.345909 0.833668 -0.818342
Cl15  Cl    Cl    0.767473 0.151585 0.335077 -0.587869
Cl16  Cl    Cl    0.745548 0.830308 0.862603 -0.627982
Cl17  Cl    Cl    0.939666 0.148217 0.871694 -0.617178
Cl18  Cl    Cl    0.913240 0.837952 0.370476 -0.658660
Cl19  Cl    Cl    0.445488 0.644358 0.873844 -0.552235
Cl20  Cl    Cl    0.428235 0.351154 0.381520 -0.567605
Cl21  Cl    Cl    0.260363 0.422145 0.375656 -0.709442
Cl22  Cl    Cl    0.256500 0.579014 0.865998 -0.656359
Cl23  Cl    Cl    0.710350 0.915784 0.216730 -0.699254
Cl24  Cl    Cl    0.709744 0.085128 0.708529 -0.611785

loop_
_geom_bond_atom_site_label_1
_geom_bond_atom_site_label_2
_ccdc_geom_bond_type
Ba3   O15   S    
O63   C95   S    
C75   H3    S    
C51   H35   S    
O65   C97   S    
C61   H5    S    
C93   H97   S    
C66   O50   S    
C25   H25   S    
C55   O63   S    
Ba4   O4    S    
C25   C29   A    
C87   H79   S    
O42   P10   S    
C8    P11   S    
C22   P5    S    
C5    C9    A    
C89   H86   S    
O35   P16   S    
C53   O61   S    
O51   C83   S    
C66   C70   S    
C94   H101  S    
C63   Cl3   S    
O2    P2    D    
C69   H17   S    
C71   H19   S    
O47   P11   D    
C3    Cl11  S    
O31   P3    S    
O52   C84   S    
O9    P9    S    
C71   O59   S    
C20   Cl16  S    
C48   H48   S    
O26   P13   D    
C46   H50   S    
C58   C62   S    
C35   P3    S    
C6    C78   A    
Ba3   P3    S    
C15   C41   S    
Ba4   O24   S    
C25   C41   A    
O68   C100  S    
C85   H75   S    
C33   P1    S    
C100  H120  S    
C15   C19   A    
C84   H70   S    
C12   C16   A    
O66   C98   S    
O48   P12   D    
C4    Cl8   S    
Ba3   O20   S    
O15   P8    S    
Ba1   O18   S    
C30   C50   A    
C92   H95   S    
C75   O35   S    
C1    Cl5   S    
C1    C73   S    
C2    Cl10  S    
C3    C75   S    
C45   O9    S    
Ba4   P4    S    
C45   H49   S    
C58   Cl22  S    
C37   H29   S    
C90   H89   S    
Ba3   O43   S    
Ba1   O41   S    
C72   H16   S    
C87   H81   S    
C74   H22   S    
Ba4   O44   S    
C95   H104  S    
C76   H4    S    
C68   O56   S    
Ba2   O13   S    
C23   C79   A    
C64   H8    S    
C7    P12   S    
C73   O33   S    
C59   O8    S    
C5    P10   S    
C57   C61   S    
C31   P16   S    
C40   H32   S    
C37   C41   A    
C39   C43   A    
C78   H38   S    
C40   C44   A    
Ba3   O3    S    
Ba2   O2    S    
Ba1   O1    S    
O37   P5    D    
Ba3   O23   S    
C70   H14   S    
C8    C80   A    
C88   H82   S    
C60   C64   S    
C84   H72   S    
C59   Cl23  S    
O57   C89   S    
C81   H62   S    
C2    C74   S    
C45   C53   S    
O33   P14   S    
O13   P6    S    
C65   O53   S    
C48   C56   S    
C17   Cl13  S    
C38   H30   S    
C67   O31   S    
C91   H91   S    
O40   P8    D    
O22   P13   S    
C62   Cl2   S    
O53   C85   S    
Ba4   P8    S    
C33   C49   A    
C54   H54   S    
C61   H9    S    
C73   H1    S    
C63   H11   S    
C96   H107  S    
C7    C11   A    
C58   H58   S    
O11   P11   S    
O16   P7    S    
C70   O58   S    
C30   P13   S    
C97   H110  S    
C24   P7    S    
C26   C30   A    
C53   H53   S    
C8    C12   A    
C6    C10   A    
O46   P10   D    
C89   H87   S    
O44   P12   S    
Ba4   O40   S    
C55   Cl19  S    
C71   H15   S    
Ba4   O19   S    
O17   P1    S    
C86   H77   S    
C66   O30   S    
C56   H56   S    
C57   H57   S    
C72   O60   S    
C18   C22   A    
C48   H52   S    
C56   Cl20  S    
Ba3   Ba4   S    
C64   Cl4   S    
C54   O62   S    
C17   C21   A    
C18   Cl14  S    
C88   H84   S    
C14   C18   A    
C26   C42   A    
O28   P15   D    
Ba1   P5    S    
C20   C24   A    
C14   C44   S    
O20   P4    S    
C76   H24   S    
C93   H98   S    
C99   H117  S    
C9    C13   A    
C98   H114  S    
O23   P16   S    
O58   C90   S    
C82   H66   S    
C91   H93   S    
C87   H80   S    
C33   C37   A    
C2    Cl6   S    
C36   C40   A    
C93   H99   S    
C47   H47   S    
C1    H41   S    
C27   H27   S    
C54   Cl18  S    
C66   O54   S    
C3    H43   S    
Ba3   O39   S    
C16   C42   S    
C72   H20   S    
C21   C77   A    
C24   C80   A    
C86   H76   S    
C83   H67   S    
C60   Cl24  S    
O59   C91   S    
C62   H6    S    
O49   C81   S    
C11   C15   A    
C64   H12   S    
C65   O29   S    
C26   H26   S    
Ba1   O14   S    
Ba4   O15   S    
O55   C87   S    
O43   P11   S    
C38   C42   A    
O41   P9    S    
C100  H119  S    
C21   P6    S    
C35   C51   A    
C36   C52   A    
C65   C69   S    
O36   P15   S    
Ba2   O22   S    
O1    P1    D    
C70   H18   S    
C22   C78   A    
C27   C43   A    
C92   H94   S    
C28   C44   A    
O10   P10   S    
C60   O7    S    
C98   H112  S    
C46   C54   S    
C13   C43   S    
C65   O49   S    
C2    H42   S    
O25   P14   D    
C53   Cl17  S    
C34   P2    S    
Ba2   P2    S    
C89   H85   S    
C32   C52   A    
C94   H100  S    
C34   C50   A    
O19   P3    S    
Ba2   O14   S    
C47   O11   S    
C63   H7    S    
O24   P15   S    
C75   H23   S    
C94   H102  S    
C69   O57   S    
O29   P1    S    
C27   C31   A    
C48   O12   S    
C85   H73   S    
C83   H69   S    
C28   C32   A    
C82   H64   S    
O56   C88   S    
C12   O68   S    
O54   C86   S    
Ba1   O37   S    
C28   H28   S    
C74   O34   S    
C7    C79   A    
C73   H21   S    
C67   O55   S    
C84   H71   S    
C99   H116  S    
C68   O32   S    
C6    P9    S    
C13   C17   A    
O21   P14   S    
O60   C92   S    
C91   H92   S    
C68   O52   S    
C92   H96   S    
C77   H37   S    
C79   H39   S    
O6    P6    S    
O67   C99   S    
C58   O5    S    
C96   H106  S    
C10   C14   A    
Ba1   P1    S    
O38   P6    D    
C68   C72   S    
C90   H90   S    
Ba4   O16   S    
C99   H115  S    
C69   H13   S    
C97   H111  S    
C85   H74   S    
C76   O36   S    
C95   H103  S    
C34   C38   A    
C3    Cl7   S    
O62   C94   S    
C49   H33   S    
O34   P13   S    
O14   P5    S    
Ba1   Ba2   S    
Ba2   O38   S    
C46   H46   S    
C39   H31   S    
C47   H51   S    
O4    P4    D    
C16   C20   A    
Ba3   P7    S    
O3    P3    D    
C19   C23   A    
C57   O6    S    
C61   Cl1   S    
C62   H10   S    
C74   H2    S    
C9    O65   S    
C52   H36   S    
O8    P8    S    
C10   O66   S    
Ba2   O17   S    
C4    Cl12  S    
C4    H44   S    
C29   C49   A    
C59   C63   S    
C29   P14   S    
C88   H83   S    
C67   O51   S    
C31   C51   A    
O7    P7    S    
C1    Cl9   S    
C55   H55   S    
C81   H61   S    
C35   C39   A    
C60   H60   S    
O45   P9    D    
O61   C93   S    
C45   H45   S    
O39   P7    D    
C98   H113  S    
C32   P15   S    
Ba2   O42   S    
C82   H65   S    
Ba1   O21   S    
O18   P2    S    
O32   P4    S    
C50   H34   S    
Ba3   O16   S    
C96   H108  S    
C47   C55   S    
C90   H88   S    
O12   P12   S    
C36   P4    S    
C19   Cl15  S    
C97   H109  S    
O64   C96   S    
C59   H59   S    
Ba2   P6    S    
C95   H105  S    
C23   P8    S    
C81   H63   S    
C83   H68   S    
O30   P2    S    
C80   H40   S    
Ba1   O13   S    
C67   C71   S    
O50   C82   S    
C56   O64   S    
C46   O10   S    
C86   H78   S    
C100  H118  S    
O5    P5    S    
C4    C76   S    
C57   Cl21  S    
O27   P16   D    
C5    C77   A    
C11   O67   S    
