data_mof_unit_39661.cif
_audit_creation_date              2012-12-10T19:16:19-0500
_audit_creation_method            fapswitch 2.2
_symmetry_space_group_name_H-M    P1
_symmetry_Int_Tables_number       1
_space_group_crystal_system       triclinic
_cell_length_a                    10.632426
_cell_length_b                    9.719709
_cell_length_c                    27.850639
_cell_angle_alpha                 90.539197
_cell_angle_beta                  89.779105
_cell_angle_gamma                 90.070592
_cell_volume                      2878.04795456

loop_
_atom_site_label
_atom_site_type_symbol
_atom_type_description
_atom_site_fract_x
_atom_site_fract_y
_atom_site_fract_z
_atom_type_partial_charge
C1    C     C_R   0.257667 0.500109 0.500923 0.986143
C2    C     C_R   0.419341 0.375790 0.281759 -0.211145
C3    C     C_R   0.487267 0.468809 0.254057 0.193253
C4    C     C_R   0.502881 0.432083 0.104079 -0.155123
C5    C     C_R   0.386459 0.455279 0.127035 -0.195456
C6    C     C_R   0.276575 0.462188 0.099365 0.563169
C7    C     C_R   0.611503 0.409195 0.131716 -0.079629
C8    C     C_R   0.489416 0.494036 0.353864 -0.135780
C9    C     C_R   0.512402 0.502304 0.645803 -0.208178
C10   C     C_R   0.417161 0.498956 0.976963 0.025017
C11   C     C_R   0.637460 0.396307 0.976329 -0.204919
C12   C     C_R   0.497681 0.499020 0.406186 1.009829
C13   C     C_R   0.524841 0.454806 0.951179 0.000913
C14   C     C_R   0.329238 0.584283 0.953449 0.394283
C15   C     C_R   0.333806 0.596424 0.903359 0.574075
C16   C     C_R   0.431731 0.535034 0.876769 -0.205732
C17   C     C_R   0.531494 0.468496 0.900710 -0.196802
C18   C     C_R   0.636803 0.417932 0.873665 -0.189655
C19   C     C_R   0.633910 0.430657 0.823418 0.661166
C20   C     C_R   0.435200 0.543745 0.826642 0.718912
C21   C     C_R   0.444001 0.406410 0.722765 0.440983
C22   C     C_R   0.432766 0.414254 0.672454 0.224482
C23   C     C_R   0.742238 0.500396 0.501563 0.927066
C24   C     C_R   0.602754 0.591831 0.666754 0.344704
C25   C     C_R   0.618957 0.599513 0.716258 -0.131812
C26   C     C_R   0.534029 0.501888 0.746996 -0.090713
C27   C     C_R   0.403848 0.465752 0.026183 0.006370
C28   C     C_R   0.511225 0.433171 0.053507 -0.063819
C29   C     C_R   0.626797 0.401316 0.031128 0.017126
C30   C     C_R   0.284275 0.460663 0.048965 0.399283
C31   C     C_R   0.725518 0.377388 0.108977 -0.179835
C32   C     C_R   0.752598 0.343962 0.944991 0.078954
C33   C     C_R   0.742872 0.356956 0.895830 0.637677
C34   C     C_R   0.501695 0.500669 0.593682 1.020522
C35   C     C_R   0.732748 0.371059 0.059239 0.629267
C36   C     C_3   0.072149 0.647846 0.513426 -0.441358
C37   C     C_3   0.072542 0.402296 0.541325 -0.390803
C38   C     C_3   0.928763 0.649776 0.513538 0.294677
C39   C     C_3   0.927921 0.399108 0.541300 0.290781
C40   C     C_3   0.070936 0.453377 0.451849 1.164198
C41   C     C_3   0.121109 0.500566 0.501701 -0.242990
C42   C     C_3   0.878472 0.501564 0.502867 -0.090049
C43   C     C_3   0.926470 0.455155 0.452629 -0.666859
C44   C     C_3   0.369880 0.082189 0.506582 0.854289
C45   C     C_3   0.369341 0.918130 0.505214 0.806455
C46   C     C_3   0.546375 0.081065 0.452154 0.237648
C47   C     C_3   0.549757 0.916993 0.452599 0.264599
C48   C     C_3   0.584239 0.082081 0.536596 -0.451231
C49   C     C_3   0.582166 0.920493 0.537281 -0.411499
C50   C     C_R   0.383484 0.467237 0.177271 0.615510
C51   C     C_R   0.603441 0.419456 0.181664 0.573655
C52   C     C_R   0.553316 0.576803 0.275796 -0.190125
C53   C     C_R   0.555574 0.590171 0.325885 0.362549
C54   C     C_R   0.418670 0.387983 0.331785 0.371814
H1    H     H_    0.604843 0.648428 0.253535 0.163387
H2    H     H_    0.809708 0.357370 0.129544 0.237436
H3    H     H_    0.699244 0.367725 0.964120 0.147689
H4    H     H_    0.580638 0.554752 0.736970 0.172870
H5    H     H_    0.106062 0.722391 0.486194 0.272338
H6    H     H_    0.108160 0.296031 0.535073 0.253143
H7    H     H_    0.108760 0.682491 0.548969 0.261353
H8    H     H_    0.108562 0.436634 0.576993 0.242000
H9    H     H_    0.368089 0.293288 0.264159 0.168791
H10   H     H_    0.896805 0.719982 0.484463 0.155334
H11   H     H_    0.897962 0.292189 0.531561 0.117354
H12   H     H_    0.890802 0.526176 0.424638 0.222127
H13   H     H_    0.889679 0.350777 0.443565 0.242627
H14   H     H_    0.480842 0.112967 0.423107 0.152258
H15   H     H_    0.489801 0.878832 0.422525 0.155133
H16   H     H_    0.682368 0.117615 0.530372 0.258263
H17   H     H_    0.679760 0.881728 0.532676 0.274255
H18   H     H_    0.560600 0.124293 0.572592 0.187777
H19   H     H_    0.555074 0.883541 0.573340 0.194204
N1    N     N_R   0.491438 0.451697 0.203146 -0.350221
N2    N     N_R   0.533982 0.490518 0.801627 -0.323622
N3    N     N_3   0.499750 0.138610 0.498940 -0.151920
N4    N     N_3   0.499750 0.861390 0.498940 -0.161781
O1    O     O_R   0.314910 0.616040 0.499990 -0.559320
O2    O     O_R   0.314910 0.383960 0.499990 -0.510946
O3    O     O_R   0.500140 0.616020 0.428740 -0.565880
O4    O     O_R   0.500140 0.383980 0.428740 -0.574043
O5    O     O_R   0.685320 0.616040 0.499970 -0.560281
O6    O     O_R   0.685320 0.383960 0.499970 -0.632154
O7    O     O_R   0.500090 0.616050 0.571230 -0.600410
O8    O     O_R   0.500090 0.383950 0.571230 -0.610397
O9    O     O_2   0.274677 0.496935 0.200203 -0.436405
O10   O     O_2   0.341093 0.605032 0.802567 -0.419555
O11   O     O_2   0.706566 0.397776 0.208688 -0.520259
O12   O     O_2   0.729504 0.382935 0.796015 -0.428845
Zn1   Zn    Zn3+2 0.500150 0.654960 0.499980 1.073365
Zn2   Zn    Zn3+2 0.500150 0.345040 0.499980 1.067669
O13   O     O_3   0.349211 0.298499 0.359690 -0.665399
H20   H     H_    0.305568 0.231167 0.338575 0.363662
O14   O     O_3   0.677474 0.671509 0.637262 -0.695670
H21   H     H_    0.735507 0.727445 0.657361 0.374076
F1    F     F_    0.842093 0.310209 0.869607 -0.552860
F2    F     F_    0.845105 0.339573 0.038671 -0.635469
O15   O     O_3   0.883486 0.699081 0.558012 -0.652612
H22   H     H_    0.898575 0.799923 0.558641 0.339195
O16   O     O_3   0.882446 0.432677 0.587466 -0.653397
H23   H     H_    0.797706 0.390614 0.590553 0.332419
F3    F     F_    0.114644 0.540705 0.416330 -0.632037
F4    F     F_    0.111975 0.321306 0.440923 -0.570311
F5    F     F_    0.293893 0.127145 0.469484 -0.545212
F6    F     F_    0.298054 0.876416 0.465985 -0.607508
O17   O     O_3   0.315355 0.136387 0.548970 -0.698020
H24   H     H_    0.361088 0.102766 0.577308 0.306910
O18   O     O_3   0.308132 0.861748 0.545550 -0.725488
H25   H     H_    0.357505 0.879161 0.574876 0.294065
O19   O     O_3   0.665706 0.136360 0.441662 -0.695465
H26   H     H_    0.676877 0.131653 0.406271 0.331682
O20   O     O_3   0.672381 0.867240 0.444491 -0.684651
H27   H     H_    0.692413 0.882749 0.410146 0.362255
F7    F     F_    0.161775 0.467604 0.120975 -0.594542
O21   O     O_3   0.341893 0.340292 0.647876 -0.747688
H28   H     H_    0.268800 0.325436 0.669363 0.365184
O22   O     O_3   0.378027 0.313451 0.750349 -0.701662
H29   H     H_    0.356127 0.232642 0.730147 0.354993
F8    F     F_    0.244084 0.671889 0.881037 -0.585395
O23   O     O_3   0.247749 0.664821 0.980561 -0.692479
H30   H     H_    0.195095 0.722153 0.959422 0.402012
O24   O     O_3   0.177463 0.443860 0.021208 -0.662202
H31   H     H_    0.102026 0.437797 0.042040 0.419038
O25   O     O_3   0.625215 0.692292 0.348090 -0.760569
H32   H     H_    0.665820 0.750016 0.323265 0.343954

loop_
_geom_bond_atom_site_label_1
_geom_bond_atom_site_label_2
_ccdc_geom_bond_type
C10   C27   A    
C21   C26   A    
C23   O5    A    
C48   N3    S    
C51   N1    A    
C38   O15   S    
C36   H5    S    
C46   N3    S    
C37   H8    S    
C44   F5    S    
O1    Zn1   S    
C46   H14   S    
C23   C42   S    
C23   O6    A    
C28   C29   A    
O16   H23   S    
C38   C42   S    
C50   N1    A    
C5    C6    A    
C9    C22   A    
O17   H24   S    
C15   C16   A    
C34   O7    A    
C20   O10   S    
O18   H25   S    
C18   C19   A    
C44   N3    S    
C3    N1    S    
O19   H26   S    
C6    F7    S    
C21   O22   S    
C46   C47   S    
C40   C43   S    
C47   H15   S    
C30   O24   S    
C49   N4    S    
C16   C17   A    
C31   H2    S    
O2    Zn2   S    
C45   O18   S    
C8    C12   S    
C21   C22   A    
C27   C30   A    
C37   C41   S    
C1    O1    A    
C39   H11   S    
C36   C41   S    
O7    Zn1   S    
C32   H3    S    
C48   H18   S    
C4    C7    A    
O20   H27   S    
C4    C28   A    
C45   F6    S    
C26   N2    S    
C39   C42   S    
C38   H10   S    
O8    Zn2   S    
N4    Zn1   S    
C7    C31   A    
C24   C25   A    
C2    C54   A    
C8    C54   A    
C25   C26   A    
C53   O25   S    
C20   N2    A    
C34   O8    A    
C8    C53   A    
C54   O13   S    
C19   O12   S    
C24   O14   S    
C16   C20   A    
C17   C18   A    
C52   C53   A    
C1    C41   S    
C48   C49   S    
C6    C30   A    
C11   C32   A    
C14   O23   S    
C46   O19   S    
C10   C14   A    
C9    C34   S    
C1    O2    A    
C49   H19   S    
C5    C50   A    
C42   C43   S    
C47   N4    S    
C36   H7    S    
C33   F1    S    
O23   H30   S    
C25   H4    S    
C2    H9    S    
C40   C41   S    
C44   C45   S    
C48   H16   S    
C4    C5    A    
C10   C13   A    
C51   O11   S    
C3    C52   A    
C52   H1    S    
C9    C24   A    
C44   O17   S    
O6    Zn2   S    
C29   C35   A    
O5    Zn1   S    
C13   C17   A    
C32   C33   A    
C36   C38   S    
C2    C3    A    
C7    C51   A    
C37   C39   S    
O22   H29   S    
C40   F4    S    
C11   C13   A    
C39   O16   S    
C22   O21   S    
C43   H12   S    
C12   O3    A    
C19   N2    A    
O13   H20   S    
C15   F8    S    
C12   O4    A    
C31   C35   A    
O3    Zn1   S    
O14   H21   S    
C18   C33   A    
C37   H6    S    
C50   O9    S    
N3    Zn2   S    
C40   F3    S    
O4    Zn2   S    
C11   C29   A    
C43   H13   S    
O15   H22   S    
C49   H17   S    
C27   C28   A    
C14   C15   A    
C45   N4    S    
O21   H28   S    
O24   H31   S    
C35   F2    S    
C47   O20   S    
O25   H32   S    
