data_mof_unit_22645.cif
_audit_creation_date              2012-12-10T16:58:25-0500
_audit_creation_method            fapswitch 2.2
_symmetry_space_group_name_H-M    P1
_symmetry_Int_Tables_number       1
_space_group_crystal_system       triclinic
_cell_length_a                    7.741641
_cell_length_b                    8.563035
_cell_length_c                    23.392417
_cell_angle_alpha                 91.177974
_cell_angle_beta                  85.294187
_cell_angle_gamma                 93.810152
_cell_volume                      1541.90741899

loop_
_atom_site_label
_atom_site_type_symbol
_atom_type_description
_atom_site_fract_x
_atom_site_fract_y
_atom_site_fract_z
_atom_type_partial_charge
C1    C     C_R   0.546011 0.794911 0.498491 0.967329
C2    C     C_R   0.350554 0.453749 0.302100 -0.265020
C3    C     C_R   0.655249 0.545827 0.756712 -0.143395
C4    C     C_R   0.344537 0.454210 0.243312 -0.143414
C5    C     C_R   0.512571 0.485754 0.791385 0.282595
C6    C     C_R   0.487235 0.514126 0.208614 0.282641
C7    C     C_2   0.570298 0.958397 0.497567 -0.375637
C8    C     C_2   0.429702 0.041603 0.502435 -0.375653
C9    C     C_R   0.500199 0.494965 0.610613 0.891527
C10   C     C_R   0.499799 0.505026 0.389385 0.891537
C11   C     C_R   0.521080 0.372035 0.119418 0.508358
C12   C     C_R   0.453989 0.205089 0.501510 0.967302
C13   C     C_R   0.478590 0.627807 0.880587 0.508342
C14   C     C_R   0.438022 0.636520 0.120499 0.509398
C15   C     C_R   0.561671 0.363329 0.879506 0.509414
C16   C     C_R   0.445900 0.636865 0.060689 -0.018178
C17   C     C_R   0.553747 0.362969 0.939316 -0.018178
C18   C     C_R   0.493777 0.500725 0.030111 -0.020431
C19   C     C_R   0.505856 0.499105 0.969894 -0.020427
C20   C     C_R   0.530082 0.366339 0.059604 -0.017443
C21   C     C_R   0.469555 0.633492 0.940401 -0.017430
C22   C     C_R   0.410282 0.770167 0.030918 -0.168448
C23   C     C_R   0.361814 0.420123 0.767569 0.219800
C24   C     C_R   0.589352 0.229664 0.969088 -0.168450
C25   C     C_R   0.422195 0.768550 0.971229 -0.168443
C26   C     C_R   0.577430 0.231278 0.028776 -0.168438
C27   C     C_3   0.205822 0.360085 0.806265 -0.831699
C28   C     C_3   0.794097 0.639511 0.193674 -0.831731
C29   C     C_3   0.204579 0.333317 0.679545 -0.835766
C30   C     C_3   0.795604 0.666255 0.320388 -0.835755
C31   C     C_R   0.638103 0.579619 0.232400 0.219815
C32   C     C_R   0.357681 0.414751 0.707237 0.141945
C33   C     C_R   0.642339 0.585000 0.292729 0.141955
C34   C     C_R   0.501079 0.484663 0.672830 -0.084802
C35   C     C_R   0.498892 0.515266 0.327165 -0.084846
C36   C     C_R   0.649310 0.546316 0.697921 -0.265065
H1    H     H_    0.373625 0.876048 0.053582 0.194254
H2    H     H_    0.297037 0.990278 0.507115 0.180250
H3    H     H_    0.014330 0.382523 0.456706 0.190010
H4    H     H_    0.985670 0.617477 0.543293 0.190021
H5    H     H_    0.188191 0.230780 0.802032 0.258035
H6    H     H_    0.217654 0.388513 0.852242 0.231499
H7    H     H_    0.087434 0.414041 0.794392 0.241397
H8    H     H_    0.782117 0.611166 0.147698 0.231497
H9    H     H_    0.811936 0.768802 0.197921 0.258005
H10   H     H_    0.912424 0.585378 0.205507 0.241366
H11   H     H_    0.251658 0.258058 0.643072 0.236617
H12   H     H_    0.626013 0.123784 0.946423 0.194257
H13   H     H_    0.121737 0.254458 0.708766 0.244580
H14   H     H_    0.121350 0.421739 0.664151 0.252154
H15   H     H_    0.748694 0.741671 0.356839 0.236670
H16   H     H_    0.878653 0.577722 0.335807 0.252122
H17   H     H_    0.878603 0.744923 0.291141 0.244588
H18   H     H_    0.393564 0.872980 0.949392 0.193798
H19   H     H_    0.606061 0.126848 0.050613 0.193804
H20   H     H_    0.760148 0.597758 0.671946 0.169422
H21   H     H_    0.239681 0.402437 0.328092 0.169432
H22   H     H_    0.770098 0.595086 0.775724 0.157506
H23   H     H_    0.229603 0.405055 0.224323 0.157453
H24   H     H_    0.702963 0.009722 0.492886 0.180247
N1    N     N_R   0.478360 0.506390 0.148146 -0.356463
N2    N     N_R   0.521352 0.493464 0.851857 -0.356456
N3    N     N_2   0.950330 0.457950 0.484560 -0.173811
N4    N     N_2   0.049670 0.542050 0.515440 -0.173805
O1    O     O_R   0.389250 0.738570 0.503790 -0.609141
O2    O     O_2   0.442093 0.753986 0.851211 -0.534367
O3    O     O_2   0.393420 0.765386 0.150947 -0.535692
O4    O     O_2   0.606309 0.234473 0.849058 -0.535706
O5    O     O_R   0.610750 0.261430 0.496210 -0.609140
O6    O     O_R   0.678390 0.711620 0.493890 -0.633087
O7    O     O_R   0.321610 0.288380 0.506110 -0.633091
O8    O     O_R   0.355400 0.513520 0.588790 -0.613753
O9    O     O_R   0.644600 0.486480 0.411210 -0.613772
O10   O     O_R   0.644550 0.486570 0.578900 -0.627440
O11   O     O_R   0.355450 0.513430 0.421100 -0.627441
O12   O     O_2   0.557579 0.245856 0.148794 -0.534331
Zn1   Zn    Zn3+2 0.306930 0.518000 0.506610 0.942605
Zn2   Zn    Zn3+2 0.693070 0.482000 0.493390 0.942597

loop_
_geom_bond_atom_site_label_1
_geom_bond_atom_site_label_2
_ccdc_geom_bond_type
C2    C35   A    
C30   H15   S    
O6    Zn2   S    
N4    Zn1   S    
C9    O8    A    
C12   O5    A    
C26   H19   S    
C2    H21   S    
C7    C8    D    
C29   H13   S    
C28   H10   S    
C29   H11   S    
C6    N1    S    
C19   C21   A    
C24   C26   A    
C29   C32   S    
C11   O12   S    
C10   O9    A    
C18   C19   A    
C21   C25   A    
C17   C19   A    
C13   N2    A    
C22   C25   A    
C1    O1    A    
C14   O3    S    
C31   C33   A    
C10   C35   S    
C23   C27   S    
C18   C20   A    
C13   O2    S    
C6    C31   A    
O5    Zn2   S    
C8    H2    S    
O9    Zn2   S    
C29   H14   S    
C11   C20   A    
C30   H17   S    
C28   H9    S    
C17   C24   A    
O1    Zn1   S    
C24   H12   S    
C25   H18   S    
C4    C6    A    
C3    C5    A    
C22   H1    S    
C28   H8    S    
C32   C34   A    
C2    C4    A    
O8    Zn1   S    
C36   H20   S    
C10   O11   A    
C27   H5    S    
C5    C23   A    
C8    C12   S    
C13   C21   A    
O11   Zn1   S    
C12   O7    A    
C9    C34   S    
C14   C16   A    
C9    O10   A    
C7    H24   S    
O7    Zn1   S    
C15   C17   A    
C30   H16   S    
C16   C22   A    
C30   C33   S    
C1    C7    S    
C28   C31   S    
C11   N1    A    
H3    N3    S    
C1    O6    A    
H4    N4    S    
C23   C32   A    
C14   N1    A    
C27   H6    S    
C20   C26   A    
C3    C36   A    
C15   O4    S    
C4    H23   S    
C33   C35   A    
C15   N2    A    
C5    N2    S    
C34   C36   A    
N3    N4    D    
C3    H22   S    
C27   H7    S    
C16   C18   A    
O10   Zn2   S    
N3    Zn2   S    
