data_mof_unit_41536.cif
_audit_creation_date              2012-12-11T14:41:05-0500
_audit_creation_method            fapswitch 2.2
_symmetry_space_group_name_H-M    P1
_symmetry_Int_Tables_number       1
_space_group_crystal_system       triclinic
_cell_length_a                    24.630616
_cell_length_b                    17.507484
_cell_length_c                    15.490399
_cell_angle_alpha                 90.05788
_cell_angle_beta                  129.2605
_cell_angle_gamma                 90.019037
_cell_volume                      5171.98471468

loop_
_atom_site_label
_atom_site_type_symbol
_atom_type_description
_atom_site_fract_x
_atom_site_fract_y
_atom_site_fract_z
_atom_type_partial_charge
C1    C     C_R   0.348697 0.361377 0.238136 -0.130039
C2    C     C_R   0.656735 0.668589 0.500895 -0.011438
C3    C     C_3   0.587356 0.180010 0.362215 -0.387759
C4    C     C_3   0.531292 0.159656 0.238342 -0.283521
C5    C     C_3   0.475981 0.106369 0.220622 -0.935908
C6    C     C_3   0.097372 0.329859 0.418630 -0.403162
C7    C     C_3   0.034193 0.365430 0.308543 -0.288122
C8    C     C_3   0.982171 0.399247 0.320622 -0.907026
C9    C     C_3   0.087362 0.680012 0.362223 -0.387755
C10   C     C_3   0.031298 0.659653 0.238352 -0.283532
C11   C     C_3   0.975986 0.606375 0.220640 -0.935909
C12   C     C_3   0.721506 0.633184 0.388347 -0.409004
C13   C     C_R   0.153734 0.828691 0.499288 -0.004111
C14   C     C_3   0.674193 0.665121 0.268173 -0.236882
C15   C     C_3   0.670017 0.610306 0.187537 -0.971154
C16   C     C_3   0.740387 0.369092 0.426657 -0.418324
C17   C     C_3   0.803975 0.418995 0.465530 -0.260816
C18   C     C_3   0.798479 0.446942 0.367025 -0.934357
C19   C     C_3   0.221535 0.133159 0.388416 -0.408974
C20   C     C_3   0.174231 0.165073 0.268229 -0.236857
C21   C     C_3   0.170082 0.110242 0.187633 -0.971092
C22   C     C_3   0.240384 0.869096 0.426650 -0.418292
C23   C     C_3   0.303971 0.919001 0.465523 -0.260817
C24   C     C_R   0.156730 0.168595 0.500894 -0.011439
C25   C     C_3   0.298538 0.946845 0.367036 -0.934263
C26   C     C_R   0.318518 0.386325 0.503135 0.022869
C27   C     C_R   0.318762 0.616149 0.501571 0.022027
C28   C     C_R   0.818517 0.886331 0.503137 0.022866
C29   C     C_R   0.818759 0.116140 0.501570 0.022024
C30   C     C_3   0.282971 0.337607 0.612217 -0.423467
C31   C     C_3   0.264338 0.647331 0.589009 -0.420035
C32   C     C_3   0.782989 0.837591 0.612235 -0.423472
C33   C     C_R   0.349603 0.639532 0.240184 -0.129059
C34   C     C_3   0.764335 0.147325 0.589008 -0.420038
C35   C     C_3   0.742583 0.772146 0.614146 -0.455793
C36   C     C_3   0.724372 0.211885 0.594868 -0.435346
C37   C     C_3   0.242563 0.272167 0.614130 -0.455786
C38   C     C_3   0.224375 0.711890 0.594870 -0.435353
C39   C     C_3   0.194818 0.347268 0.403643 -0.463032
C40   C     C_3   0.198885 0.670066 0.384273 -0.470197
C41   C     C_3   0.694817 0.847283 0.403667 -0.463030
C42   C     C_3   0.698882 0.170060 0.384272 -0.470193
C43   C     C_3   0.296083 0.252314 0.494180 -0.432313
C44   C     C_R   0.848697 0.861378 0.238136 -0.130041
C45   C     C_3   0.307421 0.748196 0.528620 -0.438063
C46   C     C_3   0.796072 0.752320 0.494150 -0.432314
C47   C     C_3   0.807419 0.248187 0.528618 -0.438068
C48   C     C_3   0.273457 0.332701 0.503387 0.360179
C49   C     C_3   0.272692 0.668469 0.501047 0.362782
C50   C     C_3   0.773458 0.832704 0.503390 0.360185
C51   C     C_3   0.772689 0.168462 0.501046 0.362789
C52   C     C_3   0.697179 0.728864 0.499750 0.283223
C53   C     C_3   0.695122 0.269911 0.497645 0.260283
C54   C     C_3   0.197175 0.228867 0.499749 0.283229
C55   C     C_R   0.849601 0.139530 0.240180 -0.129057
C56   C     C_3   0.195123 0.769915 0.497645 0.260281
C57   C     C_3   0.648381 0.789452 0.406095 0.029840
C58   C     C_3   0.650063 0.224199 0.384603 0.017810
C59   C     C_3   0.148379 0.289441 0.406068 0.029834
C60   C     C_3   0.150066 0.724202 0.384605 0.017816
C61   C     C_R   0.666933 0.392571 0.800106 -0.124124
C62   C     C_R   0.666557 0.608805 0.799225 -0.124766
C63   C     C_R   0.166933 0.892572 0.800107 -0.124122
C64   C     C_R   0.166558 0.108802 0.799227 -0.124759
C65   C     C_3   0.749173 0.690536 0.486107 -0.027983
C66   C     C_R   0.646242 0.371958 0.861848 0.150192
C67   C     C_3   0.759205 0.310178 0.517163 -0.026809
C68   C     C_3   0.249185 0.190532 0.486146 -0.028001
C69   C     C_3   0.259204 0.810184 0.517160 -0.026800
C70   C     C_2   0.691980 0.343426 0.976362 -0.219918
C71   C     C_2   0.690797 0.660645 0.973437 -0.220016
C72   C     C_2   0.191981 0.843427 0.976364 -0.219922
C73   C     C_2   0.190799 0.160637 0.973444 -0.220023
C74   C     C_2   0.761665 0.343839 0.036917 -0.105218
C75   C     C_2   0.760492 0.656918 0.036076 -0.102132
C76   C     C_2   0.261666 0.843841 0.036919 -0.105201
C77   C     C_R   0.645424 0.630496 0.859993 0.149547
C78   C     C_2   0.260494 0.156915 0.036079 -0.102120
C79   C     C_2   0.353589 0.750808 0.139739 -0.216412
C80   C     C_2   0.351172 0.251447 0.134662 -0.226202
C81   C     C_2   0.853584 0.250803 0.139728 -0.216422
C82   C     C_2   0.851171 0.751448 0.134660 -0.226209
C83   C     C_2   0.303512 0.790831 0.129347 -0.118083
C84   C     C_2   0.302947 0.210172 0.127877 -0.124924
C85   C     C_2   0.803511 0.290828 0.129342 -0.118096
C86   C     C_2   0.802946 0.710173 0.127875 -0.124924
C87   C     C_R   0.598760 0.367472 0.406568 -0.161832
C88   C     C_R   0.146242 0.871959 0.861849 0.150188
C89   C     C_R   0.600341 0.631693 0.407554 -0.144358
C90   C     C_R   0.098759 0.867473 0.406568 -0.161832
C91   C     C_R   0.100338 0.131697 0.407553 -0.144349
C92   C     C_R   0.387236 0.399999 0.594247 -0.138011
C93   C     C_R   0.387023 0.601568 0.593595 -0.140541
C94   C     C_R   0.887236 0.900003 0.594248 -0.138008
C95   C     C_R   0.887021 0.101562 0.593594 -0.140542
C96   C     C_R   0.672602 0.366304 0.593274 -0.138947
C97   C     C_R   0.674268 0.631664 0.594202 -0.149636
C98   C     C_R   0.172602 0.866305 0.593274 -0.138952
C99   C     C_R   0.145426 0.130491 0.859997 0.149546
C100  C     C_R   0.174265 0.131667 0.594202 -0.149638
C101  C     C_R   0.312081 0.400583 0.409636 -0.154726
C102  C     C_R   0.312369 0.600198 0.408692 -0.153753
C103  C     C_R   0.812080 0.900587 0.409638 -0.154725
C104  C     C_R   0.812368 0.100193 0.408692 -0.153747
C105  C     C_R   0.576180 0.391283 0.800491 -0.152770
C106  C     C_R   0.575628 0.610237 0.799334 -0.152946
C107  C     C_R   0.076180 0.891284 0.800491 -0.152770
C108  C     C_R   0.075629 0.110234 0.799336 -0.152952
C109  C     C_R   0.437084 0.361963 0.231135 -0.146027
C110  C     C_R   0.653734 0.328690 0.499289 -0.004115
C111  C     C_R   0.438043 0.639050 0.233428 -0.146975
C112  C     C_R   0.937083 0.861963 0.231134 -0.146027
C113  C     C_R   0.938041 0.139048 0.233422 -0.146975
C114  C     C_R   0.378528 0.321617 0.200110 0.151738
C115  C     C_R   0.380035 0.679901 0.203597 0.147789
C116  C     C_R   0.878528 0.821618 0.200109 0.151741
C117  C     C_R   0.880032 0.179897 0.203589 0.147789
C118  C     C_3   0.597390 0.829865 0.418695 -0.403163
C119  C     C_3   0.534203 0.865446 0.308626 -0.288115
C120  C     C_3   0.482198 0.899264 0.320742 -0.907016
H1    H     H_    0.300888 0.348558 0.224423 0.087291
H2    H     H_    0.761302 0.240970 0.676883 0.152990
H3    H     H_    0.555573 0.131064 0.206148 0.196775
H4    H     H_    0.606401 0.126878 0.412866 0.199399
H5    H     H_    0.561834 0.214930 0.387475 0.193469
H6    H     H_    0.962233 0.354135 0.344612 0.271657
H7    H     H_    0.007659 0.444928 0.384996 0.255890
H8    H     H_    0.936950 0.424106 0.239833 0.253273
H9    H     H_    0.052210 0.411150 0.282168 0.196093
H10   H     H_    0.006627 0.321002 0.242240 0.191648
H11   H     H_    0.076889 0.287950 0.445566 0.200868
H12   H     H_    0.125380 0.375036 0.483744 0.194239
H13   H     H_    0.281678 0.232957 0.682929 0.152953
H14   H     H_    0.000160 0.550708 0.261558 0.267593
H15   H     H_    0.952594 0.631693 0.256180 0.277997
H16   H     H_    0.933771 0.596416 0.130067 0.242563
H17   H     H_    0.005417 0.712796 0.189544 0.185850
H18   H     H_    0.055580 0.631052 0.206167 0.196780
H19   H     H_    0.106409 0.626882 0.412878 0.199394
H20   H     H_    0.061839 0.714933 0.387481 0.193474
H21   H     H_    0.722513 0.602788 0.210475 0.274180
H22   H     H_    0.649061 0.554184 0.187671 0.262337
H23   H     H_    0.633723 0.633762 0.101765 0.246180
H24   H     H_    0.261306 0.740977 0.676883 0.152992
H25   H     H_    0.619845 0.672321 0.236302 0.177054
H26   H     H_    0.693332 0.720851 0.263296 0.190398
H27   H     H_    0.768876 0.608287 0.404937 0.204708
H28   H     H_    0.695050 0.583955 0.392914 0.185668
H29   H     H_    0.803351 0.398061 0.326518 0.263318
H30   H     H_    0.747316 0.475146 0.304980 0.271916
H31   H     H_    0.841150 0.488426 0.396356 0.251542
H32   H     H_    0.806776 0.469068 0.512450 0.182664
H33   H     H_    0.854120 0.387359 0.522624 0.201620
H34   H     H_    0.719929 0.338331 0.348470 0.197426
H35   H     H_    0.209787 0.294554 0.634868 0.170159
H36   H     H_    0.698755 0.408647 0.406461 0.181530
H37   H     H_    0.222586 0.102735 0.210595 0.274164
H38   H     H_    0.149138 0.054118 0.187788 0.262337
H39   H     H_    0.133792 0.133678 0.101849 0.246179
H40   H     H_    0.119877 0.172265 0.236336 0.177042
H41   H     H_    0.193363 0.220804 0.263339 0.190387
H42   H     H_    0.268912 0.108256 0.405033 0.204693
H43   H     H_    0.195078 0.083936 0.392991 0.185652
H44   H     H_    0.303467 0.897916 0.326663 0.263282
H45   H     H_    0.247372 0.975014 0.304887 0.271904
H46   H     H_    0.181592 0.687566 0.592115 0.167263
H47   H     H_    0.341204 0.988334 0.396358 0.251540
H48   H     H_    0.306719 0.969122 0.512325 0.182642
H49   H     H_    0.354124 0.887395 0.522726 0.201608
H50   H     H_    0.219925 0.838331 0.348464 0.197430
H51   H     H_    0.198749 0.908649 0.406450 0.181483
H52   H     H_    0.709819 0.794526 0.634910 0.170160
H53   H     H_    0.681587 0.187562 0.592108 0.167262
H54   H     H_    0.181253 0.407296 0.406781 0.157652
H55   H     H_    0.177360 0.610980 0.359257 0.158887
H56   H     H_    0.681260 0.907309 0.406828 0.157650
H57   H     H_    0.302093 0.652722 0.227132 0.087309
H58   H     H_    0.677354 0.110975 0.359254 0.158888
H59   H     H_    0.796142 0.749517 0.422574 0.165729
H60   H     H_    0.820810 0.259663 0.473244 0.175423
H61   H     H_    0.296160 0.249500 0.422613 0.165734
H62   H     H_    0.320815 0.759675 0.473250 0.175453
H63   H     H_    0.351449 0.241406 0.569397 0.145702
H64   H     H_    0.357903 0.749048 0.615620 0.140614
H65   H     H_    0.851440 0.741402 0.569356 0.145706
H66   H     H_    0.857902 0.249038 0.615617 0.140621
H67   H     H_    0.784525 0.654148 0.561698 0.104444
H68   H     H_    0.800888 0.848559 0.224423 0.087292
H69   H     H_    0.789087 0.341732 0.597909 0.119003
H70   H     H_    0.284535 0.154159 0.561755 0.104434
H71   H     H_    0.289084 0.841741 0.597904 0.118994
H72   H     H_    0.184371 0.340630 0.323054 0.126979
H73   H     H_    0.202753 0.691569 0.320719 0.132593
H74   H     H_    0.684359 0.840658 0.323066 0.126980
H75   H     H_    0.702749 0.191561 0.320717 0.132592
H76   H     H_    0.719584 0.393961 0.827568 0.076788
H77   H     H_    0.719286 0.608044 0.826972 0.077079
H78   H     H_    0.219585 0.893962 0.827569 0.076788
H79   H     H_    0.802090 0.152720 0.227127 0.087309
H80   H     H_    0.219287 0.108040 0.826975 0.077077
H81   H     H_    0.614917 0.760585 0.324568 0.097224
H82   H     H_    0.628319 0.264320 0.314207 0.095823
H83   H     H_    0.114928 0.260561 0.324549 0.097222
H84   H     H_    0.128319 0.764323 0.314208 0.095818
H85   H     H_    0.285329 0.775397 0.175121 0.123441
H86   H     H_    0.286390 0.224670 0.176269 0.133631
H87   H     H_    0.785331 0.275396 0.175121 0.123449
H88   H     H_    0.786389 0.724671 0.176268 0.133632
H89   H     H_    0.786491 0.371933 0.007500 0.122540
H90   H     H_    0.338766 0.332207 0.687738 0.151867
H91   H     H_    0.785335 0.625732 0.008834 0.124813
H92   H     H_    0.286492 0.871933 0.007501 0.122536
H93   H     H_    0.285337 0.125735 0.008833 0.124808
H94   H     H_    0.370927 0.766618 0.092749 0.125860
H95   H     H_    0.366565 0.236817 0.084600 0.138804
H96   H     H_    0.870920 0.266611 0.092734 0.125877
H97   H     H_    0.866564 0.736818 0.084598 0.138808
H98   H     H_    0.667944 0.314659 0.006892 0.125278
H99   H     H_    0.666858 0.693255 0.001258 0.131118
H100  H     H_    0.167944 0.814661 0.006894 0.125279
H101  H     H_    0.316071 0.639604 0.672885 0.150202
H102  H     H_    0.166859 0.193239 0.001270 0.131106
H103  H     H_    0.578093 0.361700 0.321569 0.083796
H104  H     H_    0.578768 0.639561 0.322675 0.087063
H105  H     H_    0.078092 0.861701 0.321568 0.083794
H106  H     H_    0.078765 0.139564 0.322675 0.087050
H107  H     H_    0.411142 0.399012 0.681470 0.083092
H108  H     H_    0.410240 0.605054 0.680503 0.083375
H109  H     H_    0.911142 0.899021 0.681472 0.083092
H110  H     H_    0.910237 0.105047 0.680502 0.083374
H111  H     H_    0.717059 0.355896 0.679466 0.085399
H112  H     H_    0.838786 0.832183 0.687746 0.151868
H113  H     H_    0.718392 0.641064 0.680836 0.091596
H114  H     H_    0.217059 0.855897 0.679466 0.085400
H115  H     H_    0.218389 0.141069 0.680835 0.091594
H116  H     H_    0.264983 0.399680 0.323546 0.085318
H117  H     H_    0.265293 0.598432 0.322581 0.087884
H118  H     H_    0.764982 0.899682 0.323548 0.085315
H119  H     H_    0.765292 0.098426 0.322581 0.087883
H120  H     H_    0.546530 0.391545 0.830182 0.090859
H121  H     H_    0.545879 0.610600 0.828855 0.091756
H122  H     H_    0.046530 0.891545 0.830183 0.090857
H123  H     H_    0.816068 0.139598 0.672885 0.150200
H124  H     H_    0.045880 0.110596 0.828857 0.091751
H125  H     H_    0.467634 0.348995 0.205369 0.086729
H126  H     H_    0.468846 0.652512 0.208300 0.085448
H127  H     H_    0.967633 0.848996 0.205368 0.086732
H128  H     H_    0.968842 0.152508 0.208292 0.085449
H129  H     H_    0.263593 0.393578 0.617030 0.159365
H130  H     H_    0.235137 0.592539 0.565830 0.157509
H131  H     H_    0.763618 0.893559 0.617074 0.159365
H132  H     H_    0.735133 0.092534 0.565830 0.157508
H133  H     H_    0.462269 0.854153 0.344748 0.271643
H134  H     H_    0.781702 0.732926 0.682926 0.152954
H135  H     H_    0.507696 0.944945 0.385117 0.255891
H136  H     H_    0.436968 0.924125 0.239962 0.253279
H137  H     H_    0.552213 0.911167 0.282242 0.196084
H138  H     H_    0.506624 0.821024 0.242317 0.191657
H139  H     H_    0.576913 0.787951 0.445638 0.200866
H140  H     H_    0.625407 0.875035 0.483819 0.194242
H141  H     H_    0.500158 0.050698 0.261523 0.267586
H142  H     H_    0.452593 0.131674 0.256174 0.277997
H143  H     H_    0.433765 0.096419 0.130048 0.242556
H144  H     H_    0.505407 0.212800 0.189540 0.185850
N1    N     N_R   0.389430 0.421450 0.294590 -0.045827
N2    N     N_R   0.581780 0.577610 0.443390 -0.034259
N3    N     N_R   0.081780 0.922390 0.443390 -0.032244
N4    N     N_R   0.081780 0.077610 0.443390 -0.034261
N5    N     N_R   0.419850 0.423100 0.556610 -0.032966
N6    N     N_R   0.419850 0.576900 0.556610 -0.032418
N7    N     N_R   0.919850 0.923100 0.556610 -0.032966
N8    N     N_R   0.919850 0.076900 0.556610 -0.032418
N9    N     N_R   0.627410 0.423100 0.556610 -0.034620
N10   N     N_R   0.627410 0.576900 0.556610 -0.034573
N11   N     N_R   0.127410 0.923100 0.556610 -0.034620
N12   N     N_R   0.389430 0.578550 0.294590 -0.045786
N13   N     N_R   0.127410 0.076900 0.556610 -0.034575
N14   N     N_R   0.374220 0.422390 0.443390 -0.032937
N15   N     N_R   0.374220 0.577610 0.443390 -0.032968
N16   N     N_R   0.874220 0.922390 0.443390 -0.032937
N17   N     N_R   0.874220 0.077610 0.443390 -0.032968
N18   N     N_R   0.555000 0.424040 0.705410 -0.040718
N19   N     N_R   0.555000 0.575960 0.705410 -0.040634
N20   N     N_R   0.055000 0.924040 0.705410 -0.040718
N21   N     N_R   0.055000 0.075960 0.705410 -0.040633
N22   N     N_R   0.446630 0.421450 0.294590 -0.041598
N23   N     N_R   0.889430 0.921450 0.294590 -0.045826
N24   N     N_R   0.446630 0.578550 0.294590 -0.041848
N25   N     N_R   0.946630 0.921450 0.294590 -0.041598
N26   N     N_R   0.946630 0.078550 0.294590 -0.041848
N27   N     N_R   0.889430 0.078550 0.294590 -0.045786
N28   N     N_R   0.612200 0.424040 0.705410 -0.042556
N29   N     N_R   0.612200 0.575960 0.705410 -0.042646
N30   N     N_R   0.112200 0.924040 0.705410 -0.042555
N31   N     N_R   0.112200 0.075960 0.705410 -0.042645
N32   N     N_R   0.581780 0.422390 0.443390 -0.032243
Ni1   Ni    Ni4+2 0.382890 0.500000 0.370170 0.205443
Ni2   Ni    Ni4+2 0.882890 0.000000 0.370170 0.205444
Ni3   Ni    Ni4+2 0.618740 0.500000 0.629830 0.201258
Ni4   Ni    Ni4+2 0.118740 1.000000 0.629830 0.201257
Ni5   Ni    Ni4+2 0.514090 0.500000 0.370170 0.206539
Ni6   Ni    Ni4+2 0.014090 0.000000 0.370170 0.206538
Ni7   Ni    Ni4+2 0.487550 0.500000 0.629830 0.206605
Ni8   Ni    Ni4+2 0.987550 1.000000 0.629830 0.206602

loop_
_geom_bond_atom_site_label_1
_geom_bond_atom_site_label_2
_ccdc_geom_bond_type
C65   H67   S    
N16   Ni2   S    
C62   C77   A    
C19   C20   S    
C17   H33   S    
C69   H71   S    
C89   H104  S    
N12   Ni1   S    
C55   N27   A    
N11   Ni4   S    
N3    N11   A    
C70   H98   S    
C13   C90   A    
C81   H96   S    
C118  H140  S    
C25   H44   S    
C24   C54   S    
C81   C117  S    
C28   C94   A    
C89   N2    A    
C36   C53   S    
C31   H101  S    
C55   H79   S    
C43   C68   S    
C70   C74   D    
C35   H134  S    
N23   N25   A    
C22   C69   S    
C54   C59   S    
C36   H53   S    
C5    H141  S    
N25   Ni6   S    
C21   H39   S    
C42   C58   S    
C39   H54   S    
C76   C83   S    
C45   H62   S    
N21   Ni8   S    
C45   C69   S    
C101  N14   A    
C46   C65   S    
C6    H12   S    
N4    N13   A    
C19   H42   S    
C87   H103  S    
N6    N15   A    
C104  N17   A    
C15   H22   S    
C75   C86   S    
C32   H131  S    
N21   N31   A    
C19   C68   S    
C47   H66   S    
C61   H76   S    
C22   H50   S    
C2    C52   S    
N18   N28   A    
C41   H56   S    
C64   H80   S    
C27   C93   A    
C106  H121  S    
C55   C117  A    
C34   H123  S    
C24   C100  A    
C46   H59   S    
C4    C5    S    
N17   Ni2   S    
C53   C58   S    
C31   C38   S    
N6    Ni7   S    
C33   N12   A    
C90   N3    A    
C11   H16   S    
C66   C70   S    
C42   H58   S    
C111  H126  S    
C43   H63   S    
C42   H75   S    
C82   C116  S    
C84   H86   S    
C119  H138  S    
C20   C21   S    
C31   H130  S    
C20   H40   S    
C5    H143  S    
C22   C23   S    
N28   Ni3   S    
C10   H18   S    
C18   H30   S    
C26   C92   A    
C52   C65   S    
C58   H82   S    
C57   C118  S    
C32   H112  S    
C40   C60   S    
N23   Ni2   S    
C79   C115  S    
C100  N13   A    
N24   Ni5   S    
N22   Ni5   S    
C107  N20   A    
C95   H110  S    
C102  N15   A    
N8    Ni8   S    
C95   N8    A    
C87   C110  A    
C99   C108  A    
C34   C51   S    
C30   C48   S    
C77   C106  A    
C9    H20   S    
C54   C68   S    
C40   C49   S    
C120  H133  S    
C7    H10   S    
C60   H84   S    
C64   C99   A    
C92   H107  S    
C23   H49   S    
C111  N24   A    
C9    C10   S    
C13   C56   S    
C76   H92   S    
C109  H125  S    
C112  N25   A    
C103  N16   A    
C40   H73   S    
C72   H100  S    
C74   H89   S    
C33   H57   S    
C98   N11   A    
C11   H14   S    
C43   H61   S    
C29   C104  A    
C47   H60   S    
C98   H114  S    
N20   N30   A    
C4    H144  S    
C101  H116  S    
C17   C18   S    
C16   C67   S    
C19   H43   S    
C44   C116  A    
C109  C114  A    
C113  C117  A    
C109  N22   A    
C91   H106  S    
C16   H34   S    
C15   H23   S    
C66   C105  A    
C3    C4    S    
C71   C77   S    
C85   H87   S    
C29   C51   S    
C44   N23   A    
C102  H117  S    
C6    C59   S    
C62   H77   S    
C80   C114  S    
N3    Ni6   S    
C27   C102  A    
C87   N32   A    
N15   Ni1   S    
C30   H129  S    
C120  H135  S    
C83   H85   S    
C82   H97   S    
N19   N29   A    
C103  H118  S    
C34   C36   S    
C74   C85   S    
C53   C67   S    
C1    H1    S    
C10   C11   S    
C38   C56   S    
C45   H64   S    
C56   C69   S    
C57   H81   S    
C14   C15   S    
C81   C85   D    
C27   C49   S    
C112  H127  S    
C35   H52   S    
C63   C88   A    
C21   H38   S    
C112  C116  A    
C80   C84   D    
C14   H25   S    
C75   H91   S    
C12   H27   S    
C71   H99   S    
N26   N27   A    
C96   H111  S    
N27   Ni2   S    
C15   H21   S    
C79   H94   S    
C2    C97   A    
C16   C17   S    
C16   H36   S    
C97   N10   A    
C22   H51   S    
C26   C48   S    
N7    Ni8   S    
C31   C49   S    
C78   H93   S    
C80   H95   S    
C33   C115  A    
C7    C8    S    
N4    Ni6   S    
C86   H88   S    
N5    Ni7   S    
C88   C107  A    
C47   C51   S    
C118  H139  S    
C25   H45   S    
C113  N26   A    
C82   C86   D    
C96   C110  A    
C56   C60   S    
C30   C37   S    
C2    C89   A    
N9    Ni3   S    
C41   H74   S    
C11   H15   S    
N13   Ni4   S    
C68   H70   S    
C39   C59   S    
C3    H5    S    
C105  N18   A    
N18   Ni7   S    
N7    N16   A    
C119  H137  S    
C5    H142  S    
C17   H32   S    
C1    C114  A    
C91   N4    A    
C41   C50   S    
C3    H4    S    
N12   N24   A    
N8    N17   A    
C38   H46   S    
C46   C50   S    
C38   H24   S    
C6    H11   S    
N10   Ni3   S    
C119  C120  S    
N31   Ni4   S    
C61   N28   A    
C12   C65   S    
N1    Ni1   S    
C63   H78   S    
C9    C60   S    
C41   C57   S    
C79   C83   D    
C39   H72   S    
C9    H19   S    
C28   C103  A    
N2    N10   A    
C64   N31   A    
C46   H65   S    
C7    H9    S    
C52   C57   S    
C23   H48   S    
C3    C58   S    
C59   H83   S    
C35   C52   S    
C100  H115  S    
N9    N32   A    
C8    H6    S    
C39   C48   S    
C53   C110  S    
C104  H119  S    
C37   H35   S    
C90   H105  S    
C72   C76   D    
C25   H47   S    
C73   H102  S    
C26   C101  A    
N14   Ni1   S    
C20   H41   S    
C62   N29   A    
C106  N19   A    
C13   C98   A    
C118  C119  S    
C108  N21   A    
C28   C50   S    
C61   C66   A    
C93   N6    A    
C73   C78   D    
C107  H122  S    
N26   Ni6   S    
C10   H17   S    
C45   C49   S    
C18   H29   S    
C43   C48   S    
C42   C51   S    
C96   N9    A    
C47   C67   S    
C72   C88   S    
C8    H8    S    
C6    C7    S    
N32   Ni5   S    
C32   C35   S    
C29   C95   A    
C63   N30   A    
C4    H3    S    
N29   Ni3   S    
C36   H2    S    
C120  H136  S    
N30   Ni4   S    
C8    H7    S    
C97   H113  S    
C108  H124  S    
N2    Ni5   S    
C32   C50   S    
N1    N22   A    
C44   H68   S    
C37   C54   S    
C12   C14   S    
C37   H13   S    
C24   C91   A    
N19   Ni7   S    
C73   C99   S    
N20   Ni8   S    
C21   H37   S    
C30   H90   S    
C40   H55   S    
C34   H132  S    
C67   H69   S    
C113  H128  S    
C14   H26   S    
C12   H28   S    
C71   C75   D    
C92   N5    A    
C93   H108  S    
C94   N7    A    
C105  H120  S    
N5    N14   A    
C23   C25   S    
C78   C84   S    
C1    N1    A    
C111  C115  A    
C18   H31   S    
C94   H109  S    
