data_mof_unit_40264.cif
_audit_creation_date              2012-12-11T15:53:36-0500
_audit_creation_method            fapswitch 2.2
_symmetry_space_group_name_H-M    P1
_symmetry_Int_Tables_number       1
_space_group_crystal_system       triclinic
_cell_length_a                    6.924014
_cell_length_b                    14.522027
_cell_length_c                    16.007375
_cell_angle_alpha                 90.449741
_cell_angle_beta                  89.88816
_cell_angle_gamma                 89.586813
_cell_volume                      1609.45837018

loop_
_atom_site_label
_atom_site_type_symbol
_atom_type_description
_atom_site_fract_x
_atom_site_fract_y
_atom_site_fract_z
_atom_type_partial_charge
O1    O     O_R   0.361600 0.167310 0.164620 -0.538814
O2    O     O_R   0.638400 0.832690 0.835380 -0.538810
O3    O     O_R   0.691080 0.157570 0.338750 -0.516111
O4    O     O_R   0.308920 0.842430 0.661250 -0.516131
O5    O     O_R   0.861410 0.336420 0.339360 -0.537058
O6    O     O_R   0.138590 0.663580 0.660640 -0.537079
C1    C     C_R   0.522363 0.135416 0.367513 0.885405
C2    C     C_R   0.477637 0.864584 0.632487 0.885370
O7    O     O_R   0.691320 0.156280 0.165240 -0.510737
O8    O     O_R   0.308680 0.843720 0.834760 -0.510742
O9    O     O_R   0.861640 0.335130 0.164600 -0.518364
O10   O     O_R   0.138360 0.664870 0.835400 -0.518360
C3    C     C_R   0.523786 0.132747 0.136945 0.753475
C4    C     C_R   0.476214 0.867252 0.863055 0.753482
O11   O     O_R   0.361370 0.168600 0.339370 -0.525019
O12   O     O_R   0.638630 0.831400 0.660630 -0.525010
O13   O     O_3   0.527990 0.310540 0.251980 -0.381244
O14   O     O_3   0.472010 0.689460 0.748020 -0.381243
V1    V     V_3+5 0.802830 0.240980 0.251990 1.664943
V2    V     V_3+5 0.197170 0.759020 0.748010 1.664888
O15   O     O_R   0.191360 0.346160 0.165220 -0.547715
O16   O     O_R   0.808640 0.653840 0.834780 -0.547713
C5    C     C_R   0.021721 0.366579 0.134850 0.738859
C6    C     C_R   0.978279 0.633421 0.865150 0.738873
O17   O     O_R   0.191130 0.347440 0.338740 -0.544340
O18   O     O_R   0.808870 0.652560 0.661260 -0.544328
C7    C     C_R   0.021892 0.369442 0.367647 0.721562
C8    C     C_R   0.978108 0.630556 0.632354 0.721513
V3    V     V_3+5 0.302840 0.262750 0.251990 1.590064
V4    V     V_3+5 0.697160 0.737250 0.748010 1.590055
O19   O     O_3   0.027820 0.193180 0.251990 -0.343211
O20   O     O_3   0.972180 0.806820 0.748010 -0.343215
C9    C     C_3   0.916122 0.422561 0.523126 0.004200
C10   C     C_3   0.083878 0.577436 0.476877 0.004230
C11   C     C_3   0.090894 0.466303 0.567816 -0.215331
C12   C     C_3   0.909106 0.533695 0.432186 -0.215300
H1    H     H_    0.164404 0.438310 0.623822 0.143613
H2    H     H_    0.835596 0.561688 0.376181 0.143629
C13   C     C_3   0.989097 0.561095 0.562255 -0.056241
C14   C     C_3   0.010902 0.438902 0.437748 -0.056219
C15   C     C_3   0.812957 0.517024 0.518664 -0.096555
C16   C     C_3   0.187043 0.482973 0.481338 -0.096488
H3    H     H_    0.659031 0.530498 0.534401 0.149901
H4    H     H_    0.340968 0.469499 0.465602 0.149890
C17   C     C_R   0.840338 0.503677 0.947014 -0.197510
C18   C     C_R   0.159661 0.496323 0.052986 -0.197504
H5    H     H_    0.716489 0.504640 0.905738 0.190316
H6    H     H_    0.283511 0.495361 0.094262 0.190318
C19   C     C_R   0.847544 0.437878 0.010474 0.403653
C20   C     C_R   0.152456 0.562122 0.989526 0.403654
C21   C     C_R   0.008624 0.433788 0.065041 -0.190134
C22   C     C_R   0.991376 0.566212 0.934960 -0.190139
C23   C     C_R   0.619825 0.983491 0.430225 0.308325
C24   C     C_R   0.380176 0.016510 0.569776 0.308328
C25   C     C_R   0.608004 0.917698 0.494222 0.357418
C26   C     C_R   0.391997 0.082303 0.505778 0.357422
C27   C     C_R   0.487961 0.933663 0.564491 -0.319766
C28   C     C_R   0.512039 0.066337 0.435510 -0.319750
C29   C     C_R   0.657934 0.993693 0.055196 -0.031887
C30   C     C_R   0.342062 0.006303 0.944807 -0.031873
C31   C     C_R   0.637509 0.930365 0.989306 -0.140180
C32   C     C_R   0.362493 0.069635 0.010693 -0.140189
H7    H     H_    0.744729 0.876042 0.981927 0.147448
H8    H     H_    0.255276 0.123959 0.018072 0.147430
C33   C     C_R   0.482785 0.935593 0.932953 -0.070113
C34   C     C_R   0.517216 0.064406 0.067047 -0.070110
C35   C     C_2   0.821152 0.335388 0.549769 0.420506
H9    H     H_    0.882810 0.295083 0.599982 0.107309
O21   O     O_2   0.675453 0.308879 0.514563 -0.509775
C36   C     C_2   0.178851 0.664610 0.450240 0.420384
H10   H     H_    0.117070 0.704976 0.400094 0.107415
O22   O     O_2   0.324670 0.691063 0.485389 -0.509767
Cl1   Cl    Cl    0.653633 0.359876 0.015257 -0.660820
Cl2   Cl    Cl    0.346367 0.640124 0.984743 -0.660811
Cl3   Cl    Cl    0.763542 0.958747 0.341131 -0.584844
Cl4   Cl    Cl    0.236460 0.041254 0.658870 -0.584858
Cl5   Cl    Cl    0.738595 0.812912 0.483457 -0.573069
Cl6   Cl    Cl    0.261410 0.187090 0.516544 -0.573046
C37   C     C_2   0.824942 0.979579 0.111042 0.439369
H11   H     H_    0.842774 0.914188 0.142543 0.091180
O23   O     O_2   0.951333 0.037345 0.117025 -0.508702
C38   C     C_2   0.175031 0.020403 0.888971 0.439336
H12   H     H_    0.157187 0.085783 0.857455 0.091189
O24   O     O_2   0.048636 0.962637 0.883013 -0.508723

loop_
_geom_bond_atom_site_label_1
_geom_bond_atom_site_label_2
_ccdc_geom_bond_type
C6    C22   S    
O13   V3    S    
C10   C16   S    
O4    C2    A    
V1    O19   S    
C13   C15   S    
O9    V1    S    
O16   C6    A    
C11   H1    S    
O3    C1    A    
C20   Cl2   S    
C29   C34   A    
C25   Cl5   S    
O12   V4    S    
C26   Cl6   S    
C30   C32   A    
C31   H7    S    
C11   C16   S    
O7    C3    A    
C32   H8    S    
C9    C11   S    
O5    C7    A    
C30   C38   S    
O7    V1    S    
O6    C8    A    
O8    V2    S    
C19   C21   A    
C20   C22   A    
O3    V1    S    
C36   H10   S    
O14   V4    S    
C10   C36   S    
C1    C28   S    
C10   C12   S    
C17   H5    S    
C2    O12   A    
C15   H3    S    
C12   C15   S    
C23   Cl3   S    
C16   H4    S    
O11   V3    S    
C18   H6    S    
C3    C34   S    
C23   C25   A    
O17   V3    S    
C24   C26   A    
C29   C31   A    
C9    C14   S    
C32   C34   A    
C35   H9    S    
C12   C14   S    
O8    C4    A    
C29   C37   S    
C37   O23   D    
C1    O11   A    
C8    C13   S    
O15   V3    S    
C18   C21   A    
C10   C13   S    
C35   O21   D    
C11   C13   S    
C2    C27   S    
C5    C21   S    
C17   C19   A    
C7    C14   S    
O10   V2    S    
O1    V3    S    
C24   Cl4   S    
C30   C33   A    
O18   V4    S    
C38   O24   D    
O15   C5    A    
C19   Cl1   S    
O1    C3    A    
C12   H2    S    
C9    C35   S    
V2    O20   S    
O10   C6    A    
O16   V4    S    
C14   C16   S    
C23   C28   A    
O5    V1    S    
O17   C7    A    
O6    V2    S    
C18   C20   A    
O18   C8    A    
C17   C22   A    
O2    V4    S    
C9    C15   S    
C25   C27   A    
V3    O19   S    
V4    O20   S    
O9    C5    A    
O13   V1    S    
C4    C33   S    
C26   C28   A    
O14   V2    S    
O2    C4    A    
C37   H11   S    
O4    V2    S    
C31   C33   A    
C38   H12   S    
C36   O22   D    
C24   C27   A    
