data_mof_unit_19679.cif
_audit_creation_date              2012-12-10T16:52:40-0500
_audit_creation_method            fapswitch 2.2
_symmetry_space_group_name_H-M    P1
_symmetry_Int_Tables_number       1
_space_group_crystal_system       triclinic
_cell_length_a                    7.920533
_cell_length_b                    8.562602
_cell_length_c                    13.76157
_cell_angle_alpha                 94.807703
_cell_angle_beta                  92.697291
_cell_angle_gamma                 93.215529
_cell_volume                      927.309291133

loop_
_atom_site_label
_atom_site_type_symbol
_atom_type_description
_atom_site_fract_x
_atom_site_fract_y
_atom_site_fract_z
_atom_type_partial_charge
C1    C     C_R   0.043423 0.793927 0.499753 0.943467
C2    C     C_R   0.938145 0.491642 0.318038 0.903467
C3    C     C_R   0.091397 0.519354 0.787519 -0.163270
C4    C     C_R   0.908430 0.480367 0.212498 -0.162753
C5    C     C_R   0.056544 0.665097 0.941589 -0.192700
C6    C     C_R   0.941894 0.333348 0.058717 -0.192567
C7    C     C_R   0.994862 0.614919 0.847460 -0.278025
C8    C     C_R   0.004253 0.384024 0.152636 -0.278420
C9    C     C_R   0.235364 0.454135 0.825679 0.513886
C10   C     C_R   0.764545 0.545795 0.174416 0.514252
C11   C     C_R   0.300780 0.503445 0.920825 -0.042472
C12   C     C_R   0.956579 0.206075 0.500253 0.943412
C13   C     C_R   0.698043 0.495590 0.079599 -0.042609
C14   C     C_R   0.214400 0.619485 0.975501 0.113680
C15   C     C_R   0.783934 0.379021 0.025000 0.113207
C16   C     C_R   0.458791 0.456066 0.958487 0.067490
C17   C     C_R   0.539681 0.542723 0.042165 0.067332
C18   C     C_3   0.195649 0.020528 0.597390 -0.849049
C19   C     C_3   0.804378 0.979481 0.402607 -0.848479
C20   C     C_3   0.485035 0.304246 0.434718 -0.466485
C21   C     C_3   0.514966 0.695756 0.565277 -0.466072
C22   C     C_R   0.458522 0.672155 0.085658 -0.138226
C23   C     C_R   0.539425 0.326247 0.915163 -0.137175
C24   C     C_R   0.293971 0.701187 0.057884 -0.230138
C25   C     C_R   0.703869 0.296915 0.942895 -0.229407
C26   C     C_2   0.062360 0.957731 0.518240 -0.038025
C27   C     C_2   0.937644 0.042273 0.481769 -0.038333
C28   C     C_R   0.061850 0.508344 0.681966 0.903047
F1    F     F_    0.679582 0.640324 0.236582 -0.700554
F2    F     F_    0.321695 0.360937 0.763438 -0.699605
H1    H     H_    0.234320 0.797683 0.096065 0.145580
H2    H     H_    0.305907 0.076264 0.564200 0.264930
H3    H     H_    0.142066 0.105989 0.651018 0.264368
H4    H     H_    0.757505 0.075085 0.360658 0.211227
H5    H     H_    0.858020 0.894086 0.348963 0.264906
H6    H     H_    0.694138 0.923675 0.435775 0.264908
H7    H     H_    0.373702 0.245510 0.391975 0.172958
H8    H     H_    0.587008 0.313644 0.383378 0.203904
H9    H     H_    0.518475 0.230428 0.494349 0.189872
H10   H     H_    0.626296 0.754493 0.608023 0.172932
H11   H     H_    0.481530 0.769572 0.505645 0.189653
H12   H     H_    0.763144 0.200068 0.904840 0.145429
H13   H     H_    0.412988 0.686362 0.616616 0.204113
H14   H     H_    0.118090 0.335908 0.181285 0.184508
H15   H     H_    0.880968 0.662872 0.818759 0.184758
H16   H     H_    0.987834 0.749668 0.984714 0.147976
H17   H     H_    0.010137 0.248322 0.015657 0.147835
H18   H     H_    0.520358 0.758319 0.138820 0.218626
H19   H     H_    0.477019 0.240134 0.862127 0.217452
H20   H     H_    0.242480 0.924932 0.639361 0.211224
N1    N     N_2   0.440860 0.456490 0.474790 0.016375
N2    N     N_2   0.559140 0.543510 0.525210 0.016512
O1    O     O_R   0.891570 0.738930 0.506190 -0.615516
O2    O     O_R   0.108430 0.261070 0.493810 -0.615558
O3    O     O_R   0.174650 0.711050 0.490030 -0.638312
O4    O     O_R   0.825350 0.288950 0.509970 -0.638222
O5    O     O_R   0.909850 0.521900 0.644940 -0.622248
O6    O     O_R   0.090150 0.478100 0.355060 -0.622386
O7    O     O_R   0.192930 0.494020 0.628780 -0.559302
O8    O     O_R   0.807070 0.505980 0.371220 -0.559699
Zn1   Zn    Zn3+2 0.810990 0.518620 0.510790 0.971208
Zn2   Zn    Zn3+2 0.189010 0.481380 0.489210 0.971113

loop_
_geom_bond_atom_site_label_1
_geom_bond_atom_site_label_2
_ccdc_geom_bond_type
C25   H12   S    
O6    Zn2   S    
C2    C4    S    
C2    O6    A    
O5    Zn1   S    
C3    C9    A    
C20   N1    S    
C23   H19   S    
C19   C27   S    
C5    H16   S    
C22   H18   S    
C17   C22   A    
C18   C26   S    
C13   C17   A    
C19   H6    S    
C4    C8    A    
C23   C25   A    
C1    O3    A    
C24   H1    S    
C19   H5    S    
C28   O5    A    
C20   H7    S    
C9    C11   A    
C10   F1    S    
C5    C14   A    
C12   O4    A    
N1    Zn2   S    
C9    F2    S    
C21   H11   S    
C7    H15   S    
C3    C28   S    
C11   C14   A    
C16   C23   A    
C3    C7    A    
N2    Zn1   S    
C13   C15   A    
C26   C27   D    
C1    C26   S    
C18   H3    S    
C22   C24   A    
C15   C25   A    
C18   H2    S    
C6    H17   S    
C12   C27   S    
C4    C10   A    
N1    N2    D    
O3    Zn2   S    
C2    O8    A    
C20   H8    S    
C18   H20   S    
C11   C16   A    
C28   O7    A    
C14   C24   A    
C5    C7    A    
C20   H9    S    
C1    O1    A    
O4    Zn1   S    
C16   C17   A    
O7    Zn2   S    
C6    C8    A    
O2    Zn2   S    
C6    C15   A    
C21   H13   S    
O1    Zn1   S    
C10   C13   A    
C21   N2    S    
C12   O2    A    
C8    H14   S    
O8    Zn1   S    
C19   H4    S    
C21   H10   S    
