data_mof_unit_56526.cif
_audit_creation_date              2012-12-10T17:12:04-0500
_audit_creation_method            fapswitch 2.2
_symmetry_space_group_name_H-M    P1
_symmetry_Int_Tables_number       1
_space_group_crystal_system       triclinic
_cell_length_a                    11.633034
_cell_length_b                    13.099217
_cell_length_c                    15.951896
_cell_angle_alpha                 90.203146
_cell_angle_beta                  74.82314
_cell_angle_gamma                 99.629837
_cell_volume                      2310.89906867

loop_
_atom_site_label
_atom_site_type_symbol
_atom_type_description
_atom_site_fract_x
_atom_site_fract_y
_atom_site_fract_z
_atom_type_partial_charge
C1    C     C_R   0.520373 0.700589 0.501520 0.869763
C2    C     C_R   0.479677 0.299566 0.498244 0.869421
C3    C     C_R   0.354008 0.480135 0.084864 -0.275449
C4    C     C_R   0.645302 0.507094 0.915199 -0.270234
C5    C     C_R   0.271640 0.491924 0.036565 0.485434
C6    C     C_R   0.727297 0.495325 0.963792 0.479828
C7    C     C_R   0.470480 0.187103 0.493092 -0.220881
C8    C     C_R   0.529723 0.813367 0.505981 -0.224364
C9    C     C_R   0.586916 0.970353 0.576182 -0.228226
C10   C     C_R   0.416229 0.030996 0.421237 -0.220800
C11   C     C_R   0.592577 0.866184 0.561995 0.466066
C12   C     C_R   0.411372 0.135321 0.434693 0.463469
C13   C     C_R   0.470082 0.867672 0.458723 -0.105924
C14   C     C_R   0.526779 0.132329 0.542354 -0.102715
C15   C     C_R   0.471369 0.974585 0.469539 0.013459
C16   C     C_R   0.528841 0.026115 0.529713 0.009173
C17   C     C_R   0.937350 0.583680 0.587874 -0.346438
C18   C     C_R   0.062328 0.415673 0.412599 -0.355539
C19   C     C_R   0.819430 0.576771 0.578940 0.141968
C20   C     C_R   0.180112 0.422327 0.421717 0.141785
C21   C     C_R   0.861322 0.465567 0.461350 0.055826
C22   C     C_R   0.138751 0.534591 0.538551 0.046504
C23   C     C_R   0.427505 0.490725 0.667952 0.832429
C24   C     C_R   0.572483 0.507720 0.331965 0.829592
C25   C     C_R   0.980738 0.469856 0.468041 0.064848
C26   C     C_R   0.019179 0.529996 0.532085 0.065863
C27   C     C_R   0.386806 0.486705 0.763638 -0.106459
C28   C     C_R   0.613147 0.508082 0.236303 -0.105918
C29   C     C_R   0.233359 0.509543 0.894716 -0.128928
C30   C     C_R   0.766072 0.481606 0.105980 -0.129302
C31   C     C_R   0.272465 0.509685 0.804526 -0.225012
C32   C     C_R   0.727413 0.484446 0.196090 -0.223293
C33   C     C_R   0.462915 0.464371 0.815257 -0.054760
C34   C     C_R   0.536481 0.527215 0.184317 -0.060413
C35   C     C_R   0.433691 0.487327 0.904278 -0.007083
C36   C     C_R   0.565547 0.502170 0.095744 -0.014942
C37   C     C_R   0.312687 0.497731 0.945507 0.059496
C38   C     C_R   0.686529 0.491489 0.054871 0.060931
C39   C     C_R   0.519758 0.494674 0.954291 0.022002
C40   C     C_R   0.479527 0.493737 0.045696 0.011936
Cu1   Cu    Cu3+1 0.386820 0.492450 0.493500 0.999986
Cu2   Cu    Cu3+1 0.613180 0.507550 0.506500 1.003995
H1    H     H_    0.243234 0.381836 0.378003 0.166711
H2    H     H_    0.756158 0.616921 0.622942 0.157991
H3    H     H_    0.963944 0.630096 0.638200 0.145421
H4    H     H_    0.035629 0.368987 0.362449 0.145009
H5    H     H_    0.788513 0.471034 0.234170 0.158191
H6    H     H_    0.211644 0.525019 0.766827 0.160932
H7    H     H_    0.141790 0.521437 0.924350 0.202078
H8    H     H_    0.857619 0.469430 0.076680 0.201623
H9    H     H_    0.318983 0.459115 0.153155 0.174586
H10   H     H_    0.680883 0.526799 0.846661 0.163867
H11   H     H_    0.628228 0.006398 0.624673 0.177448
H12   H     H_    0.377884 0.995611 0.371104 0.178885
H13   H     H_    0.169850 0.581145 0.587098 0.125041
H14   H     H_    0.830334 0.419234 0.412645 0.121757
N1    N     N_R   0.216750 0.481110 0.483710 -0.183147
N2    N     N_R   0.783250 0.518890 0.516290 -0.181916
O1    O     O_R   0.419950 0.645670 0.495380 -0.579725
O2    O     O_R   0.580050 0.354330 0.504620 -0.576337
O3    O     O_R   0.611110 0.658410 0.506370 -0.562461
O4    O     O_R   0.388890 0.341590 0.493630 -0.563734
O5    O     O_R   0.350820 0.490050 0.621260 -0.609096
O6    O     O_R   0.649180 0.509950 0.378740 -0.611068
O7    O     O_R   0.541970 0.502800 0.632250 -0.541339
O8    O     O_R   0.458030 0.497200 0.367750 -0.536240
O9    O     O_3   0.148417 0.484666 0.075582 -0.587758
C41   C     C_3   0.126784 0.546505 0.148913 -0.321911
H15   H     H_    0.189062 0.622598 0.138504 0.178461
H16   H     H_    0.132045 0.503864 0.207460 0.179742
H17   H     H_    0.033373 0.562930 0.161682 0.187737
O10   O     O_3   0.850158 0.501078 0.924548 -0.591492
C42   C     C_3   0.869761 0.433754 0.854781 -0.304726
H18   H     H_    0.861278 0.470787 0.794665 0.184282
H19   H     H_    0.808333 0.357361 0.870004 0.170136
H20   H     H_    0.963767 0.418658 0.841578 0.187842
C43   C     C_2   0.450050 0.600429 0.212466 0.888282
O11   O     O_2   0.471490 0.685277 0.174579 -0.548988
O12   O     O_R   0.340691 0.570357 0.275509 -0.767423
H21   H     H_    0.286660 0.624688 0.283421 0.319920
C44   C     C_2   0.548534 0.390226 0.786624 0.877290
O13   O     O_2   0.638195 0.411676 0.725372 -0.608304
O14   O     O_R   0.531008 0.298642 0.836630 -0.721782
H22   H     H_    0.598041 0.256750 0.815311 0.333695
C45   C     C_2   0.576740 0.185204 0.610429 0.876633
O15   O     O_2   0.508175 0.215543 0.673492 -0.587191
O16   O     O_R   0.701199 0.200760 0.601889 -0.765386
H23   H     H_    0.724028 0.237577 0.652691 0.341677
C46   C     C_2   0.407237 0.812938 0.397620 0.877134
O17   O     O_2   0.464856 0.772177 0.335362 -0.572115
O18   O     O_R   0.282619 0.808310 0.411781 -0.774079
H24   H     H_    0.250178 0.771067 0.364829 0.322277
O19   O     O_3   0.360622 0.189492 0.383374 -0.572801
C47   C     C_3   0.233842 0.157789 0.408346 -0.284999
H25   H     H_    0.194880 0.177065 0.476810 0.170723
H26   H     H_    0.206746 0.073794 0.399462 0.165859
H27   H     H_    0.193880 0.199961 0.366081 0.174560
O20   O     O_3   0.647298 0.812986 0.611124 -0.573051
C48   C     C_3   0.773854 0.844481 0.581806 -0.285273
H28   H     H_    0.801854 0.928495 0.590141 0.163765
H29   H     H_    0.808343 0.825195 0.512730 0.169926
H30   H     H_    0.817332 0.802137 0.621506 0.175765

loop_
_geom_bond_atom_site_label_1
_geom_bond_atom_site_label_2
_ccdc_geom_bond_type
O16   H23   S    
O19   C47   S    
C5    C37   A    
C1    C8    S    
C42   H18   S    
C2    C7    S    
C5    O9    S    
Cu2   N2    S    
C22   N1    A    
C44   O13   D    
C29   H7    S    
C43   O11   D    
C27   C33   A    
C6    O10   S    
C8    C13   A    
C4    H10   S    
C11   O20   S    
C17   C26   A    
C35   C37   A    
C9    C16   A    
C17   H3    S    
C10   C15   A    
C1    O1    A    
C34   C43   S    
C33   C35   A    
C2    O2    A    
C15   C16   A    
C30   C38   A    
Cu1   Cu2   S    
C17   C19   A    
C7    C14   A    
O14   H22   S    
C41   H15   S    
Cu2   O7    S    
C6    C38   A    
C23   C27   S    
C46   O18   S    
C34   C36   A    
C24   O8    A    
C23   O5    A    
C30   H8    S    
C28   C34   A    
C24   O6    A    
C42   H19   S    
C18   C25   A    
Cu1   O4    S    
C18   H4    S    
C44   O14   S    
C43   O12   S    
C19   N2    A    
C7    C12   A    
C45   O16   S    
C27   C31   A    
O9    C41   S    
C28   C32   A    
Cu1   O1    S    
C4    C6    A    
Cu2   O2    S    
O18   H24   S    
C3    H9    S    
C47   H27   S    
C25   C26   A    
C45   O15   D    
C35   C39   A    
C48   H28   S    
C4    C39   A    
C36   C40   A    
C47   H26   S    
C9    C11   A    
Cu2   O3    S    
Cu1   O8    S    
C10   C12   A    
C48   H29   S    
C3    C40   A    
C31   H6    S    
C13   C15   A    
C32   H5    S    
C14   C16   A    
C12   O19   S    
C9    H11   S    
Cu1   O5    S    
Cu2   O6    S    
C39   C40   A    
C20   H1    S    
C19   H2    S    
C21   C25   A    
C13   C46   S    
C24   C28   S    
C14   C45   S    
O10   C42   S    
C3    C5    A    
C1    O3    A    
C21   H14   S    
C41   H17   S    
C22   H13   S    
C23   O7    A    
C36   C38   A    
C46   O17   D    
Cu1   N1    S    
C21   N2    A    
C29   C31   A    
C30   C32   A    
C8    C11   A    
C42   H20   S    
C18   C20   A    
C47   H25   S    
C10   H12   S    
O12   H21   S    
C48   H30   S    
C41   H16   S    
O20   C48   S    
C22   C26   A    
C29   C37   A    
C20   N1    A    
C33   C44   S    
C2    O4    A    
