data_mof_unit_25470.cif
_audit_creation_date              2012-12-11T17:37:45-0500
_audit_creation_method            fapswitch 2.2
_symmetry_space_group_name_H-M    P1
_symmetry_Int_Tables_number       1
_space_group_crystal_system       triclinic
_cell_length_a                    13.097934
_cell_length_b                    12.999705
_cell_length_c                    15.31807
_cell_angle_alpha                 116.032488
_cell_angle_beta                  63.936492
_cell_angle_gamma                 96.883348
_cell_volume                      2096.63535861

loop_
_atom_site_label
_atom_site_type_symbol
_atom_type_description
_atom_site_fract_x
_atom_site_fract_y
_atom_site_fract_z
_atom_type_partial_charge
C1    C     C_R   0.020618 0.834478 0.032807 -0.122232
C2    C     C_R   0.318845 0.535687 0.779616 0.515070
C3    C     C_R   0.244011 0.482042 0.107665 0.475591
C4    C     C_R   0.704056 0.403760 0.209444 0.472477
C5    C     C_R   0.984160 0.304696 0.698370 -0.273163
C6    C     C_R   0.333040 0.547331 0.078208 -0.036887
C7    C     C_R   0.924535 0.211564 0.698267 0.013595
C8    C     C_R   0.325633 0.466376 0.677448 -0.125260
C9    C     C_R   0.085415 0.145846 0.968975 0.017552
C10   C     C_R   0.357758 0.807616 0.307651 0.541379
C11   C     C_R   0.241150 0.844525 0.372552 0.489674
C12   C     C_R   0.707639 0.433613 0.305617 0.001355
C13   C     C_R   0.190052 0.924953 0.360476 -0.130484
C14   C     C_R   0.256398 0.965352 0.283132 -0.209153
C15   C     C_R   0.371174 0.925489 0.216770 -0.117009
C16   C     C_R   0.744826 0.560348 0.927508 -0.120810
C17   C     C_R   0.421995 0.847475 0.228943 -0.382941
C18   C     C_R   0.048903 0.072653 0.526291 -0.262542
C19   C     C_R   0.936492 0.116686 0.601083 0.083524
C20   C     C_R   0.842463 0.063967 0.585179 0.057840
C21   C     C_R   0.864048 0.964708 0.491402 -0.296999
C22   C     C_R   0.976748 0.922151 0.416647 0.058711
C23   C     C_R   0.643228 0.529690 0.987141 -0.035556
C24   C     C_R   0.070243 0.974791 0.433333 0.056098
C25   C     C_R   0.646348 0.046042 0.710415 -0.077779
C26   C     C_R   0.532450 0.089177 0.780258 -0.117358
C27   C     C_R   0.494016 0.196865 0.800926 -0.074521
C28   C     C_R   0.966015 0.716603 0.315505 -0.104278
C29   C     C_R   0.569587 0.261705 0.752147 -0.116500
C30   C     C_R   0.684151 0.220158 0.684223 -0.170746
C31   C     C_R   0.723140 0.111585 0.662397 0.160870
C32   C     C_R   0.843331 0.166225 0.387171 -0.141139
C33   C     C_R   0.748531 0.216094 0.395525 -0.123264
C34   C     C_R   0.994971 0.823124 0.320892 0.060270
C35   C     C_R   0.727258 0.336117 0.443875 0.138543
C36   C     C_R   0.800398 0.405424 0.486003 -0.177680
C37   C     C_R   0.896065 0.355314 0.475999 -0.109478
C38   C     C_R   0.917686 0.235760 0.426335 -0.091645
C39   C     C_R   0.522268 0.395579 0.553710 -0.266713
C40   C     C_R   0.663371 0.462935 0.027603 -0.172382
C41   C     C_R   0.421335 0.450877 0.579094 0.082728
C42   C     C_R   0.413989 0.496283 0.513670 0.006139
C43   C     C_R   0.509884 0.483868 0.421862 -0.182494
C44   C     C_R   0.612374 0.432325 0.397887 0.102624
C45   C     C_R   0.312837 0.590363 0.021023 0.009724
C46   C     C_R   0.620325 0.388341 0.463968 0.010059
C47   C     C_R   0.254847 0.519768 0.473165 -0.148267
C48   C     C_R   0.153523 0.577585 0.501835 -0.049562
C49   C     C_R   0.106973 0.677546 0.598205 -0.036734
C50   C     C_R   0.162760 0.721119 0.665089 -0.087278
C51   C     C_R   0.264325 0.663855 0.636525 -0.120253
C52   C     C_R   0.052705 0.817256 0.219023 -0.145634
C53   C     C_R   0.310001 0.561476 0.541249 0.122240
C54   C     C_2   0.442012 0.548747 0.078243 -0.309677
C55   C     C_2   0.535889 0.546878 0.991748 0.512310
C56   C     C_R   0.902265 0.203651 0.791240 0.489684
C57   C     C_2   0.887544 0.966636 0.034150 -0.235775
C58   C     C_2   0.885729 0.061550 0.118746 -0.080905
C59   C     C_R   0.800851 0.494024 0.306084 -0.232808
C60   C     C_R   0.921470 0.749823 0.936489 -0.143990
C61   C     C_R   0.944100 0.855506 0.000636 0.127152
C62   C     C_R   0.216951 0.444376 0.685462 -0.168782
C63   C     C_R   0.097654 0.250998 0.043356 -0.100087
C64   C     C_R   0.000047 0.167719 0.946844 -0.124267
H1    H     H_    0.062216 0.898272 0.076532 0.089174
H2    H     H_    0.690738 0.161340 0.366039 0.127284
H3    H     H_    0.782348 0.497996 0.527965 0.103927
H4    H     H_    0.525158 0.361903 0.606166 0.141180
H5    H     H_    0.506111 0.520156 0.371442 0.148760
H6    H     H_    0.289117 0.441426 0.399119 0.124719
H7    H     H_    0.110789 0.544624 0.449601 0.126322
H8    H     H_    0.028154 0.721766 0.620602 0.096440
H9    H     H_    0.127057 0.799002 0.739299 0.111886
H10   H     H_    0.927868 0.690839 0.380464 0.100262
H11   H     H_    0.306441 0.698161 0.689304 0.115958
H12   H     H_    0.158359 0.265253 0.076465 0.157179
H13   H     H_    0.446926 0.540297 0.143695 0.136428
H14   H     H_    0.839566 0.970281 0.992939 0.151750
H15   H     H_    0.095458 0.884254 0.196998 0.101295
H16   H     H_    0.832205 0.524508 0.366767 0.133075
H17   H     H_    0.351075 0.661377 0.003021 0.201312
H18   H     H_    0.805451 0.166246 0.908098 0.298521
H19   H     H_    0.192190 0.398617 0.620496 0.133463
H20   H     H_    0.474982 0.574023 0.741043 0.319975
H21   H     H_    0.274015 0.465015 0.213199 0.321802
H22   H     H_    0.009913 0.339500 0.640025 0.130369
H23   H     H_    0.971655 0.104607 0.889644 0.125872
H24   H     H_    0.489586 0.718464 0.274620 0.298729
H25   H     H_    0.100158 0.829759 0.485272 0.307573
H26   H     H_    0.680258 0.290172 0.089539 0.301872
H27   H     H_    0.421366 0.956429 0.156665 0.155847
H28   H     H_    0.674843 0.961885 0.694002 0.113230
H29   H     H_    0.473735 0.038648 0.817549 0.115504
H30   H     H_    0.405530 0.229660 0.853987 0.110331
H31   H     H_    0.991109 0.196992 0.419506 0.114225
H32   H     H_    0.759268 0.601253 0.875731 0.088866
H33   H     H_    0.859006 0.073607 0.350566 0.121423
H34   H     H_    0.511629 0.818689 0.177525 0.154175
H35   H     H_    0.952383 0.409068 0.508292 0.100874
H36   H     H_    0.607342 0.529961 0.842688 0.305811
H37   H     H_    0.929891 0.062916 0.164620 0.121241
H38   H     H_    0.603816 0.416288 0.068655 0.135333
H39   H     H_    0.871619 0.736312 0.892789 0.096963
H40   H     H_    0.218944 0.028154 0.274433 0.139798
H41   H     H_    0.120345 0.112741 0.542313 0.152070
H42   H     H_    0.793665 0.921867 0.475239 0.141275
H43   H     H_    0.538878 0.343417 0.765893 0.154488
H44   H     H_    0.741644 0.271287 0.646845 0.128717
N1    N     N_R   0.037320 0.720000 0.995830 -0.046159
N2    N     N_R   0.824900 0.517970 0.936430 -0.030022
N3    N     N_R   0.003190 0.648180 0.211390 -0.038761
N4    N     N_R   0.774330 0.457010 0.995830 -0.046228
N5    N     N_R   0.053760 0.709130 0.151980 -0.049991
N6    N     N_R   0.853840 0.498830 0.211390 -0.057622
N7    N     N_R   0.974250 0.667320 0.936430 -0.041342
N8    N     N_R   0.225670 0.542990 0.004170 -0.098729
N9    N     N_R   0.946240 0.290870 0.848020 -0.106579
N10   N     N_R   0.146160 0.501170 0.788610 -0.064573
N11   N     N_R   0.025750 0.332680 0.063570 -0.032944
N12   N     N_R   0.962680 0.280000 0.004170 -0.061148
N13   N     N_R   0.209230 0.553860 0.848010 -0.075533
N14   N     N_R   0.175100 0.482030 0.063570 -0.089227
N15   N     N_R   0.996810 0.351820 0.788610 -0.053291
N16   N     N_R   0.790770 0.446140 0.151990 -0.107006
Ni1   Ni    Ni4+2 0.130310 0.630310 0.000000 0.224416
Ni2   Ni    Ni4+2 0.869690 0.369690 0.000000 0.203636
Ni3   Ni    Ni4+2 0.985660 0.509480 0.863750 0.199378
Ni4   Ni    Ni4+2 0.014340 0.490520 0.136250 0.250413
O1    O     O_3   0.823282 0.136898 0.830966 -0.779550
O2    O     O_3   0.402585 0.594591 0.807271 -0.762568
O3    O     O_3   0.214074 0.445820 0.187033 -0.785285
O4    O     O_3   0.406898 0.733469 0.323909 -0.733120
O5    O     O_3   0.181851 0.801810 0.447723 -0.730170
O6    O     O_3   0.642805 0.318056 0.168791 -0.768671
O7    O     O_3   0.530911 0.550699 0.904555 -0.756802

loop_
_geom_bond_atom_site_label_1
_geom_bond_atom_site_label_2
_ccdc_geom_bond_type
C25   C31   A    
C62   H19   S    
C6    C45   A    
C27   C29   A    
C9    C64   A    
C39   H4    S    
C35   C36   A    
C3    C6    A    
C28   H10   S    
C36   H3    S    
C16   N2    A    
C39   C41   A    
C52   N5    A    
C26   C27   A    
C29   C30   A    
N8    N14   A    
C56   N9    A    
C18   C24   A    
N16   Ni2   S    
C36   C37   A    
C51   H11   S    
C11   O5    S    
C42   C53   S    
C30   C31   A    
H26   O6    S    
N12   Ni2   S    
N5    Ni1   S    
C63   H12   S    
C10   C17   A    
C23   C40   A    
N7    Ni3   S    
C32   H33   S    
C4    N16   A    
C18   C19   A    
C41   C42   A    
C1    N1    A    
C12   C59   A    
N15   Ni3   S    
C19   C20   A    
C49   H8    S    
C38   H31   S    
C1    H1    S    
C32   C38   A    
C4    C12   A    
C60   H39   S    
C17   H34   S    
C64   H23   S    
N4    Ni2   S    
C56   O1    S    
C3    N14   A    
N2    Ni3   S    
C47   C53   A    
C54   H13   S    
N6    N16   A    
N11   Ni4   S    
C26   H29   S    
C28   C34   A    
C43   H5    S    
C13   C14   A    
C7    C56   A    
C6    C54   S    
C44   C46   A    
C33   H2    S    
C10   O4    S    
C28   N3    A    
C22   C34   S    
C45   H17   S    
C16   H32   S    
H25   O5    S    
C8    C41   S    
C40   N4    A    
C50   H9    S    
C5    C7    A    
C2    O2    S    
C25   C26   A    
C15   H27   S    
C13   C24   S    
C60   C61   A    
C51   C53   A    
N10   N13   A    
C43   C44   A    
C47   H6    S    
N13   Ni1   S    
C37   C38   A    
N6    Ni4   S    
C14   H40   S    
C47   C48   A    
C50   C51   A    
N3    N5    A    
C58   H37   S    
H18   O1    S    
C57   C61   S    
C39   C46   A    
C5    H22   S    
N1    Ni1   S    
C48   C49   A    
C49   C50   A    
C16   C23   A    
C7    C19   S    
N8    Ni1   S    
C3    O3    S    
C42   C43   A    
H24   O4    S    
C48   H7    S    
C52   H15   S    
C37   H35   S    
C4    O6    S    
N9    Ni2   S    
C2    N13   A    
C15   C17   A    
C54   C55   D    
C25   H28   S    
C30   H44   S    
C9    C63   A    
C57   H14   S    
C2    C8    A    
C21   H42   S    
C60   N7    A    
C1    C61   A    
C59   H16   S    
N11   N12   A    
H36   O7    S    
C23   C55   S    
C5    N15   A    
C34   C52   A    
C64   N12   A    
C32   C33   A    
N9    N15   A    
C18   H41   S    
C12   C44   S    
H21   O3    S    
C11   C13   A    
C45   N8    A    
C57   C58   D    
C59   N6    A    
C55   O7    S    
H20   O2    S    
C33   C35   A    
C22   C24   A    
N14   Ni4   S    
N2    N4    A    
C62   N10   A    
C10   C11   A    
N1    N7    A    
C40   H38   S    
C20   C21   A    
C63   N11   A    
N10   Ni3   S    
N3    Ni4   S    
C14   C15   A    
C29   H43   S    
C27   H30   S    
C21   C22   A    
C35   C46   S    
C8    C62   A    
C20   C31   S    
