data_mof_unit_55628.cif
_audit_creation_date              2013-03-05T16:12:18-0500
_audit_creation_method            fapswitch 2.2
_symmetry_space_group_name_H-M    P1
_symmetry_Int_Tables_number       1
_space_group_crystal_system       triclinic
_cell_length_a                    8.284195
_cell_length_b                    16.455517
_cell_length_c                    26.851532
_cell_angle_alpha                 72.830782
_cell_angle_beta                  96.663384
_cell_angle_gamma                 96.747901
_cell_volume                      3460.28535898

loop_
_atom_site_label
_atom_site_type_symbol
_atom_site_description
_atom_site_fract_x
_atom_site_fract_y
_atom_site_fract_z
_atom_type_partial_charge
P1    P     P_3+3 0.610630 0.953360 0.619150 0.533137
O1    O     O_2   0.431310 0.922990 0.623550 -0.402617
O2    O     O_3   0.663280 0.983100 0.563360 -0.309784
O3    O     O_3   0.126250 0.812630 0.574830 -0.397074
O4    O     O_2   0.306288 0.766424 0.664496 -0.387763
O5    O     O_3   0.651102 0.040177 0.645838 -0.556021
O6    O     O_3   0.067781 0.654675 0.652399 -0.518720
H1    H     H_    0.186769 0.660103 0.587025 0.183894
C1    C     C_3   0.059917 0.537369 0.616352 -0.941692
H2    H     H_    0.168283 0.511442 0.641997 0.284585
H3    H     H_    0.947986 0.507729 0.636030 0.256019
P2    P     P_3+3 0.057260 0.861390 0.437850 0.525844
P3    P     P_3+3 0.496941 0.700783 0.530054 0.443603
O7    O     O_2   0.229950 0.835370 0.450810 -0.369975
O8    O     O_3   0.517580 0.797570 0.545130 -0.367360
O9    O     O_2   0.332126 0.695007 0.497271 -0.385639
O10   O     O_3   0.036302 0.906687 0.369682 -0.551177
O11   O     O_3   0.472798 0.620251 0.588684 -0.518172
C2    C     C_3   0.627062 0.607903 0.616019 0.355734
H4    H     H_    0.690482 0.668963 0.621001 0.096758
H5    H     H_    0.702224 0.579245 0.595055 0.062445
C3    C     C_3   0.606673 0.546106 0.669955 -0.810229
H6    H     H_    0.537177 0.574309 0.692771 0.266342
H7    H     H_    0.540141 0.485143 0.666362 0.251369
C4    C     C_3   0.608638 0.889380 0.386934 0.415474
H8    H     H_    0.735690 0.899821 0.402921 0.121752
H9    H     H_    0.527194 0.867270 0.419297 0.104097
C5    C     C_3   0.598114 0.821293 0.358411 -1.001875
H10   H     H_    0.687714 0.839371 0.328412 0.282490
H11   H     H_    0.624389 0.758874 0.386134 0.216010
H12   H     H_    0.473492 0.814506 0.338948 0.253312
Ba1   Ba    Ba6+2 0.337820 0.939830 0.518500 1.613734
C6    C     C_3   0.525151 0.049453 0.674466 0.840216
H13   H     H_    0.405825 0.045000 0.651955 0.033107
C7    C     C_3   0.524871 0.982465 0.728055 -1.025709
H14   H     H_    0.459840 0.921640 0.724308 0.230073
H15   H     H_    0.459236 0.003290 0.755295 0.256924
H16   H     H_    0.651968 0.972221 0.745258 0.289659
C8    C     C_3   0.185172 0.951074 0.352372 0.506190
H17   H     H_    0.279284 0.904937 0.359114 0.094218
H18   H     H_    0.226081 0.001041 0.372906 0.088797
C9    C     C_3   0.162895 0.992813 0.293602 -0.917710
H19   H     H_    0.147952 0.942759 0.272609 0.241815
H20   H     H_    0.272279 0.037263 0.280664 0.237857
H21   H     H_    0.052562 0.029209 0.283190 0.282783
P4    P     P_3+3 0.579040 0.046590 0.380840 0.471003
O12   O     O_2   0.758370 0.077020 0.376420 -0.309528
O13   O     O_3   0.526390 0.016840 0.436620 -0.396787
O14   O     O_3   0.063420 0.187310 0.425160 -0.352327
O15   O     O_3   0.560270 0.964648 0.350882 -0.577558
P5    P     P_3+3 0.693951 0.302698 0.466986 0.517720
O16   O     O_3   0.173250 0.067890 0.537260 -0.355588
O17   O     O_3   0.672100 0.202370 0.454860 -0.331030
O18   O     O_2   0.855881 0.308151 0.501178 -0.359381
O19   O     O_3   0.725990 0.382850 0.408956 -0.540358
Ba2   Ba    Ba6+2 0.851970 0.060110 0.481480 1.661875
P6    P     P_3+3 0.125853 0.764067 0.642029 0.473164
C10   C     C_3   0.071432 0.633900 0.605377 0.475756
H22   H     H_    0.966733 0.659209 0.577648 0.013302
H23   H     H_    0.055801 0.520750 0.578963 0.221042
O20   O     O_3   0.016420 0.932050 0.462720 -0.372843
C11   C     C_3   0.061958 0.028046 0.648910 0.408013
H24   H     H_    0.941946 0.027665 0.625959 0.133728
H25   H     H_    0.134169 0.979819 0.642458 0.047363
C12   C     C_3   0.033205 0.005140 0.706624 -0.898492
H26   H     H_    0.966971 0.055055 0.713805 0.299680
H27   H     H_    0.958629 0.943270 0.718644 0.205136
H28   H     H_    0.151819 0.000374 0.730876 0.251978
P7    P     P_3+3 0.143598 0.147386 0.566943 0.529382
O21   O     O_2   0.959730 0.164640 0.549160 -0.287002
O22   O     O_3   0.148385 0.108703 0.635020 -0.532727
H29   H     H_    0.728471 0.532659 0.690941 0.259978
C13   C     C_3   0.587851 0.380975 0.373620 0.363494
H30   H     H_    0.593359 0.329278 0.355004 0.110301
H31   H     H_    0.471210 0.371528 0.392566 0.032855
C14   C     C_3   0.588700 0.466253 0.331399 -0.913722
H32   H     H_    0.688782 0.472780 0.305428 0.263338
H33   H     H_    0.469290 0.468982 0.307358 0.264496
H34   H     H_    0.608471 0.520603 0.349583 0.255278
P8    P     P_3+3 0.078422 0.205150 0.357853 0.500626
C15   C     C_3   0.972264 0.355183 0.315711 0.356428
H35   H     H_    0.106755 0.371148 0.322478 0.041524
O23   O     O_2   0.036813 0.116591 0.347525 -0.367530
O24   O     O_3   0.923312 0.267666 0.321049 -0.494550
H36   H     H_    0.913203 0.374963 0.344540 0.137938
H37   H     H_    0.989640 0.398452 0.230578 0.253442
C16   C     C_3   0.916630 0.408731 0.260636 -0.973282
H38   H     H_    0.935472 0.477649 0.258957 0.226089
H39   H     H_    0.784034 0.390997 0.250505 0.280398
C17   C     C_R   0.493008 0.261007 0.167916 0.537459
O25   O     O_2   0.480876 0.183086 0.179345 -0.590515
N1    N     N_R   0.466617 0.301008 0.204760 -0.162048
C18   C     C_R   0.481333 0.389765 0.191185 0.491736
C19   C     C_2   0.300772 0.272596 0.279220 -0.157834
C20   C     C_3   0.288250 0.243325 0.338059 0.036270
C21   C     C_1   0.492363 0.145084 0.341430 0.251284
C22   C     C_2   0.524186 0.182050 0.291797 -0.200066
C23   C     C_2   0.424031 0.251379 0.257632 0.132687
C24   C     C_R   0.540454 0.399699 0.102356 -0.067781
C25   C     C_R   0.531695 0.309750 0.116626 -0.062677
C26   C     C_R   0.560080 0.270439 0.079064 -0.081718
C27   C     C_R   0.514796 0.439569 0.140088 -0.035877
C28   C     C_2   0.399885 0.176194 0.366778 -0.348123
H40   H     H_    0.629895 0.166637 0.277087 0.187123
H41   H     H_    0.553462 0.201470 0.088433 0.167575
C29   C     C_2   0.847146 0.844775 0.638301 -0.447214
C30   C     C_R   0.648605 0.459896 0.962016 0.037799
C31   C     C_R   0.605021 0.590439 0.984046 0.042228
C32   C     C_R   0.644169 0.550188 0.947410 0.086286
C33   C     C_R   0.694950 0.423688 0.924621 -0.196501
C34   C     C_R   0.732543 0.473814 0.874801 -0.072077
C35   C     C_R   0.725010 0.562573 0.859483 -0.063597
C36   C     C_R   0.679674 0.600892 0.895658 -0.065252
C37   C     C_R   0.670487 0.690026 0.880147 -0.054972
C38   C     C_R   0.707093 0.739495 0.829076 0.523433
N2    N     N_R   0.753663 0.701467 0.793937 -0.166199
C39   C     C_R   0.762976 0.613760 0.808831 0.530305
C40   C     C_2   0.948697 0.756376 0.727059 -0.159170
C41   C     C_3   0.996458 0.815028 0.674501 0.149376
C42   C     C_1   0.718694 0.859425 0.658042 0.254698
C43   C     C_2   0.676883 0.809291 0.704540 -0.215562
C44   C     C_2   0.797053 0.754131 0.742078 0.141549
O26   O     O_2   0.803804 0.580002 0.777945 -0.589668
C45   C     C_R   0.607857 0.409205 0.013218 0.040843
C46   C     C_R   0.575400 0.449943 0.050453 0.084109
C47   C     C_R   0.577722 0.540511 0.036409 0.042970
C48   C     C_R   0.597706 0.318691 0.028789 -0.198073
H42   H     H_    0.040349 0.719931 0.753846 0.151542
H43   H     H_    0.767914 0.442282 0.848078 0.172909
H44   H     H_    0.706441 0.356397 0.932872 0.131488
H45   H     H_    0.615467 0.282566 0.002633 0.129979
O27   O     O_2   0.466941 0.425974 0.223895 -0.632426
C49   C     C_R   0.524208 0.528944 0.126258 -0.088854
H46   H     H_    0.223310 0.320547 0.255499 0.149070
H47   H     H_    0.507346 0.561716 0.154613 0.166054
C50   C     C_R   0.593391 0.679816 0.966677 -0.204685
C51   C     C_R   0.625302 0.728143 0.916093 -0.083375
O28   O     O_2   0.700126 0.816771 0.816278 -0.601134
C52   C     C_R   0.554374 0.578189 0.075791 -0.207092
H48   H     H_    0.556707 0.714775 0.991006 0.128525
H49   H     H_    0.614715 0.796293 0.905264 0.169640
H50   H     H_    0.554135 0.805223 0.715405 0.173117
H51   H     H_    0.561921 0.646237 0.069321 0.128066
H52   H     H_    0.414049 0.161341 0.408984 0.180914
H53   H     H_    0.849116 0.858225 0.596260 0.161030
C53   C     C_2   0.436661 0.245904 0.528409 0.032703
C54   C     C_R   0.793791 0.760844 0.488144 -0.621240
C55   C     C_2   0.224400 0.322260 0.545722 -0.235444
C56   C     C_2   0.273445 0.248019 0.544918 0.124771
C57   C     C_2   0.519208 0.316940 0.500665 0.086140
C58   C     C_3   0.452231 0.403106 0.490030 -0.129067
C59   C     C_3   0.334820 0.403172 0.530664 0.075679
C60   C     C_2   0.586996 0.472988 0.489023 -0.085276
C61   C     C_2   0.553706 0.554047 0.479700 -0.136523
C62   C     C_R   0.820117 0.623927 0.449674 -0.198518
C63   C     C_R   0.684586 0.623778 0.476308 -0.050454
C64   C     C_R   0.940868 0.693138 0.440422 0.440080
C65   C     C_R   0.924408 0.762317 0.459383 0.231785
C66   C     C_R   0.670761 0.693546 0.495206 0.179198
H54   H     H_    0.110195 0.323912 0.561338 0.194500
H55   H     H_    0.782969 0.814977 0.502243 0.191464
H56   H     H_    0.713512 0.457922 0.495997 0.168976
H57   H     H_    0.427483 0.568826 0.474737 0.165083
N3    N     N_R   0.549816 0.134472 0.682336 0.229933
O29   O     O_R   0.693533 0.176427 0.679780 -0.339906
O30   O     O_R   0.430589 0.166133 0.695860 -0.389097
O31   O     O_3   0.070095 0.700035 0.410132 -0.634824
C67   C     C_3   0.082918 0.625236 0.395546 0.231979
H58   H     H_    0.969395 0.609471 0.372039 0.110666
H59   H     H_    0.107323 0.570725 0.431110 0.109504
C68   C     C_3   0.225420 0.642360 0.361534 -0.261311
H60   H     H_    0.202572 0.697810 0.326511 0.204113
H61   H     H_    0.339912 0.658830 0.384259 0.208743
C69   C     C_3   0.247532 0.565117 0.343272 -1.030547
H62   H     H_    0.280545 0.510179 0.377811 0.270591
H63   H     H_    0.348506 0.582986 0.316618 0.281795
H64   H     H_    0.133436 0.546846 0.320686 0.266521
N4    N     N_R   0.514087 0.168839 0.545903 0.223317
O32   O     O_R   0.657988 0.170826 0.570746 -0.309114
O33   O     O_R   0.471571 0.110470 0.522385 -0.333138

loop_
_geom_bond_atom_site_label_1
_geom_bond_atom_site_label_2
_geom_bond_distance
_ccdc_geom_bond_type
C16   H38   1.114629 S    
C64   C65   1.403019 A    
C29   C41   1.515514 S    
C62   C64   1.407969 A    
C30   C32   1.424157 A    
C13   H30   1.114057 S    
C2    H4    1.114665 S    
C14   H34   1.126925 S    
C50   H48   1.076601 S    
C54   C66   1.398842 A    
C28   H52   1.081768 S    
C64   O31   1.392631 S    
C15   H35   1.120612 S    
N1    C23   1.473416 S    
O8    Ba1   2.791572 S    
C8    H18   1.119697 S    
C31   C32   1.421552 A    
C4    C5    1.522388 S    
C68   H61   1.117282 S    
C29   H53   1.086053 S    
C40   H42   1.085861 S    
P3    O11   1.747474 S    
C5    H10   1.110725 S    
C7    H15   1.110024 S    
C14   H33   1.114632 S    
Ba1   O20   2.908002 S    
C31   C50   1.416966 A    
P7    O21   1.575296 D    
O10   C8    1.411170 S    
C35   C39   1.420875 A    
C69   H62   1.120898 S    
O6    P6    1.755276 S    
C19   C23   1.356888 D    
C38   N2    1.385833 Am   
C22   C23   1.503142 S    
N2    C39   1.388210 Am   
C53   N4    1.417678 S    
C6    N3    1.463224 S    
O1    Ba1   2.777633 S    
P1    O1    1.517199 D    
C55   H54   1.084659 S    
C37   C51   1.400568 A    
C3    H29   1.109721 S    
P7    O22   1.746535 S    
P2    C65   1.836556 S    
C40   C41   1.521645 S    
Ba1   O16   2.830962 S    
C11   H25   1.111045 S    
O16   P7    1.772961 S    
H1    C10   1.108454 S    
C53   C57   1.343594 D    
C52   H51   1.076652 S    
C34   H43   1.083674 S    
C67   C68   1.525515 S    
C34   C35   1.402537 A    
P5    C57   1.864666 S    
C12   H27   1.107631 S    
P2    O10   1.757083 S    
C58   C59   1.543930 S    
C68   H60   1.116014 S    
C18   O27   1.220919 D    
C1    H2    1.111401 S    
O6    C10   1.406445 S    
C61   C63   1.472870 S    
C32   C36   1.437495 A    
P6    C41   1.863441 S    
C67   H59   1.117813 S    
P2    Ba1   3.396318 S    
C13   H31   1.117478 S    
O2    Ba1   2.920415 S    
C9    H20   1.115379 S    
C30   C45   1.436815 A    
P8    O23   1.554927 D    
C17   C25   1.425709 A    
C35   C36   1.408578 A    
C20   C28   1.497280 S    
N4    O32   1.298583 A    
C8    C9    1.522647 S    
C69   H63   1.120401 S    
C63   C66   1.406067 A    
C26   H41   1.083671 S    
C68   C69   1.527478 S    
P4    O13   1.530284 S    
C47   C52   1.415193 A    
C62   C63   1.398811 A    
P8    O24   1.761187 S    
C61   H57   1.085631 S    
C2    C3    1.518891 S    
C55   C56   1.338775 D    
C24   C46   1.437654 A    
C54   H55   1.081938 S    
C8    H17   1.114553 S    
H37   C16   1.124189 S    
O11   C2    1.403020 S    
C10   H22   1.109979 S    
P1    Ba1   3.358693 S    
C33   C34   1.397057 A    
P5    O17   1.760084 S    
C9    H21   1.114805 S    
O3    P6    1.744679 S    
C11   H24   1.107641 S    
C4    O15   1.396587 S    
C53   C56   1.478243 S    
O2    Ba2   2.751418 S    
C17   N1    1.388637 Am   
C24   C25   1.410440 A    
C38   O28   1.221917 D    
C12   H28   1.111401 S    
C21   C22   1.334500 D    
C7    H16   1.110518 S    
C6    H13   1.103793 S    
C15   C16   1.530923 S    
C14   H32   1.119938 S    
P8    C20   1.859926 S    
C1    H3    1.110032 S    
C69   H64   1.122244 S    
C43   C44   1.506739 S    
O3    Ba1   2.761320 S    
N2    C44   1.466203 S    
C45   C48   1.418245 A    
C67   H58   1.118806 S    
P2    O7    1.513766 D    
C49   C52   1.392189 A    
Ba2   O21   2.857697 S    
P3    O8    1.740775 S    
C46   C47   1.423675 A    
C30   C33   1.416712 A    
C3    H7    1.110993 S    
C21   C28   1.315744 D    
C9    H19   1.115988 S    
O31   C67   1.415867 S    
C15   O24   1.418943 S    
C42   C43   1.335862 D    
C36   C37   1.410262 A    
O17   Ba2   2.792134 S    
O13   Ba2   2.921257 S    
C51   H49   1.083776 S    
P4    O12   1.517519 D    
N3    O29   1.302559 A    
C11   C12   1.523203 S    
C29   C42   1.318358 D    
Ba2   O20   2.830376 S    
C43   H50   1.079318 S    
C5    H12   1.110668 S    
C55   C59   1.501588 S    
O7    Ba1   2.857196 S    
C50   C51   1.394066 A    
C18   C27   1.414933 A    
N4    O33   1.293190 A    
O14   P8    1.760185 S    
C37   C38   1.419357 A    
C4    H9    1.111068 S    
O14   Ba2   2.760609 S    
P4    O15   1.746856 S    
C26   C48   1.398799 A    
C19   H46   1.080515 S    
O5    C6    1.412690 S    
O4    P6    1.546173 D    
C60   H56   1.087717 S    
C1    H23   1.111683 S    
C31   C47   1.432213 A    
P5    O18   1.544342 D    
C5    H11   1.104563 S    
C4    H8    1.103534 S    
C27   C49   1.401522 A    
P7    C56   1.843875 S    
P2    O20   1.586096 S    
C17   O25   1.221857 D    
Ba1   O13   2.750815 S    
P1    C42   1.853797 S    
C40   C44   1.356475 D    
N3    O30   1.301811 A    
N1    C18   1.391073 Am   
C6    C7    1.532779 S    
Ba1   Ba2   4.570261 S    
C11   O22   1.399911 S    
C33   H44   1.076711 S    
P5    O19   1.743096 S    
C58   C60   1.502147 S    
C39   O26   1.221488 D    
C19   C20   1.521835 S    
C48   H45   1.076732 S    
C22   H40   1.085742 S    
O19   C13   1.402782 S    
C24   C27   1.406159 A    
P4    C21   1.829442 S    
C13   C14   1.521456 S    
C1    C10   1.521084 S    
C12   H26   1.112141 S    
P3    O9    1.545346 D    
P4    Ba2   3.359025 S    
P1    O5    1.761546 S    
C49   H47   1.083894 S    
C16   H39   1.126036 S    
C3    H6    1.111172 S    
O12   Ba2   2.777854 S    
C25   C26   1.402500 A    
C7    H14   1.105575 S    
P1    O2    1.530531 S    
C60   C61   1.338364 D    
C54   C65   1.394480 A    
P3    C66   1.839036 S    
C45   C46   1.421890 A    
C15   H36   1.103924 S    
O16   Ba2   2.907156 S    
C57   C58   1.519513 S    
C2    H5    1.110874 S    
