data_mof_unit_56752.cif
_audit_creation_date              2012-12-10T18:47:41-0500
_audit_creation_method            fapswitch 2.2
_symmetry_space_group_name_H-M    P1
_symmetry_Int_Tables_number       1
_space_group_crystal_system       triclinic
_cell_length_a                    9.905903
_cell_length_b                    10.632521
_cell_length_c                    15.609719
_cell_angle_alpha                 90.419204
_cell_angle_beta                  68.690772
_cell_angle_gamma                 88.975116
_cell_volume                      1531.27386619

loop_
_atom_site_label
_atom_site_type_symbol
_atom_type_description
_atom_site_fract_x
_atom_site_fract_y
_atom_site_fract_z
_atom_type_partial_charge
C1    C     C_R   0.500019 0.739496 0.498520 0.876088
C2    C     C_R   0.499982 0.260504 0.501480 0.876189
C3    C     C_R   0.344706 0.440348 0.098378 -0.244527
C4    C     C_R   0.655068 0.560640 0.901749 -0.244533
C5    C     C_R   0.242422 0.417169 0.058284 -0.011510
C6    C     C_R   0.757379 0.583771 0.941835 -0.011434
C7    C     C_R   0.614978 0.934942 0.432062 0.004368
C8    C     C_R   0.385033 0.065058 0.567942 0.004349
C9    C     C_R   0.614299 0.064183 0.435881 -0.245557
C10   C     C_R   0.385713 0.935818 0.564128 -0.245497
C11   C     C_R   0.500176 0.128019 0.503162 -0.072287
C12   C     C_R   0.499827 0.871981 0.496840 -0.072246
C13   C     C_R   0.960322 0.411272 0.450145 0.241393
C14   C     C_R   0.039653 0.588684 0.549898 0.241504
C15   C     C_R   0.103429 0.412421 0.450451 -0.088370
C16   C     C_R   0.896571 0.587579 0.549545 -0.088235
C17   C     C_R   0.411176 0.490285 0.674748 0.871388
C18   C     C_R   0.588818 0.509803 0.325267 0.871422
C19   C     C_R   0.362524 0.465683 0.773504 -0.111979
C20   C     C_R   0.637437 0.534711 0.226556 -0.111965
C21   C     C_R   0.175301 0.428390 0.921150 -0.192232
C22   C     C_R   0.824555 0.572363 0.078937 -0.192345
C23   C     C_R   0.216053 0.450754 0.827149 -0.170377
C24   C     C_R   0.783880 0.549754 0.172906 -0.170329
C25   C     C_R   0.466432 0.452786 0.815031 -0.072846
C26   C     C_R   0.533486 0.547884 0.185092 -0.072845
C27   C     C_R   0.422679 0.468155 0.910083 0.039831
C28   C     C_R   0.577147 0.532739 0.090032 0.039829
C29   C     C_R   0.277760 0.439271 0.964160 0.097015
C30   C     C_R   0.722063 0.561611 0.035948 0.097006
C31   C     C_R   0.520600 0.505783 0.952204 0.049589
C32   C     C_R   0.479176 0.495200 0.047923 0.049610
H1    H     H_    0.865150 0.550114 0.204171 0.181932
H2    H     H_    0.134811 0.450315 0.795860 0.181856
H3    H     H_    0.063378 0.407200 0.960031 0.155756
H4    H     H_    0.936453 0.593594 0.040059 0.155779
H5    H     H_    0.318251 0.414110 0.169411 0.157483
H6    H     H_    0.681514 0.586869 0.830709 0.157427
H7    H     H_    0.700233 0.115354 0.385322 0.153269
H8    H     H_    0.299795 0.884649 0.614698 0.153254
H9    H     H_    0.183270 0.342371 0.411582 0.146413
H10   H     H_    0.816719 0.657611 0.588428 0.146395
N1    N     N_R   0.142780 0.500030 0.500020 -0.094993
N2    N     N_R   0.857220 0.499970 0.499980 -0.095027
O1    O     O_R   0.385370 0.683250 0.500010 -0.617470
O2    O     O_R   0.614630 0.316750 0.499990 -0.617609
O3    O     O_R   0.614700 0.683220 0.500000 -0.614858
O4    O     O_R   0.385300 0.316780 0.500000 -0.614804
O5    O     O_R   0.319830 0.500020 0.632250 -0.620368
O6    O     O_R   0.680170 0.499980 0.367750 -0.620370
O7    O     O_R   0.549160 0.499990 0.632240 -0.610342
O8    O     O_R   0.450840 0.500010 0.367760 -0.610386
Zn1   Zn    Zn3+2 0.346870 0.500020 0.500000 0.961641
Zn2   Zn    Zn3+2 0.653130 0.499980 0.500000 0.961593
C33   C     C_1   0.107380 0.360993 0.113545 0.141178
N3    N     N_1   0.999943 0.314749 0.157558 -0.217385
C34   C     C_1   0.892504 0.639808 0.886548 0.141157
N4    N     N_1   0.000018 0.685926 0.842506 -0.217409
C35   C     C_1   0.392196 0.606435 0.235051 0.206967
N5    N     N_1   0.280042 0.653235 0.274634 -0.187724
C36   C     C_1   0.607809 0.394304 0.765177 0.206988
N6    N     N_1   0.720033 0.347563 0.725681 -0.187771
C37   C     C_1   0.731411 0.869504 0.360113 0.175471
N7    N     N_1   0.824496 0.817091 0.302590 -0.192032
C38   C     C_1   0.268627 0.130494 0.639895 0.175480
N8    N     N_1   0.175572 0.182903 0.697421 -0.191981
C39   C     C_3   0.924184 0.307629 0.396996 -0.822763
H11   H     H_    0.023764 0.260729 0.348019 0.205039
H12   H     H_    0.862730 0.234903 0.445236 0.249044
H13   H     H_    0.862600 0.344106 0.355790 0.273846
C40   C     C_3   0.075664 0.692132 0.603263 -0.823021
H14   H     H_    0.976058 0.738937 0.652256 0.204981
H15   H     H_    0.136999 0.655465 0.644512 0.273817
H16   H     H_    0.137141 0.764979 0.555228 0.249078

loop_
_geom_bond_atom_site_label_1
_geom_bond_atom_site_label_2
_ccdc_geom_bond_type
C40   H16   S    
C19   C23   A    
C33   N3    T    
C35   N5    T    
C21   H3    S    
C14   C16   A    
N2    Zn2   S    
O4    Zn1   S    
C27   C29   A    
C22   H4    S    
C14   C40   S    
C16   N2    A    
C18   C20   S    
C24   H1    S    
C18   O6    A    
C9    H7    S    
C3    C5    A    
O7    Zn2   S    
C1    O1    A    
C17   O7    A    
C28   C30   A    
C18   O8    A    
C40   H14   S    
C26   C35   S    
C25   C36   S    
C2    O2    A    
C20   C24   A    
C39   H12   S    
C9    C11   A    
C6    C34   S    
C7    C37   S    
C34   N4    T    
O6    Zn2   S    
C1    C12   S    
C10   C12   A    
C8    C11   A    
O5    Zn1   S    
C2    C11   S    
C4    C6    A    
C26   C28   A    
C15   N1    A    
O2    Zn2   S    
C5    C33   S    
C5    C29   A    
C13   C15   A    
C21   C23   A    
N1    Zn1   S    
C3    C32   A    
C19   C25   A    
C22   C24   A    
C7    C12   A    
C8    C38   S    
C25   C27   A    
C36   N6    T    
C15   H9    S    
C27   C31   A    
C39   H11   S    
C4    C31   A    
C16   H10   S    
C40   H15   S    
C28   C32   A    
O8    Zn1   S    
C3    H5    S    
C14   N1    A    
C8    C10   A    
C38   N8    T    
C13   C39   S    
C17   O5    A    
C7    C9    A    
C10   H8    S    
O3    Zn2   S    
C17   C19   S    
C23   H2    S    
C22   C30   A    
C39   H13   S    
C2    O4    A    
O1    Zn1   S    
C21   C29   A    
C6    C30   A    
C13   N2    A    
C1    O3    A    
C31   C32   A    
C4    H6    S    
C37   N7    T    
C20   C26   A    
