data_mof_unit_31565.cif
_audit_creation_date              2012-12-10T18:56:28-0500
_audit_creation_method            fapswitch 2.2
_symmetry_space_group_name_H-M    P1
_symmetry_Int_Tables_number       1
_space_group_crystal_system       triclinic
_cell_length_a                    10.635706
_cell_length_b                    9.945928
_cell_length_c                    19.287692
_cell_angle_alpha                 89.788406
_cell_angle_beta                  92.072518
_cell_angle_gamma                 89.494786
_cell_volume                      2038.85964025

loop_
_atom_site_label
_atom_site_type_symbol
_atom_type_description
_atom_site_fract_x
_atom_site_fract_y
_atom_site_fract_z
_atom_type_partial_charge
C1    C     C_R   0.871938 0.499483 0.500227 -0.134504
C2    C     C_R   0.739138 0.499622 0.500407 0.894952
C3    C     C_R   0.501428 0.500209 0.365941 1.002904
C4    C     C_R   0.498572 0.499791 0.634059 1.002901
C5    C     C_R   0.070331 0.464496 0.561594 -0.114618
C6    C     C_R   0.929669 0.535504 0.438406 -0.114617
C7    C     C_R   0.939423 0.465580 0.562044 -0.043947
C8    C     C_R   0.060577 0.534420 0.437955 -0.043948
C9    C     C_R   0.513106 0.378953 0.746287 -0.237920
C10   C     C_R   0.486898 0.621047 0.253713 -0.237918
C11   C     C_R   0.530388 0.380784 0.255377 -0.221414
C12   C     C_R   0.128062 0.500517 0.499773 -0.134504
C13   C     C_R   0.469613 0.619215 0.744623 -0.221413
C14   C     C_R   0.511977 0.378920 0.818069 0.723904
C15   C     C_R   0.488028 0.621080 0.181931 0.723903
C16   C     C_R   0.531535 0.380521 0.183568 0.719242
C17   C     C_R   0.468467 0.619479 0.816433 0.719242
C18   C     C_R   0.490779 0.499477 0.853110 -0.056263
C19   C     C_R   0.509225 0.500522 0.146890 -0.056264
C20   C     C_R   0.571841 0.070363 0.548362 -0.003141
C21   C     C_R   0.428159 0.929637 0.451638 -0.003142
C22   C     C_R   0.426879 0.073888 0.452706 -0.023375
C23   C     C_R   0.591104 0.569796 0.963873 0.608206
C24   C     C_R   0.573121 0.926112 0.547294 -0.023376
C25   C     C_R   0.493940 0.499354 0.709276 -0.240838
C26   C     C_R   0.506062 0.500646 0.290724 -0.240841
C27   C     C_2   0.648460 0.142743 0.601881 0.404458
C28   C     C_2   0.351540 0.857257 0.398119 0.404465
C29   C     C_2   0.338054 0.150780 0.407167 0.621355
C30   C     C_2   0.661947 0.849220 0.592833 0.621362
C31   C     C_2   0.148864 0.435484 0.625752 0.456004
C32   C     C_2   0.851135 0.564515 0.374248 0.456000
C33   C     C_2   0.873212 0.440230 0.627543 0.424567
C34   C     C_R   0.408901 0.430203 0.036127 0.608207
C35   C     C_2   0.126788 0.559769 0.372456 0.424566
C36   C     C_R   0.596254 0.569372 0.035798 0.605535
C37   C     C_R   0.403751 0.430627 0.964202 0.605533
C38   C     C_R   0.505177 0.499537 0.071808 -0.339971
C39   C     C_R   0.494827 0.500462 0.928192 -0.339970
C40   C     C_R   0.260862 0.500378 0.499593 0.894955
F1    F     F_    0.534358 0.262342 0.853453 -0.540721
F2    F     F_    0.465648 0.737658 0.146547 -0.540721
F3    F     F_    0.554706 0.263835 0.149790 -0.545876
F4    F     F_    0.445296 0.736164 0.850210 -0.545877
F5    F     F_    0.680640 0.635666 0.928910 -0.511069
F6    F     F_    0.319364 0.364334 0.071090 -0.511069
F7    F     F_    0.690414 0.635256 0.070426 -0.515061
F8    F     F_    0.309590 0.364743 0.929574 -0.515061
H1    H     H_    0.530274 0.285234 0.719931 0.241919
H2    H     H_    0.767177 0.506354 0.363087 0.043931
H3    H     H_    0.896541 0.353040 0.659419 0.156492
H4    H     H_    0.103457 0.646957 0.340580 0.156494
H5    H     H_    0.469731 0.714766 0.280069 0.241921
H6    H     H_    0.549011 0.287504 0.283111 0.237946
H7    H     H_    0.450988 0.712495 0.716889 0.237945
H8    H     H_    0.690715 0.237312 0.590716 0.113868
H9    H     H_    0.309282 0.762691 0.409285 0.113865
H10   H     H_    0.250585 0.187908 0.427338 0.056753
H11   H     H_    0.749415 0.812093 0.572662 0.056752
H12   H     H_    0.232824 0.493644 0.636913 0.043929
N1    N     N_R   0.500000 0.857200 0.500000 -0.171630
N2    N     N_R   0.500000 0.142800 0.500000 -0.171629
O1    O     O_R   0.316770 0.614620 0.500000 -0.663878
O2    O     O_2   0.336050 0.901810 0.339384 -0.501180
O3    O     O_2   0.360886 0.171072 0.346511 -0.467245
O4    O     O_2   0.639114 0.828926 0.653489 -0.467245
O5    O     O_2   0.123846 0.343757 0.664955 -0.530332
O6    O     O_2   0.876152 0.656241 0.335045 -0.530333
O7    O     O_2   0.792485 0.518223 0.646763 -0.550427
O8    O     O_2   0.207517 0.481778 0.353237 -0.550430
O9    O     O_R   0.683230 0.385380 0.500000 -0.663879
O10   O     O_R   0.683230 0.614620 0.500000 -0.627020
O11   O     O_R   0.316770 0.385380 0.500000 -0.627020
O12   O     O_R   0.500030 0.614710 0.398180 -0.647168
O13   O     O_R   0.499970 0.385290 0.601820 -0.647171
O14   O     O_R   0.499970 0.614710 0.601820 -0.595076
O15   O     O_R   0.500030 0.385290 0.398180 -0.595077
O16   O     O_2   0.663954 0.098188 0.660616 -0.501180
Zn1   Zn    Zn3+2 0.500000 0.653120 0.500000 0.970639
Zn2   Zn    Zn3+2 0.500000 0.346880 0.500000 0.970638

loop_
_geom_bond_atom_site_label_1
_geom_bond_atom_site_label_2
_ccdc_geom_bond_type
C6    C32   S    
C24   N1    A    
C23   F5    S    
C22   C29   S    
C34   C37   A    
C14   C18   A    
O14   Zn1   S    
C9    C14   A    
C27   O16   D    
C4    C25   S    
C9    C25   A    
O1    Zn1   S    
C28   H9    S    
C15   C19   A    
C40   O1    A    
N2    Zn2   S    
O10   Zn1   S    
C10   C15   A    
C40   O11   A    
C36   F7    S    
C1    C2    S    
C10   H5    S    
C3    O12   A    
C4    O13   A    
C20   C24   A    
C35   O8    D    
C34   F6    S    
O13   Zn2   S    
C21   N1    A    
C33   O7    D    
C32   O6    D    
C10   C26   A    
C34   C38   A    
C21   C22   A    
C7    C33   S    
C13   C25   A    
C2    O10   A    
O9    Zn2   S    
C1    C6    A    
C9    H1    S    
C5    C12   A    
C5    C7    A    
C27   H8    S    
C6    C8    A    
C11   C26   A    
C8    C35   S    
C31   H12   S    
C12   C40   S    
C31   O5    D    
C18   C39   S    
C19   C38   S    
C22   N2    A    
C11   C16   A    
C8    C12   A    
C30   H11   S    
C17   C18   A    
C37   F8    S    
C16   F3    S    
C32   H2    S    
C30   O4    D    
C11   H6    S    
C14   F1    S    
C29   O3    D    
C28   O2    D    
C21   C28   S    
O12   Zn1   S    
C2    O9    A    
C3    O15   A    
O15   Zn2   S    
C1    C7    A    
C3    C26   S    
C15   F2    S    
C20   C27   S    
C33   H3    S    
C13   C17   A    
C36   C38   A    
C17   F4    S    
C37   C39   A    
N1    Zn1   S    
C16   C19   A    
C23   C39   A    
O11   Zn2   S    
C20   N2    A    
C24   C30   S    
C4    O14   A    
C29   H10   S    
C23   C36   A    
C35   H4    S    
C13   H7    S    
C5    C31   S    
