data_mof_unit_37022.cif
_audit_creation_date              2012-12-10T18:14:16-0500
_audit_creation_method            fapswitch 2.2
_symmetry_space_group_name_H-M    P1
_symmetry_Int_Tables_number       1
_space_group_crystal_system       triclinic
_cell_length_a                    12.584257
_cell_length_b                    13.200281
_cell_length_c                    19.244606
_cell_angle_alpha                 90.7094
_cell_angle_beta                  102.338623
_cell_angle_gamma                 83.640164
_cell_volume                      3103.56121256

loop_
_atom_site_label
_atom_site_type_symbol
_atom_type_description
_atom_site_fract_x
_atom_site_fract_y
_atom_site_fract_z
_atom_type_partial_charge
C1    C     C_R   0.440068 0.690878 0.496874 0.862919
C2    C     C_R   0.494674 0.504432 0.144880 -0.012376
C3    C     C_R   0.726705 0.059133 0.574626 0.010539
C4    C     C_R   0.500460 0.500507 0.634264 0.857850
C5    C     C_R   0.591171 0.202972 0.534396 -0.189228
C6    C     C_R   0.298905 0.836384 0.462153 -0.159932
C7    C     C_R   0.270173 0.940277 0.451483 -0.176117
C8    C     C_R   0.345810 0.007809 0.477893 -0.134166
C9    C     C_R   0.449060 0.972927 0.521393 0.109883
C10   C     C_R   0.475361 0.867871 0.535881 0.083060
C11   C     C_R   0.531554 0.037888 0.544581 -0.052639
C12   C     C_R   0.500963 0.502423 0.709954 -0.063377
C13   C     C_R   0.641296 0.996691 0.571294 0.052904
C14   C     C_R   0.660540 0.895593 0.595349 -0.205790
C15   C     C_R   0.575691 0.834274 0.582307 -0.193412
C16   C     C_R   0.559516 0.309394 0.512820 0.902115
C17   C     C_R   0.508405 0.143100 0.541306 0.384753
C18   C     C_R   0.700825 0.160765 0.551432 -0.314334
C19   C     C_R   0.403202 0.799326 0.500986 -0.115600
C20   C     C_R   0.080374 0.363091 0.391153 -0.308316
C21   C     C_R   0.803239 0.620865 0.590025 -0.056881
C22   C     C_R   0.905463 0.656365 0.604959 -0.073351
C23   C     C_R   0.496277 0.506026 0.069641 0.331813
C24   C     C_R   0.982473 0.622239 0.564251 -0.043066
C25   C     C_R   0.961319 0.539708 0.516196 -0.057950
C26   C     C_R   0.853296 0.510257 0.501425 0.221892
C27   C     C_R   0.040229 0.485080 0.481836 -0.001618
C28   C     C_R   0.499407 0.499791 0.365739 0.885915
C29   C     C_R   0.005917 0.413696 0.427919 0.197483
C30   C     C_R   0.898667 0.390209 0.412956 -0.291446
C31   C     C_R   0.825014 0.434922 0.451105 -0.201136
C32   C     C_R   0.153230 0.493067 0.501069 -0.070259
C33   C     C_R   0.188969 0.381483 0.408998 0.038714
C34   C     C_R   0.500028 0.508794 0.930442 0.282280
C35   C     C_R   0.409459 0.477095 0.733618 -0.239833
C36   C     C_R   0.408589 0.478778 0.805576 0.010357
C37   C     C_R   0.500309 0.507268 0.854834 -0.005283
C38   C     C_R   0.592400 0.533318 0.830941 0.009448
C39   C     C_R   0.592124 0.530459 0.758704 -0.230998
C40   C     C_1   0.840634 0.019757 0.596767 0.169763
C41   C     C_3   0.407812 0.202549 0.621290 0.134120
C42   C     C_3   0.294966 0.248493 0.629490 -0.786383
C43   C     C_1   0.313944 0.447601 0.827427 0.177326
C44   C     C_1   0.072762 0.682372 0.566430 0.158732
C45   C     C_R   0.395854 0.501618 0.167648 0.499478
C46   C     C_1   0.929379 0.728253 0.661956 0.160397
C47   C     C_1   0.686733 0.566328 0.879032 0.180121
C48   C     C_3   0.224673 0.579566 0.120148 0.079445
C49   C     C_3   0.129571 0.578467 0.056391 -0.735173
C50   C     C_R   0.398665 0.497295 0.240492 -0.308014
C51   C     C_R   0.497648 0.500731 0.289924 -0.088153
C52   C     C_R   0.595001 0.505367 0.266558 -0.193790
C53   C     C_R   0.593571 0.506325 0.194493 -0.237617
H1    H     H_    0.338562 0.455355 0.696142 0.162016
H2    H     H_    0.189943 0.533815 0.546907 0.149282
H3    H     H_    0.742984 0.647525 0.620349 0.132393
H4    H     H_    0.746355 0.407909 0.440696 0.212019
H5    H     H_    0.662801 0.551175 0.740570 0.161612
H6    H     H_    0.323603 0.490763 0.258215 0.164468
H7    H     H_    0.672497 0.507517 0.303842 0.174227
H8    H     H_    0.669810 0.509722 0.177466 0.171594
H9    H     H_    0.765686 0.207548 0.549302 0.188559
H10   H     H_    0.468073 0.256234 0.644397 0.134271
H11   H     H_    0.428343 0.128949 0.651480 0.140135
H12   H     H_    0.740193 0.863958 0.624462 0.161267
H13   H     H_    0.295162 0.261514 0.686635 0.203700
H14   H     H_    0.272273 0.322391 0.600291 0.261248
H15   H     H_    0.233257 0.195856 0.607827 0.257733
H16   H     H_    0.263534 0.650889 0.117039 0.140689
H17   H     H_    0.191364 0.580130 0.169249 0.136691
H18   H     H_    0.087647 0.509128 0.058325 0.258206
H19   H     H_    0.069907 0.646903 0.057002 0.201970
H20   H     H_    0.159928 0.578904 0.006281 0.269419
H21   H     H_    0.241816 0.784882 0.436242 0.166237
H22   H     H_    0.323633 0.085906 0.460024 0.191752
H23   H     H_    0.191523 0.968197 0.418652 0.150143
H24   H     H_    0.590653 0.759339 0.606412 0.158491
H25   H     H_    0.247442 0.344820 0.380246 0.135287
H26   H     H_    0.872541 0.333728 0.373426 0.157402
H27   H     H_    0.054822 0.309792 0.349218 0.146672
N1    N     N_R   0.585557 0.461049 0.977876 -0.158385
N2    N     N_1   0.948744 0.785390 0.707811 -0.180508
N3    N     N_1   0.762274 0.592783 0.917472 -0.188616
N4    N     N_R   0.583871 0.460005 0.046539 -0.175473
N5    N     N_R   0.411229 0.554496 0.022188 -0.132366
N6    N     N_R   0.413032 0.555845 0.953570 -0.159775
N7    N     N_R   0.222200 0.444680 0.463280 -0.105044
N8    N     N_R   0.776960 0.554780 0.536340 -0.129514
N9    N     N_1   0.932013 0.988492 0.614328 -0.179120
N10   N     N_1   0.238162 0.422610 0.844832 -0.178146
N11   N     N_1   0.144243 0.731246 0.568336 -0.191334
O1    O     O_R   0.366740 0.627160 0.482470 -0.610394
O2    O     O_3   0.299505 0.491893 0.118620 -0.600455
O3    O     O_R   0.544830 0.662520 0.505920 -0.611447
O4    O     O_R   0.410920 0.482320 0.590130 -0.628217
O5    O     O_R   0.589010 0.517690 0.613590 -0.633445
O6    O     O_R   0.455170 0.337480 0.494080 -0.556460
O7    O     O_R   0.633260 0.372840 0.517530 -0.644639
O8    O     O_R   0.410990 0.482310 0.386410 -0.625562
O9    O     O_R   0.589080 0.517680 0.409870 -0.634281
O10   O     O_3   0.406133 0.187296 0.548370 -0.612313
Zn1   Zn    Zn3+2 0.381090 0.476390 0.484340 0.960120
Zn2   Zn    Zn3+2 0.618910 0.523610 0.515660 0.932824

loop_
_geom_bond_atom_site_label_1
_geom_bond_atom_site_label_2
_ccdc_geom_bond_type
C8    C9    A    
C27   C29   A    
C34   C37   S    
C41   C42   S    
C35   C36   A    
C48   H16   S    
C45   O2    S    
N1    N4    A    
C7    C8    A    
C15   H24   S    
N5    N6    A    
C6    C19   A    
C29   C30   A    
C50   H6    S    
C36   C37   A    
C10   C15   A    
C38   C39   A    
C28   C51   S    
C16   O6    A    
C5    C17   A    
O7    Zn2   S    
C4    O4    A    
C3    C18   A    
C34   N6    A    
C17   O10   S    
C5    C16   S    
C52   H7    S    
C4    O5    A    
C53   H8    S    
C1    O3    A    
C49   H19   S    
C34   N1    A    
C47   N3    T    
C40   N9    T    
C4    C12   S    
C9    C10   A    
C32   H2    S    
O6    Zn1   S    
C3    C13   A    
O4    Zn1   S    
O1    Zn1   S    
C28   O9    A    
C21   N8    A    
C26   C31   A    
C46   N2    T    
C13   C14   A    
C35   H1    S    
C42   H15   S    
C6    H21   S    
C20   C29   A    
C2    C45   A    
C1    C19   S    
C43   N10   T    
C48   O2    S    
C20   H27   S    
C51   C52   A    
C24   C25   A    
C23   N4    A    
C18   H9    S    
C5    C18   A    
C25   C26   A    
C39   H5    S    
C8    H22   S    
C37   C38   A    
N7    Zn1   S    
C10   C19   A    
C50   C51   A    
C12   C35   A    
C9    C11   A    
C38   C47   S    
C6    C7    A    
C44   N11   T    
C30   H26   S    
C28   O8    A    
C48   C49   S    
C22   C46   S    
C3    C40   S    
C1    O1    A    
C23   N5    A    
C42   H14   S    
C24   C44   S    
C49   H20   S    
C20   C33   A    
N8    Zn2   S    
C52   C53   A    
C11   C17   A    
C27   C32   A    
C48   H17   S    
C2    C53   A    
O3    Zn2   S    
C21   H3    S    
C7    H23   S    
C25   C27   A    
C31   H4    S    
C12   C39   A    
C33   N7    A    
C11   C13   A    
C16   O7    A    
C30   C31   A    
C45   C50   A    
C14   H12   S    
C41   O10   S    
C22   C24   A    
O9    Zn2   S    
C33   H25   S    
C32   N7    A    
O8    Zn1   S    
C26   N8    A    
C49   H18   S    
O5    Zn2   S    
C2    C23   S    
C42   H13   S    
C41   H10   S    
C14   C15   A    
C36   C43   S    
C41   H11   S    
C21   C22   A    
