data_mof_unit_66010.cif
_audit_creation_date              2013-03-05T16:09:18-0500
_audit_creation_method            fapswitch 2.2
_symmetry_space_group_name_H-M    P1
_symmetry_Int_Tables_number       1
_space_group_crystal_system       triclinic
_cell_length_a                    38.739867
_cell_length_b                    45.1708
_cell_length_c                    29.75717
_cell_angle_alpha                 89.941219
_cell_angle_beta                  130.735047
_cell_angle_gamma                 90.090211
_cell_volume                      39457.0419847

loop_
_atom_site_label
_atom_site_type_symbol
_atom_site_description
_atom_site_fract_x
_atom_site_fract_y
_atom_site_fract_z
_atom_type_partial_charge
O1    O     O_R   0.298140 0.236530 0.096350 -0.609800
O2    O     O_R   0.701860 0.236530 0.903650 -0.610040
O3    O     O_R   0.798140 0.736530 0.096350 -0.609848
O4    O     O_R   0.201860 0.736530 0.903650 -0.609744
O5    O     O_R   0.263350 0.201750 0.026760 -0.615264
O6    O     O_R   0.736650 0.201750 0.973240 -0.614495
O7    O     O_R   0.763350 0.701750 0.026760 -0.614849
O8    O     O_R   0.236650 0.701750 0.973240 -0.614990
C1    C     C_R   0.290527 0.209349 0.081195 0.874344
C2    C     C_R   0.709471 0.209349 0.918805 0.875519
C3    C     C_R   0.790528 0.709349 0.081195 0.874602
C4    C     C_R   0.209473 0.709349 0.918805 0.875036
O9    O     O_R   0.318280 0.267330 0.034740 -0.579674
O10   O     O_R   0.681720 0.267330 0.965260 -0.579016
O11   O     O_R   0.818280 0.767330 0.034740 -0.579768
O12   O     O_R   0.181720 0.767330 0.965260 -0.579003
O13   O     O_R   0.283490 0.232560 0.965160 -0.619077
O14   O     O_R   0.716510 0.232560 0.034840 -0.620471
O15   O     O_R   0.783490 0.732560 0.965160 -0.619097
O16   O     O_R   0.216510 0.732560 0.034840 -0.620236
C5    C     C_R   0.317092 0.250266 0.999440 0.948586
C6    C     C_R   0.682959 0.250233 0.000642 0.947635
C7    C     C_R   0.817091 0.750267 0.999438 0.948355
C8    C     C_R   0.182959 0.750233 0.000642 0.947856
Zn1   Zn    Zn3+2 0.273180 0.273170 0.046410 1.100675
Zn2   Zn    Zn3+2 0.726820 0.273170 0.953590 1.099724
Zn3   Zn    Zn3+2 0.773180 0.773170 0.046410 1.100206
Zn4   Zn    Zn3+2 0.226820 0.773170 0.953590 1.100157
Zn5   Zn    Zn3+2 0.226720 0.226730 0.953480 1.103993
Zn6   Zn    Zn3+2 0.773280 0.226730 0.046520 1.105855
Zn7   Zn    Zn3+2 0.726720 0.726730 0.953480 1.108734
Zn8   Zn    Zn3+2 0.273280 0.726730 0.046520 1.102608
O17   O     O_R   0.236540 0.298140 0.973130 -0.598608
O18   O     O_R   0.763460 0.298140 0.026870 -0.597082
O19   O     O_R   0.736540 0.798140 0.973130 -0.599073
O20   O     O_R   0.263460 0.798140 0.026870 -0.597070
O21   O     O_R   0.201750 0.263360 0.903540 -0.580551
O22   O     O_R   0.798250 0.263360 0.096460 -0.582655
O23   O     O_R   0.701750 0.763360 0.903540 -0.579950
O24   O     O_R   0.298250 0.763360 0.096460 -0.581660
O25   O     O_R   0.216410 0.267340 0.034730 -0.599727
O26   O     O_R   0.783590 0.267340 0.965270 -0.600466
O27   O     O_R   0.716410 0.767340 0.034730 -0.600680
O28   O     O_R   0.283590 0.767340 0.965270 -0.599811
O29   O     O_R   0.181620 0.232560 0.965150 -0.586422
O30   O     O_R   0.818380 0.232560 0.034850 -0.581546
O31   O     O_R   0.681620 0.732560 0.965150 -0.581511
O32   O     O_R   0.318380 0.732560 0.034850 -0.586322
C9    C     C_R   0.209327 0.290582 0.918610 0.951970
C10   C     C_R   0.790702 0.290581 0.081393 0.951203
C11   C     C_R   0.709315 0.790581 0.918610 0.949853
C12   C     C_R   0.290685 0.790581 0.081390 0.953001
C13   C     C_R   0.182454 0.250057 0.999578 0.923678
C14   C     C_R   0.817532 0.250096 0.000385 0.922510
C15   C     C_R   0.682445 0.750079 0.999563 0.922138
C16   C     C_R   0.317523 0.750078 0.000376 0.923642
C17   C     C_R   0.369245 0.223334 0.993707 -0.259443
C18   C     C_R   0.631024 0.223434 0.006899 -0.258954
C19   C     C_R   0.869274 0.723329 0.993772 -0.259549
C20   C     C_R   0.131040 0.723435 0.006932 -0.258642
H1    H     H_    0.351822 0.203095 0.988367 0.212423
H2    H     H_    0.647550 0.203119 0.010527 0.212284
H3    H     H_    0.851865 0.703090 0.988464 0.212346
H4    H     H_    0.147577 0.703121 0.010580 0.212474
C21   C     C_R   0.407181 0.221790 0.997776 0.308169
C22   C     C_R   0.595552 0.222129 0.007892 0.307934
C23   C     C_R   0.907223 0.721784 0.997868 0.308165
C24   C     C_R   0.095572 0.722130 0.007934 0.307793
C25   C     C_R   0.430389 0.248161 0.005949 -0.207586
C26   C     C_R   0.574201 0.248689 0.003211 -0.212987
C27   C     C_R   0.930416 0.748158 0.006008 -0.207541
C28   C     C_R   0.074207 0.748688 0.003227 -0.212979
C29   C     C_R   0.415860 0.275604 0.011341 0.202408
C30   C     C_R   0.588791 0.276214 0.998038 0.198355
C31   C     C_R   0.915861 0.775603 0.011343 0.202558
C32   C     C_R   0.088779 0.776212 0.998020 0.198276
C33   C     C_R   0.378137 0.276718 0.008298 0.222938
C34   C     C_R   0.624848 0.277124 0.997517 0.224454
C35   C     C_R   0.878117 0.776722 0.008255 0.222773
C36   C     C_R   0.124833 0.777122 0.997493 0.224042
C37   C     C_R   0.355006 0.250333 0.999694 -0.239347
C38   C     C_R   0.645765 0.250494 0.001782 -0.242979
C39   C     C_R   0.855006 0.750333 0.999695 -0.239107
C40   C     C_R   0.145765 0.750494 0.001783 -0.243150
N1    N     N_R   0.507380 0.262522 0.048222 -0.076096
N2    N     N_R   0.541251 0.262768 0.047383 -0.082423
N3    N     N_R   0.007393 0.762535 0.048244 -0.076002
N4    N     N_R   0.041259 0.762782 0.047394 -0.082523
C41   C     C_R   0.537187 0.247965 0.004546 0.425262
C42   C     C_R   0.468364 0.247528 0.006196 0.416342
C43   C     C_R   0.037199 0.747963 0.004574 0.425204
C44   C     C_R   0.968388 0.747524 0.006249 0.416194
N5    N     N_R   0.498296 0.232867 0.962598 -0.086009
N6    N     N_R   0.464345 0.232719 0.963331 -0.085086
N7    N     N_R   0.998319 0.732848 0.962656 -0.085955
N8    N     N_R   0.964374 0.732699 0.963401 -0.085061
C45   C     C_R   0.959285 0.459347 0.418697 0.892221
C46   C     C_R   0.040675 0.459342 0.581295 0.893077
C47   C     C_R   0.459289 0.959343 0.418703 0.892969
C48   C     C_R   0.540676 0.959343 0.581296 0.893373
C49   C     C_3   0.367862 0.129919 0.287637 0.272387
C50   C     C_3   0.632049 0.130097 0.712183 0.272564
C51   C     C_3   0.866482 0.629290 0.286373 0.272696
C52   C     C_3   0.128254 0.631665 0.709016 0.272502
C53   C     C_3   0.330332 0.124329 0.220659 -0.039988
C54   C     C_3   0.669760 0.124537 0.779135 -0.039929
C55   C     C_3   0.830153 0.623621 0.219235 -0.040289
C56   C     C_3   0.168950 0.626487 0.775223 -0.039448
C57   C     C_1   0.312606 0.187284 0.125467 -0.142835
C58   C     C_1   0.687423 0.187283 0.874534 -0.141894
C59   C     C_1   0.812612 0.687284 0.125468 -0.142297
C60   C     C_1   0.187427 0.687284 0.874533 -0.142376
C61   C     C_1   0.437304 0.062668 0.374615 -0.050311
C62   C     C_1   0.562807 0.062667 0.625389 -0.050188
C63   C     C_1   0.937308 0.562670 0.374618 -0.050483
C64   C     C_1   0.062808 0.562667 0.625389 -0.050303
C65   C     C_3   0.391542 0.151480 0.275178 -0.042513
C66   C     C_3   0.608379 0.151448 0.724857 -0.042447
C67   C     C_3   0.890358 0.651563 0.275345 -0.042571
C68   C     C_3   0.105413 0.651065 0.725606 -0.042320
C69   C     C_3   0.353851 0.146071 0.208023 0.036039
C70   C     C_3   0.646249 0.146068 0.791982 0.035968
C71   C     C_3   0.853863 0.646073 0.208027 0.035935
C72   C     C_3   0.146254 0.646072 0.791977 0.036009
C73   C     C_3   0.419476 0.125752 0.279222 0.227409
C74   C     C_3   0.580683 0.125538 0.720999 0.227517
C75   C     C_3   0.919683 0.626467 0.280662 0.227298
C76   C     C_3   0.081518 0.623586 0.724919 0.227538
C77   C     C_3   0.395962 0.103928 0.292051 -0.194187
C78   C     C_3   0.604186 0.103925 0.707956 -0.194183
C79   C     C_3   0.895976 0.603932 0.292058 -0.194180
C80   C     C_3   0.104198 0.603925 0.707957 -0.194206
C81   C     C_3   0.381807 0.120185 0.212236 -0.039350
C82   C     C_3   0.618530 0.120000 0.787954 -0.039539
C83   C     C_3   0.883212 0.620818 0.213509 -0.039485
C84   C     C_3   0.122339 0.618438 0.791110 -0.039350
C85   C     C_3   0.358127 0.098515 0.224594 0.190340
C86   C     C_3   0.642200 0.098542 0.775383 0.189769
C87   C     C_3   0.859343 0.598438 0.224438 0.191103
C88   C     C_3   0.145198 0.598928 0.774630 0.189180
C89   C     C_1   0.331257 0.168649 0.162836 0.073621
C90   C     C_1   0.668805 0.168648 0.837167 0.074004
C91   C     C_1   0.831267 0.668650 0.162838 0.073729
C92   C     C_1   0.168809 0.668650 0.837163 0.074004
C93   C     C_1   0.418612 0.081329 0.337285 0.199107
C94   C     C_1   0.581534 0.081326 0.662721 0.199056
C95   C     C_1   0.918620 0.581331 0.337290 0.199337
C96   C     C_1   0.081539 0.581326 0.662721 0.198899
C97   C     C_R   0.099075 0.250240 0.943499 0.231061
C98   C     C_R   0.900977 0.251267 0.056706 0.241251
C99   C     C_R   0.598987 0.751310 0.943094 0.240250
C100  C     C_R   0.400878 0.750330 0.056308 0.231116
C101  C     C_R   0.062336 0.249495 0.942639 0.018650
C102  C     C_R   0.937953 0.251888 0.057814 0.042796
C103  C     C_R   0.561966 0.751945 0.941891 0.042214
C104  C     C_R   0.437570 0.749628 0.057076 0.018726
C105  C     C_R   0.070966 0.249263 0.996570 0.021932
C106  C     C_R   0.929114 0.251184 0.003669 0.003247
C107  C     C_R   0.570729 0.751209 0.995986 0.003510
C108  C     C_R   0.428871 0.749429 0.003097 0.022081
C109  C     C_R   0.115850 0.249185 0.050609 -0.205499
C110  C     C_R   0.884263 0.250866 0.949636 -0.196908
C111  C     C_R   0.615554 0.750788 0.050063 -0.197011
C112  C     C_R   0.383963 0.749344 0.949104 -0.206266
H5    H     H_    0.122352 0.248980 0.091979 0.173443
H6    H     H_    0.877803 0.250209 0.908304 0.173858
H7    H     H_    0.621956 0.750093 0.091356 0.173920
H8    H     H_    0.377408 0.749162 0.907698 0.173173
C113  C     C_R   0.152592 0.249637 0.052107 0.072659
C114  C     C_R   0.847532 0.250627 0.948083 0.071667
C115  C     C_R   0.652327 0.750505 0.051708 0.071549
C116  C     C_R   0.347266 0.749749 0.947698 0.072589
C117  C     C_R   0.144164 0.250305 0.998392 -0.174596
C118  C     C_R   0.855919 0.250729 0.001750 -0.178614
C119  C     C_R   0.644010 0.750680 0.998091 -0.178334
C120  C     C_R   0.355765 0.750380 0.001462 -0.174569
N9    N     N_R   0.039276 0.236295 0.043184 -0.158568
N10   N     N_R   0.960663 0.263907 0.956834 -0.156941
N11   N     N_R   0.539226 0.764001 0.042784 -0.157215
N12   N     N_R   0.460421 0.736507 0.956337 -0.159062
N13   N     N_R   0.006033 0.236891 0.045209 -0.116543
N14   N     N_R   0.993899 0.263303 0.954814 -0.120484
N15   N     N_R   0.505988 0.763434 0.044805 -0.120469
N16   N     N_R   0.493666 0.737068 0.954309 -0.116666
C121  C     C_R   0.966223 0.250826 0.002214 0.319386
C122  C     C_R   0.033737 0.249404 0.997826 0.336183
C123  C     C_R   0.466059 0.749587 0.001755 0.336066
C124  C     C_R   0.533580 0.750935 0.997367 0.319404
C125  C     C_3   0.155572 0.392643 0.758898 0.327683
C126  C     C_3   0.844285 0.390176 0.245786 0.328066
C127  C     C_3   0.655494 0.893035 0.759693 0.328053
C128  C     C_3   0.344229 0.892080 0.242033 0.327854
C129  C     C_3   0.154040 0.359139 0.747394 -0.294366
C130  C     C_3   0.850702 0.356506 0.257668 -0.295078
C131  C     C_3   0.654836 0.859603 0.748326 -0.294693
C132  C     C_3   0.346823 0.858496 0.253677 -0.294832
H9    H     H_    0.177931 0.346769 0.745741 0.218431
H10   H     H_    0.830709 0.341979 0.263455 0.217713
H11   H     H_    0.679371 0.847609 0.747429 0.218518
H12   H     H_    0.323716 0.845601 0.256204 0.218198
C133  C     C_1   0.187108 0.312705 0.874139 -0.058015
C134  C     C_1   0.812930 0.312702 0.125877 -0.057711
C135  C     C_1   0.687095 0.812705 0.874137 -0.057459
C136  C     C_1   0.312878 0.812704 0.125862 -0.057540
C137  C     C_1   0.062793 0.437076 0.625494 -0.069081
C138  C     C_1   0.937081 0.437089 0.374488 -0.068643
C139  C     C_1   0.562796 0.937080 0.625499 -0.069061
C140  C     C_1   0.437096 0.937078 0.374502 -0.068957
C141  C     C_3   0.148287 0.387321 0.803381 -0.211946
C142  C     C_3   0.846858 0.387409 0.196405 -0.209702
C143  C     C_3   0.647410 0.887262 0.803268 -0.212108
C144  C     C_3   0.350579 0.887382 0.196508 -0.210689
C145  C     C_3   0.145437 0.353784 0.790787 -0.023451
C146  C     C_3   0.854588 0.353777 0.209242 -0.024165
C147  C     C_3   0.645436 0.853785 0.790787 -0.023549
C148  C     C_3   0.354490 0.853782 0.209215 -0.023756
C149  C     C_3   0.095700 0.389849 0.751377 -0.294438
C150  C     C_3   0.899487 0.392468 0.243619 -0.294679
C151  C     C_3   0.594915 0.889396 0.750462 -0.294366
C152  C     C_3   0.403235 0.890485 0.247559 -0.294038
C153  C     C_3   0.104060 0.395411 0.707750 -0.071304
C154  C     C_3   0.895827 0.395414 0.292259 -0.071537
C155  C     C_3   0.604068 0.895419 0.707763 -0.071153
C156  C     C_3   0.395808 0.895409 0.292252 -0.071422
C157  C     C_3   0.093941 0.356345 0.739876 0.286356
C158  C     C_3   0.906116 0.358822 0.255470 0.286611
C159  C     C_3   0.594027 0.855960 0.739090 0.286622
C160  C     C_3   0.406053 0.856908 0.259194 0.285967
C161  C     C_3   0.101954 0.362048 0.696758 0.216444
C162  C     C_3   0.902695 0.361959 0.303498 0.216966
C163  C     C_3   0.602817 0.862115 0.696883 0.216293
C164  C     C_3   0.398951 0.861985 0.303356 0.216381
C165  C     C_1   0.168280 0.331299 0.836488 0.121316
C166  C     C_1   0.831759 0.331290 0.163539 0.121965
C167  C     C_1   0.668270 0.831298 0.836486 0.121407
C168  C     C_1   0.331678 0.831297 0.163514 0.121686
C169  C     C_1   0.081446 0.418257 0.662699 0.149736
C170  C     C_1   0.918397 0.418270 0.337285 0.150833
C171  C     C_1   0.581452 0.918263 0.662709 0.149999
C172  C     C_1   0.418412 0.918258 0.337298 0.150421
H13   H     H_    0.071468 0.402116 0.752507 0.211164
H14   H     H_    0.919856 0.406900 0.238340 0.211878
H15   H     H_    0.570046 0.901285 0.750833 0.210987
H16   H     H_    0.426690 0.903278 0.245551 0.211533
H17   H     H_    0.168251 0.397715 0.847814 0.204660
H18   H     H_    0.823012 0.397819 0.151888 0.206448
H19   H     H_    0.666667 0.897614 0.847621 0.204567
H20   H     H_    0.329780 0.897815 0.152005 0.205327
O33   O     O_R   0.502030 0.030780 0.561620 -0.598579
O34   O     O_R   0.497970 0.030780 0.438380 -0.598779
O35   O     O_R   0.002030 0.530780 0.561620 -0.598374
O36   O     O_R   0.997970 0.530780 0.438380 -0.598724
O37   O     O_R   0.559540 0.030780 0.561620 -0.594239
O38   O     O_R   0.440460 0.030780 0.438380 -0.594034
O39   O     O_R   0.059540 0.530780 0.561620 -0.594346
O40   O     O_R   0.940460 0.530780 0.438380 -0.594468
C173  C     C_R   0.540610 0.040566 0.581187 0.884241
C174  C     C_R   0.459425 0.040566 0.418814 0.883976
C175  C     C_R   0.040610 0.540566 0.581187 0.883936
C176  C     C_R   0.959426 0.540567 0.418814 0.883319
Zn9   Zn    Zn3+2 0.461570 0.999970 0.499990 1.108296
Zn10  Zn    Zn3+2 0.538430 0.999970 0.500010 1.108811
Zn11  Zn    Zn3+2 0.961570 0.499970 0.499990 1.108946
Zn12  Zn    Zn3+2 0.038430 0.499970 0.500010 1.109866
O41   O     O_R   0.940410 0.469170 0.438370 -0.590928
O42   O     O_R   0.059590 0.469170 0.561630 -0.589790
O43   O     O_R   0.440410 0.969170 0.438370 -0.590924
O44   O     O_R   0.559590 0.969170 0.561630 -0.590492
O45   O     O_R   0.997920 0.469160 0.438370 -0.608845
O46   O     O_R   0.002080 0.469160 0.561630 -0.610824
O47   O     O_R   0.497920 0.969160 0.438370 -0.609936
O48   O     O_R   0.502080 0.969160 0.561630 -0.610867
N17   N     N_3   0.409507 0.180378 0.302934 -0.370067
H21   H     H_    0.436073 0.176807 0.348237 0.235437
H22   H     H_    0.423953 0.189723 0.286401 0.233014
N18   N     N_3   0.590190 0.180315 0.697128 -0.370165
H23   H     H_    0.563550 0.176716 0.651853 0.235400
H24   H     H_    0.575810 0.189500 0.713823 0.232901
N19   N     N_3   0.907002 0.680540 0.303261 -0.370211
H25   H     H_    0.933028 0.677055 0.348736 0.235920
H26   H     H_    0.921946 0.690430 0.287823 0.233122
N20   N     N_3   0.083939 0.679534 0.698654 -0.369455
H27   H     H_    0.055977 0.675626 0.653990 0.235513
H28   H     H_    0.071069 0.687272 0.718259 0.232833
N21   N     N_R   0.090522 0.252435 0.888803 0.215703
O49   O     O_R   0.106902 0.274575 0.879828 -0.354474
O50   O     O_R   0.067066 0.232112 0.848287 -0.335006
N22   N     N_R   0.908937 0.252325 0.111009 0.206743
O51   O     O_R   0.894683 0.274791 0.122304 -0.352059
O52   O     O_R   0.927267 0.229810 0.146986 -0.321133
N23   N     N_R   0.591117 0.752488 0.888858 0.206490
O53   O     O_R   0.605281 0.775086 0.877609 -0.358028
O54   O     O_R   0.572865 0.729991 0.852831 -0.319366
N24   N     N_R   0.409505 0.752492 0.111054 0.215746
O55   O     O_R   0.393174 0.774590 0.120073 -0.353352
O56   O     O_R   0.432956 0.732170 0.151555 -0.335147
N25   N     N_3   0.016292 0.249135 0.887321 -0.404012
H29   H     H_    0.011536 0.267223 0.861844 0.245352
H30   H     H_    0.011012 0.229619 0.864754 0.248932
N26   N     N_3   0.984248 0.254846 0.112719 -0.390925
H31   H     H_    0.995895 0.275718 0.112585 0.203881
H32   H     H_    0.986676 0.254464 0.149718 0.260404
N27   N     N_3   0.515715 0.754954 0.886950 -0.391830
H33   H     H_    0.504227 0.775871 0.887026 0.202634
H34   H     H_    0.513322 0.754474 0.849981 0.259583
N28   N     N_3   0.483635 0.749273 0.112351 -0.403900
H35   H     H_    0.488468 0.767345 0.137871 0.245643
H36   H     H_    0.488890 0.729743 0.134909 0.248960
N29   N     N_3   0.198529 0.248885 0.107962 -0.398753
H37   H     H_    0.212355 0.228320 0.111173 0.187553
H38   H     H_    0.198825 0.250052 0.143307 0.211690
N30   N     N_3   0.801637 0.249440 0.892197 -0.398690
H39   H     H_    0.788443 0.228561 0.888896 0.187697
H40   H     H_    0.801312 0.251128 0.856873 0.211510
N31   N     N_3   0.698188 0.749225 0.107631 -0.398956
H41   H     H_    0.711243 0.728338 0.110826 0.188028
H42   H     H_    0.698472 0.750858 0.142922 0.211481
N32   N     N_3   0.301303 0.748982 0.891888 -0.398690
H43   H     H_    0.287445 0.728400 0.888693 0.186786
H44   H     H_    0.300956 0.750179 0.856500 0.211401
N33   N     N_R   0.190391 0.412460 0.770688 0.239929
O57   O     O_R   0.233055 0.407584 0.816011 -0.292531
O58   O     O_R   0.179262 0.434969 0.736291 -0.329959
N34   N     N_R   0.809335 0.407249 0.239203 0.239642
O59   O     O_R   0.766630 0.400471 0.197492 -0.291222
O60   O     O_R   0.820398 0.429176 0.274704 -0.332035
N35   N     N_R   0.690214 0.913285 0.772360 0.239887
O61   O     O_R   0.732806 0.908705 0.818284 -0.293054
O62   O     O_R   0.679070 0.935887 0.738153 -0.331030
N36   N     N_R   0.309302 0.911272 0.231282 0.239818
O63   O     O_R   0.266583 0.905965 0.186677 -0.291018
O64   O     O_R   0.320387 0.933646 0.265905 -0.331321
N37   N     N_R   0.076494 0.347485 0.639372 0.255001
O65   O     O_R   0.077754 0.318817 0.636781 -0.273026
O66   O     O_R   0.052605 0.362890 0.590669 -0.305747
N38   N     N_R   0.933322 0.347350 0.361040 0.255102
O67   O     O_R   0.935758 0.318613 0.363809 -0.271858
O68   O     O_R   0.958162 0.362772 0.409726 -0.305938
N39   N     N_R   0.578300 0.847610 0.639610 0.255154
O69   O     O_R   0.580226 0.818987 0.637103 -0.272610
O70   O     O_R   0.554585 0.863024 0.590924 -0.306102
N40   N     N_R   0.425525 0.847365 0.360843 0.255169
O71   O     O_R   0.425064 0.818651 0.363519 -0.272450
O72   O     O_R   0.449618 0.862764 0.409558 -0.306146
N41   N     N_R   0.059094 0.336424 0.727754 0.243110
O73   O     O_R   0.016415 0.341429 0.682651 -0.293128
O74   O     O_R   0.070248 0.313673 0.761647 -0.293365
N42   N     N_R   0.941176 0.341647 0.262477 0.242395
O75   O     O_R   0.983842 0.348607 0.303923 -0.295930
O76   O     O_R   0.930223 0.319388 0.227686 -0.296528
N43   N     N_R   0.559283 0.835609 0.726087 0.242891
O77   O     O_R   0.516669 0.840324 0.680389 -0.292834
O78   O     O_R   0.570467 0.812755 0.759766 -0.294143
N44   N     N_R   0.441026 0.837610 0.270297 0.243147
O79   O     O_R   0.483749 0.843056 0.314676 -0.292299
O80   O     O_R   0.429941 0.814976 0.236218 -0.293773
N45   N     N_R   0.422617 0.193235 0.995850 0.232442
O81   O     O_R   0.465882 0.186972 0.032261 -0.300658
O82   O     O_R   0.393374 0.172086 0.963815 -0.316480
N46   N     N_R   0.582662 0.193826 0.015356 0.234647
O83   O     O_R   0.572702 0.191141 0.049322 -0.304945
O84   O     O_R   0.586547 0.169987 0.994436 -0.318592
N47   N     N_R   0.922685 0.693227 0.996000 0.232424
O85   O     O_R   0.965955 0.686981 0.032420 -0.300697
O86   O     O_R   0.893462 0.672063 0.964005 -0.316240
N48   N     N_R   0.082702 0.693828 0.015435 0.234695
O87   O     O_R   0.072756 0.691153 0.049415 -0.304864
O88   O     O_R   0.086595 0.669984 0.994535 -0.317381
N49   N     N_R   0.437034 0.302645 0.015057 0.245439
O89   O     O_R   0.464331 0.316727 0.065237 -0.253008
O90   O     O_R   0.433217 0.311321 0.970286 -0.282531
N50   N     N_R   0.567444 0.303274 0.994087 0.248800
O91   O     O_R   0.592022 0.325131 0.029942 -0.247061
O92   O     O_R   0.523414 0.306234 0.954407 -0.289728
N51   N     N_R   0.937030 0.802642 0.015042 0.245535
O93   O     O_R   0.964501 0.816653 0.065284 -0.253253
O94   O     O_R   0.933065 0.811362 0.970180 -0.282674
N52   N     N_R   0.067417 0.803270 0.994040 0.248810
O95   O     O_R   0.091983 0.825138 0.029868 -0.247722
O96   O     O_R   0.023385 0.806218 0.954361 -0.289936
N53   N     N_R   0.361324 0.304818 0.009273 0.240780
O97   O     O_R   0.387674 0.322732 0.053918 -0.268207
O98   O     O_R   0.319267 0.312360 0.965856 -0.363480
N54   N     N_R   0.640283 0.305045 0.993175 0.247424
O99   O     O_R   0.611550 0.323308 0.950350 -0.272822
O100  O     O_R   0.682827 0.312743 0.033247 -0.359445
N55   N     N_R   0.861271 0.804827 0.009159 0.240678
O101  O     O_R   0.887666 0.822835 0.053614 -0.267965
O102  O     O_R   0.819176 0.812314 0.965790 -0.363596
N56   N     N_R   0.140252 0.805043 0.993120 0.247468
O103  O     O_R   0.111507 0.823293 0.950273 -0.272472
O104  O     O_R   0.182789 0.812754 0.033188 -0.359459
N57   N     N_3   0.281741 0.123746 0.189142 -0.378284
H45   H     H_    0.275823 0.105767 0.205460 0.240023
H46   H     H_    0.264799 0.119237 0.144641 0.227173
N58   N     N_3   0.718312 0.124187 0.810418 -0.378520
H47   H     H_    0.724247 0.106306 0.794000 0.239918
H48   H     H_    0.735407 0.119640 0.854957 0.227509
N59   N     N_3   0.781335 0.622258 0.186149 -0.378079
H49   H     H_    0.775412 0.603945 0.201799 0.239647
H50   H     H_    0.765404 0.617885 0.141929 0.227756
N60   N     N_3   0.216558 0.628277 0.802215 -0.379360
H51   H     H_    0.222323 0.611321 0.783947 0.239796
H52   H     H_    0.236265 0.623485 0.847278 0.226205
N61   N     N_R   0.359291 0.136150 0.327631 0.242039
O105  O     O_R   0.334848 0.158964 0.318068 -0.306334
O106  O     O_R   0.375905 0.119089 0.372894 -0.343429
N62   N     N_R   0.640381 0.136526 0.671983 0.241962
O107  O     O_R   0.664640 0.159479 0.681399 -0.306769
O108  O     O_R   0.623738 0.119505 0.626682 -0.343517
N63   N     N_R   0.856371 0.634824 0.324963 0.241918
O109  O     O_R   0.830873 0.657160 0.314437 -0.307559
O110  O     O_R   0.872655 0.617614 0.369927 -0.344352
N64   N     N_R   0.132380 0.639826 0.665317 0.242015
O111  O     O_R   0.153754 0.663969 0.672330 -0.305302
O112  O     O_R   0.114836 0.623174 0.619271 -0.343625
N65   N     N_R   0.338907 0.070057 0.195102 0.231793
O113  O     O_R   0.307085 0.068970 0.137722 -0.352253
O114  O     O_R   0.353317 0.045677 0.225712 -0.342379
N66   N     N_R   0.661644 0.070115 0.804842 0.231882
O115  O     O_R   0.693599 0.069050 0.862200 -0.351337
O116  O     O_R   0.647303 0.045743 0.774224 -0.340857
N67   N     N_R   0.841448 0.569892 0.194768 0.231552
O117  O     O_R   0.810541 0.568744 0.137263 -0.352978
O118  O     O_R   0.856134 0.545494 0.225341 -0.345838
N68   N     N_R   0.167934 0.570925 0.803259 0.231778
O119  O     O_R   0.202163 0.570153 0.860042 -0.351599
O120  O     O_R   0.154270 0.546638 0.772474 -0.339289
N69   N     N_3   0.389810 0.115041 0.171396 -0.365256
H53   H     H_    0.407705 0.095145 0.183798 0.240246
H54   H     H_    0.358092 0.111718 0.129330 0.229452
N70   N     N_3   0.610758 0.114656 0.828996 -0.363835
H55   H     H_    0.592992 0.094679 0.816676 0.240110
H56   H     H_    0.642558 0.111409 0.870986 0.229998
N71   N     N_3   0.892729 0.616368 0.174064 -0.365189
H57   H     H_    0.911348 0.596758 0.187040 0.240473
H58   H     H_    0.861567 0.612802 0.131504 0.229633
N72   N     N_3   0.118705 0.611369 0.835634 -0.363902
H59   H     H_    0.102902 0.590694 0.824724 0.239654
H60   H     H_    0.151791 0.608877 0.876114 0.229592
N73   N     N_R   0.467897 0.127312 0.309846 0.237166
O121  O     O_R   0.482608 0.146700 0.293443 -0.319113
O122  O     O_R   0.496572 0.109373 0.353349 -0.336661
N74   N     N_R   0.532298 0.126866 0.690615 0.237068
O123  O     O_R   0.517600 0.146093 0.707186 -0.319647
O124  O     O_R   0.503645 0.108881 0.647158 -0.337039
N75   N     N_R   0.968322 0.628814 0.312870 0.237473
O125  O     O_R   0.983201 0.648747 0.297565 -0.318732
O126  O     O_R   0.997031 0.611041 0.356708 -0.335428
N76   N     N_R   0.034053 0.622756 0.698869 0.236905
O127  O     O_R   0.020037 0.640491 0.718435 -0.319499
O128  O     O_R   0.005565 0.604315 0.656327 -0.337939

loop_
_geom_bond_atom_site_label_1
_geom_bond_atom_site_label_2
_geom_bond_distance
_ccdc_geom_bond_type
O1    Zn1   2.001803 S    
C81   C85   1.540000 S    
N45   O81   1.301511 A    
C141  H17   1.110090 S    
C78   C94   1.443053 S    
C130  C162  1.546492 S    
N23   O53   1.300925 A    
C160  C164  1.525728 S    
C84   C88   1.539994 S    
C35   N55   1.436627 S    
C36   N56   1.436352 S    
N27   H34   1.042196 S    
N37   O65   1.300210 A    
C83   C87   1.539997 S    
N20   H27   1.044931 S    
Zn12  O45   2.001404 S    
C6    C38   1.463327 S    
C51   N63   1.456874 S    
N66   O115  1.300160 A    
N58   H48   1.044821 S    
C102  C106  1.412179 A    
C18   C38   1.397949 A    
C67   N19   1.455856 S    
N63   O110  1.300115 A    
C125  N33   1.457058 S    
N50   O91   1.301182 A    
Zn6   O22   2.001429 S    
N59   H50   1.044826 S    
C97   C101  1.407063 A    
Zn9   O48   2.002223 S    
C88   N68   1.457241 S    
Zn10  O47   2.001404 S    
Zn11  O46   2.002223 S    
C100  C104  1.407044 A    
O38   Zn9   2.002091 S    
C52   N64   1.456896 S    
N34   O59   1.300206 A    
C141  C145  1.547324 S    
C26   C30   1.414203 A    
C55   C71   1.542599 S    
O4    C4    1.274435 A    
N11   N15   1.327860 A    
C100  N24   1.436913 S    
N51   O94   1.300902 A    
C30   N50   1.437977 S    
N64   O112  1.300115 A    
C56   C72   1.542620 S    
C145  C165  1.446882 S    
C126  C130  1.544484 S    
C10   C134  1.415794 S    
C149  C153  1.549568 S    
N31   H42   1.045702 S    
N36   O63   1.300198 A    
C53   N57   1.455849 S    
C112  H8    1.083662 S    
C65   N17   1.455862 S    
C84   N72   1.455869 S    
C28   C43   1.460517 S    
N40   O71   1.300212 A    
N56   O104  1.301248 A    
N11   C124  1.355772 A    
C144  C152  1.563253 S    
Zn3   O19   2.000593 S    
Zn4   O28   2.007719 S    
O13   C5    1.280678 A    
N9    C122  1.356177 A    
Zn5   O29   2.008985 S    
C80   C96   1.443056 S    
O15   C7    1.280672 A    
N75   O126  1.300109 A    
C130  C146  1.548508 S    
N12   C123  1.356228 A    
C134  C166  1.194224 T    
C34   C38   1.410024 A    
O11   Zn3   2.009049 S    
N27   H33   1.045675 S    
N51   O93   1.300603 A    
N43   O78   1.300177 A    
N28   H35   1.045585 S    
O9    C5    1.279880 A    
C138  C170  1.194275 T    
O10   Zn2   2.008229 S    
C129  C145  1.548448 S    
N10   N14   1.327906 A    
C161  N37   1.457293 S    
C45   O41   1.278465 A    
N70   H55   1.044913 S    
O6    Zn6   2.000854 S    
C76   N76   1.457040 S    
O19   C11   1.275866 A    
N53   O97   1.300536 A    
C61   C174  1.410656 S    
N55   O101  1.300540 A    
C78   C86   1.548358 S    
C106  C121  1.466339 S    
C127  C155  1.533260 S    
C29   N49   1.433812 S    
N26   H31   1.045686 S    
O36   C176  1.277101 A    
C114  C118  1.406672 A    
C101  N25   1.435082 S    
Zn11  O41   2.002423 S    
C147  C167  1.446893 S    
C50   C78   1.548441 S    
C75   C83   1.539341 S    
N38   O67   1.300240 A    
N54   O100  1.301247 A    
N1    C42   1.356016 A    
C17   H1    1.083949 S    
C67   C71   1.541674 S    
N57   H45   1.044912 S    
C19   H3    1.083947 S    
C20   H4    1.083994 S    
C141  C149  1.563278 S    
C14   C118  1.461180 S    
C126  C142  1.541588 S    
C49   C65   1.538826 S    
N21   O50   1.300706 A    
C155  C171  1.448023 S    
N61   O105  1.300197 A    
C22   C26   1.412542 A    
C115  C119  1.406604 A    
N42   O75   1.300207 A    
N19   H26   1.044833 S    
C75   C79   1.548385 S    
O3    C3    1.274432 A    
C22   N46   1.440617 S    
C77   C85   1.548362 S    
C74   C82   1.539300 S    
C136  C168  1.194199 T    
N33   O57   1.300198 A    
C103  N27   1.441851 S    
C29   C33   1.404952 A    
C51   C55   1.538805 S    
N52   O95   1.301183 A    
C31   C35   1.404965 A    
C150  C158  1.543427 S    
C109  H5    1.083666 S    
N12   N16   1.328284 A    
O35   Zn11  2.000927 S    
N71   H58   1.044826 S    
N76   O128  1.300106 A    
C54   N58   1.455846 S    
N43   O77   1.300204 A    
C144  H20   1.110094 S    
C66   N18   1.455864 S    
C13   C117  1.460629 S    
N69   H53   1.044913 S    
C148  C160  1.531105 S    
C16   C120  1.460651 S    
N23   O54   1.300985 A    
C158  N42   1.457201 S    
C126  C154  1.533207 S    
N59   H49   1.044915 S    
C44   N8    1.356818 A    
N30   H39   1.045719 S    
C66   C70   1.541674 S    
C143  H19   1.110083 S    
C70   C82   1.543499 S    
N32   H44   1.045685 S    
C19   C23   1.395508 A    
N48   O87   1.301415 A    
C27   C44   1.466666 S    
C132  C164  1.546488 S    
C79   C95   1.443057 S    
C45   C138  1.415815 S    
C99   N23   1.434658 S    
O20   C12   1.275865 A    
C59   C91   1.191025 T    
C109  C113  1.394816 A    
C102  N26   1.441921 S    
N25   H30   1.044652 S    
C23   N47   1.439416 S    
C98   N22   1.434686 S    
C49   N61   1.456885 S    
N46   O83   1.301417 A    
N65   O114  1.300110 A    
C131  H11   1.110113 S    
N29   H38   1.045687 S    
C9    C133  1.415692 S    
C103  C107  1.412167 A    
C104  C108  1.409717 A    
Zn4   O20   2.000596 S    
N35   O62   1.300241 A    
C86   N66   1.457243 S    
C48   O44   1.278480 A    
C158  C162  1.525716 S    
C71   C83   1.543504 S    
N74   O123  1.300202 A    
N22   O52   1.300998 A    
O5    C1    1.274500 A    
C73   C77   1.548387 S    
N4    C43   1.355057 A    
C115  N31   1.438950 S    
O8    C4    1.274502 A    
C54   C70   1.542616 S    
C31   N51   1.433769 S    
O39   Zn12  2.002916 S    
C156  C172  1.448039 S    
O25   C13   1.279323 A    
C64   C175  1.410661 S    
O27   C15   1.278942 A    
C99   C103  1.411422 A    
C52   C80   1.548455 S    
C112  C116  1.394851 A    
C26   C41   1.460495 S    
C142  H18   1.110084 S    
C153  C161  1.533163 S    
C4    C60   1.410672 S    
Zn2   O26   2.007719 S    
N60   H51   1.044914 S    
O16   Zn8   2.007716 S    
C98   C118  1.412862 A    
O14   C6    1.279688 A    
C77   C93   1.443056 S    
Zn6   O30   2.008174 S    
C32   C36   1.407543 A    
C5    C37   1.463859 S    
N55   O102  1.301303 A    
C143  C151  1.563281 S    
N20   H28   1.044841 S    
O10   C6    1.280521 A    
O3    Zn3   2.001803 S    
C113  N29   1.438869 S    
C130  H10   1.110099 S    
C46   O42   1.278481 A    
N9    N13   1.328229 A    
O40   C176  1.277088 A    
N70   H56   1.044823 S    
N17   H22   1.044831 S    
N50   O92   1.301310 A    
C147  C159  1.531106 S    
C150  H14   1.110084 S    
C41   N5    1.355438 A    
C62   C173  1.410653 S    
C127  C131  1.544454 S    
C79   C87   1.548362 S    
O36   Zn12  2.001744 S    
C43   N7    1.355440 A    
C125  C129  1.544456 S    
N18   H23   1.044929 S    
C154  C162  1.533118 S    
N34   O60   1.300233 A    
N44   O79   1.300203 A    
C127  C143  1.541555 S    
C113  C117  1.407567 A    
C57   C89   1.191022 T    
C108  C123  1.467011 S    
C51   C79   1.548457 S    
C55   C87   1.540090 S    
C116  C120  1.407591 A    
C149  C157  1.543515 S    
N49   O90   1.300900 A    
C49   C77   1.548459 S    
C18   H2    1.083995 S    
N3    N4    1.328641 A    
N24   O56   1.300709 A    
O13   Zn5   2.006905 S    
O23   C11   1.275692 A    
C129  C161  1.546464 S    
C36   C40   1.410034 A    
O15   Zn7   2.006905 S    
N67   O118  1.300110 A    
C24   N48   1.440614 S    
C87   N67   1.457234 S    
N36   O64   1.300235 A    
C128  C132  1.544487 S    
O24   C12   1.275691 A    
C19   C39   1.397919 A    
C76   C84   1.539293 S    
N24   O55   1.301074 A    
C132  C148  1.548461 S    
N40   O72   1.300225 A    
N73   O122  1.300114 A    
N68   O119  1.300156 A    
C74   C78   1.548400 S    
O17   C9    1.275850 A    
C63   C95   1.191205 T    
C33   N53   1.436553 S    
C152  C160  1.543475 S    
N14   C122  1.355558 A    
C61   C93   1.191205 T    
N72   H59   1.044911 S    
O35   C175  1.277073 A    
C110  H6    1.083768 S    
C11   C135  1.415700 S    
N28   H36   1.044655 S    
N47   O85   1.301512 A    
C25   C29   1.414071 A    
N41   O74   1.300188 A    
C111  C115  1.393208 A    
C131  C147  1.548447 S    
C139  C171  1.194312 T    
C32   N52   1.437979 S    
C68   N20   1.455869 S    
C83   N71   1.455866 S    
N31   H41   1.045715 S    
N45   O82   1.301465 A    
Zn7   O31   2.008985 S    
N3    C44   1.356019 A    
Zn8   O32   2.008174 S    
C146  C166  1.446979 S    
C53   C69   1.542603 S    
C48   C139  1.415882 S    
C155  C163  1.533155 S    
C42   N6    1.356820 A    
N37   O66   1.300222 A    
C1    C57   1.410666 S    
C99   C119  1.412790 A    
C72   C84   1.543499 S    
C3    C59   1.410664 S    
N75   O125  1.300204 A    
C69   C89   1.441608 S    
O1    C1    1.274433 A    
N58   H47   1.044915 S    
C128  C156  1.533242 S    
N38   O68   1.300229 A    
C64   C96   1.191208 T    
C114  N30   1.438943 S    
N1    N2    1.328641 A    
C81   N69   1.455865 S    
C157  C161  1.525750 S    
C12   C136  1.415696 S    
C135  C167  1.194207 T    
N21   O49   1.301072 A    
N15   C123  1.355522 A    
N72   H60   1.044820 S    
N57   H46   1.044826 S    
O28   C16   1.279332 A    
C133  C165  1.194199 T    
N39   O69   1.300205 A    
C110  C114  1.393278 A    
C33   C37   1.409549 A    
O30   C14   1.278579 A    
N42   O76   1.300081 A    
C137  C169  1.194324 T    
C82   N70   1.455872 S    
N64   O111  1.300191 A    
C148  C168  1.446889 S    
C157  N41   1.457245 S    
N52   O96   1.301311 A    
C105  C109  1.400020 A    
C52   C56   1.538858 S    
C73   N73   1.457029 S    
C48   O48   1.278398 A    
C116  N32   1.438866 S    
C17   C21   1.395514 A    
N2    C41   1.355056 A    
O6    C2    1.274496 A    
C68   C76   1.539387 S    
N56   O103  1.301133 A    
C80   C88   1.548358 S    
C47   C140  1.415899 S    
O33   C173  1.277070 A    
C156  C164  1.533159 S    
N19   H25   1.044929 S    
N35   O61   1.300194 A    
C125  C141  1.541551 S    
O26   C14   1.279038 A    
C35   C39   1.409593 A    
C159  C163  1.525731 S    
C104  N28   1.435091 S    
C21   C25   1.413616 A    
N66   O116  1.300109 A    
N30   H40   1.045702 S    
C2    C58   1.410678 S    
C23   C27   1.413629 A    
C101  C105  1.409639 A    
C149  H13   1.110078 S    
C151  C155  1.549568 S    
Zn3   O27   2.006901 S    
N62   O107  1.300189 A    
C20   C24   1.394810 A    
Zn12  O42   2.001603 S    
C30   C34   1.407536 A    
O40   Zn11  2.002091 S    
Zn5   O21   2.001426 S    
N63   O109  1.300193 A    
N53   O98   1.301287 A    
C151  C159  1.543509 S    
C75   N75   1.457023 S    
C52   C68   1.538836 S    
O37   Zn10  2.002916 S    
O12   Zn4   2.008229 S    
C143  C147  1.547327 S    
N5    N6    1.329580 A    
N25   H29   1.045585 S    
N7    N8    1.329584 A    
N60   H52   1.044823 S    
C132  H12   1.110113 S    
C45   O45   1.278379 A    
N54   O99   1.301136 A    
C140  C172  1.194326 T    
C159  N43   1.457225 S    
N46   O84   1.301490 A    
N65   O113  1.300161 A    
Zn1   O25   2.006901 S    
N29   H37   1.045718 S    
C46   O46   1.278402 A    
O7    C3    1.274502 A    
C152  H16   1.110084 S    
C47   O43   1.278524 A    
N68   O120  1.300109 A    
C126  N34   1.457068 S    
Zn9   O43   2.002423 S    
C63   C176  1.410654 S    
N61   O106  1.300116 A    
Zn10  O44   2.001603 S    
C125  C153  1.533259 S    
C54   C86   1.540120 S    
O38   C174  1.277084 A    
C55   N59   1.455848 S    
C108  C112  1.400017 A    
O21   C9    1.275705 A    
N74   O124  1.300109 A    
C47   O47   1.278363 A    
C58   C90   1.191024 T    
C128  N36   1.457044 S    
C65   C69   1.541673 S    
N10   C121  1.355788 A    
Zn2   O18   2.000596 S    
C128  C144  1.541570 S    
O16   C8    1.279699 A    
C127  N35   1.457052 S    
N33   O58   1.300240 A    
C46   C137  1.415887 S    
O14   Zn6   2.007716 S    
N26   H32   1.042171 S    
C56   N60   1.455850 S    
C50   C66   1.538834 S    
C24   C28   1.412531 A    
O11   C7    1.279882 A    
N76   O127  1.300216 A    
O12   C8    1.280528 A    
C85   N65   1.457242 S    
N47   O86   1.301456 A    
O9    Zn1   2.009049 S    
C76   C80   1.548414 S    
O4    Zn4   2.001807 S    
C18   C22   1.394802 A    
C150  C154  1.549554 S    
O5    Zn5   2.000851 S    
N69   H54   1.044823 S    
C49   C53   1.538816 S    
O39   C175  1.277123 A    
O18   C10   1.275925 A    
O7    Zn7   2.000851 S    
O8    Zn8   2.000854 S    
C144  C148  1.547331 S    
C145  C157  1.531112 S    
C105  C122  1.466933 S    
C62   C94   1.191203 T    
O2    Zn2   2.001807 S    
N67   O117  1.300167 A    
C56   C88   1.540131 S    
N13   C121  1.355662 A    
C142  C146  1.547385 S    
C162  N38   1.457341 S    
C154  C170  1.447952 S    
N16   C124  1.355672 A    
C50   N62   1.456874 S    
C107  C124  1.466329 S    
C111  H7    1.083771 S    
N32   H43   1.045723 S    
O37   C173  1.277124 A    
C21   N45   1.439417 S    
C34   N54   1.436353 S    
C153  C169  1.448038 S    
C71   C91   1.441605 S    
N17   H21   1.044930 S    
C131  C163  1.546464 S    
C28   C32   1.414207 A    
C151  H15   1.110082 S    
C15   C119  1.461026 S    
N39   O70   1.300224 A    
N18   H24   1.044836 S    
N44   O80   1.300177 A    
C7    C39   1.463837 S    
C107  C111  1.399400 A    
C70   C90   1.441618 S    
C163  N39   1.457295 S    
C25   C42   1.466658 S    
O2    C2    1.274440 A    
C152  C156  1.549582 S    
O31   C15   1.278606 A    
N49   O89   1.300584 A    
C73   C81   1.539335 S    
O32   C16   1.278109 A    
O34   Zn10  2.001744 S    
C97   N21   1.436896 S    
C51   C67   1.538823 S    
C160  N44   1.457243 S    
C17   C37   1.397919 A    
N62   O108  1.300115 A    
C82   C86   1.539986 S    
O22   C10   1.275677 A    
C142  C150  1.563236 S    
O33   Zn9   2.000927 S    
N22   O51   1.300885 A    
C60   C92   1.191021 T    
C53   C85   1.540094 S    
C8    C40   1.463341 S    
C164  N40   1.457291 S    
C27   C31   1.414049 A    
C20   C40   1.397961 A    
N73   O121  1.300205 A    
C65   C73   1.539424 S    
C129  H9    1.110113 S    
C74   N74   1.457036 S    
Zn7   O23   2.001426 S    
C50   C54   1.538845 S    
C97   C117  1.412622 A    
Zn8   O24   2.001429 S    
C146  C158  1.531153 S    
N48   O88   1.301493 A    
C106  C110  1.399377 A    
O29   C13   1.278116 A    
N71   H57   1.044915 S    
C100  C120  1.412583 A    
C98   C102  1.411386 A    
Zn1   O17   2.000593 S    
C72   C92   1.441609 S    
C66   C74   1.539401 S    
C69   C81   1.543506 S    
N41   O73   1.300201 A    
O34   C174  1.277107 A    
C68   C72   1.541669 S    
C67   C75   1.539429 S    
