data_mof_unit_11674.cif
_audit_creation_date              2012-12-10T17:33:54-0500
_audit_creation_method            fapswitch 2.2
_symmetry_space_group_name_H-M    P1
_symmetry_Int_Tables_number       1
_space_group_crystal_system       triclinic
_cell_length_a                    10.823716
_cell_length_b                    12.103596
_cell_length_c                    12.739953
_cell_angle_alpha                 93.375918
_cell_angle_beta                  93.178013
_cell_angle_gamma                 86.843403
_cell_volume                      1661.30215492

loop_
_atom_site_label
_atom_site_type_symbol
_atom_type_description
_atom_site_fract_x
_atom_site_fract_y
_atom_site_fract_z
_atom_type_partial_charge
C1    C     C_R   0.501507 0.521532 0.701365 0.974192
C2    C     C_3   0.120670 0.501236 0.507022 -0.089967
C3    C     C_3   0.068100 0.423560 0.415150 -0.635805
C4    C     C_3   0.064021 0.626820 0.506563 0.806834
C5    C     C_R   0.557437 0.460923 0.193620 -0.344213
C6    C     C_R   0.526360 0.532285 0.814626 -0.273445
C7    C     C_R   0.623222 0.626013 0.968270 -0.256650
C8    C     C_R   0.590471 0.622872 0.860756 0.449538
C9    C     C_R   0.503528 0.441621 0.873990 0.471909
C10   C     C_R   0.548158 0.442395 0.978865 -0.179519
C11   C     C_R   0.591166 0.540830 0.029654 -0.157452
C12   C     C_R   0.742291 0.500997 0.503270 0.965267
C13   C     C_R   0.598231 0.549786 0.140463 0.459633
C14   C     C_R   0.561468 0.353358 0.144172 0.349009
C15   C     C_R   0.560757 0.344863 0.033758 0.464591
C16   C     C_R   0.345951 0.956233 0.443896 0.397389
C17   C     C_R   0.375026 0.840072 0.429375 0.521348
C18   C     C_R   0.565658 0.858373 0.525576 -0.136464
C19   C     C_R   0.555431 0.975585 0.518991 -0.246326
C20   C     C_R   0.441641 0.025395 0.482267 -0.262547
C21   C     C_R   0.428270 0.143599 0.481447 0.540814
C22   C     C_R   0.630055 0.161155 0.562647 0.458750
C23   C     C_R   0.519682 0.478111 0.301781 0.924554
C24   C     C_R   0.653742 0.044374 0.551142 0.378063
C25   C     C_R   0.257710 0.499916 0.502749 0.936016
C26   C     C_3   0.937299 0.453932 0.609116 -0.560511
C27   C     C_3   0.081515 0.447797 0.609267 0.355822
C28   C     C_3   0.926245 0.431894 0.410847 -0.493704
C29   C     C_3   0.916564 0.628653 0.504952 0.819441
C30   C     C_3   0.879417 0.504321 0.506628 -0.052899
H1    H     H_    0.904260 0.503690 0.679155 0.235121
N1    N     N_R   0.523380 0.207800 0.519350 -0.211175
N2    N     N_R   0.476620 0.792180 0.480650 -0.177557
O1    O     O_R   0.506240 0.421700 0.658830 -0.606514
O2    O     O_R   0.491240 0.609310 0.646410 -0.599078
O3    O     O_R   0.692710 0.406190 0.506230 -0.590550
O4    O     O_R   0.677700 0.593810 0.493810 -0.546598
O5    O     O_R   0.508760 0.390690 0.353590 -0.592473
O6    O     O_R   0.493760 0.578300 0.341170 -0.594271
O7    O     O_R   0.322300 0.406190 0.506190 -0.599679
O8    O     O_R   0.307290 0.593810 0.493770 -0.555798
Zn1   Zn    Zn3+2 0.510020 0.374730 0.508290 1.009540
Zn2   Zn    Zn3+2 0.489980 0.625270 0.491710 1.020749
H2    H     H_    0.905857 0.368763 0.614985 0.207847
O9    O     O_3   0.104438 0.687219 0.421886 -0.609945
C31   C     C_3   0.092189 0.640220 0.317599 -0.245315
H3    H     H_    0.010547 0.591766 0.299212 0.185807
H4    H     H_    0.178686 0.592453 0.296864 0.173008
H5    H     H_    0.078401 0.708711 0.263763 0.170811
H6    H     H_    0.887673 0.464308 0.335481 0.224850
H7    H     H_    0.105426 0.433714 0.337576 0.180605
O10   O     O_3   0.667667 0.628542 0.197214 -0.562985
C32   C     C_3   0.611999 0.736450 0.192687 -0.296891
H8    H     H_    0.529897 0.744168 0.136553 0.118420
H9    H     H_    0.681404 0.792812 0.168656 0.145324
H10   H     H_    0.586273 0.765932 0.272944 0.204741
O11   O     O_3   0.590782 0.263228 0.206227 -0.580979
C33   C     C_3   0.530643 0.166535 0.170237 -0.267177
H11   H     H_    0.586870 0.115601 0.113554 0.206181
H12   H     H_    0.434785 0.184518 0.136985 0.136795
H13   H     H_    0.526194 0.113986 0.238031 0.141851
H14   H     H_    0.673522 0.695188 0.001993 0.183764
O12   O     O_3   0.593630 0.245604 0.981140 -0.631258
C34   C     C_3   0.724239 0.234644 0.981023 -0.409876
H15   H     H_    0.766828 0.230321 0.062286 0.203108
H16   H     H_    0.762665 0.303747 0.941435 0.161713
H17   H     H_    0.751045 0.155875 0.937281 0.179481
O13   O     O_3   0.628821 0.704083 0.799560 -0.578216
C35   C     C_3   0.554738 0.802159 0.818101 -0.307406
H18   H     H_    0.570495 0.837526 0.900013 0.138703
H19   H     H_    0.454607 0.788033 0.801018 0.163266
H20   H     H_    0.581012 0.864763 0.764348 0.182630
O14   O     O_3   0.405561 0.375599 0.841747 -0.635505
C36   C     C_3   0.445551 0.270485 0.798411 -0.173214
H21   H     H_    0.546009 0.262086 0.784671 0.189802
H22   H     H_    0.394130 0.254713 0.721669 0.169663
H23   H     H_    0.420758 0.205499 0.850214 0.176436
O15   O     O_3   0.315461 0.195264 0.452374 -0.546974
C37   C     C_3   0.301973 0.198388 0.341787 -0.223964
H24   H     H_    0.202030 0.207697 0.318347 0.150317
H25   H     H_    0.338117 0.121627 0.299788 0.107326
H26   H     H_    0.345424 0.270998 0.314617 0.191504
O16   O     O_3   0.716718 0.231592 0.609219 -0.582438
C38   C     C_3   0.769778 0.193980 0.705406 -0.339563
H27   H     H_    0.861869 0.151849 0.693119 0.205380
H28   H     H_    0.710512 0.138346 0.744891 0.150592
H29   H     H_    0.785554 0.267496 0.759452 0.164157
O17   O     O_3   0.224022 0.999735 0.446186 -0.581470
C39   C     C_3   0.152885 0.976659 0.352295 -0.315441
H30   H     H_    0.111788 0.895237 0.353460 0.216751
H31   H     H_    0.205282 0.983208 0.280718 0.138624
H32   H     H_    0.074313 0.039270 0.347747 0.163045
O18   O     O_3   0.772669 0.998525 0.567504 -0.644858
C40   C     C_3   0.849420 0.036089 0.491651 -0.387393
H33   H     H_    0.813605 0.013675 0.410049 0.148505
H34   H     H_    0.943654 0.997019 0.503446 0.190271
H35   H     H_    0.861411 0.126584 0.499979 0.222227
O19   O     O_3   0.299839 0.773668 0.366143 -0.539948
C41   C     C_3   0.324668 0.783186 0.259088 -0.368625
H36   H     H_    0.362270 0.702346 0.226509 0.202075
H37   H     H_    0.386789 0.850449 0.243875 0.095923
H38   H     H_    0.236990 0.800736 0.212802 0.149529
H39   H     H_    0.644313 0.819437 0.566506 0.224389
O20   O     O_3   0.135020 0.500596 0.702091 -0.552698
C42   C     C_3   0.128076 0.434686 0.789357 -0.236759
H40   H     H_    0.174844 0.351408 0.775748 0.173727
H41   H     H_    0.030697 0.425874 0.809411 0.127065
H42   H     H_    0.175932 0.476401 0.858740 0.209825
H43   H     H_    0.114600 0.358573 0.604347 0.117920
H44   H     H_    0.892640 0.346634 0.412130 0.224142
H45   H     H_    0.098114 0.336317 0.429887 0.244572
O21   O     O_3   0.860661 0.666102 0.407959 -0.625781
C43   C     C_3   0.853973 0.781228 0.398356 -0.220561
H46   H     H_    0.940959 0.820735 0.422295 0.152980
H47   H     H_    0.835270 0.797474 0.314228 0.164936
H48   H     H_    0.776306 0.819631 0.441039 0.214181
O22   O     O_3   0.855955 0.680787 0.595171 -0.638358
C44   C     C_3   0.894662 0.781266 0.644107 -0.166312
H49   H     H_    0.813021 0.827838 0.676097 0.205160
H50   H     H_    0.937208 0.834771 0.591620 0.158621
H51   H     H_    0.955699 0.764415 0.714764 0.200109
O23   O     O_3   0.108480 0.676810 0.605671 -0.618882
C45   C     C_3   0.172752 0.776018 0.604523 -0.151402
H52   H     H_    0.135234 0.833216 0.544420 0.188814
H53   H     H_    0.273201 0.757975 0.598421 0.203695
H54   H     H_    0.163282 0.821997 0.681783 0.113639

loop_
_geom_bond_atom_site_label_1
_geom_bond_atom_site_label_2
_ccdc_geom_bond_type
O18   C40   S    
O14   C36   S    
C29   O21   S    
O3    Zn1   S    
C19   C20   A    
O1    Zn1   S    
C38   H29   S    
C6    C9    A    
C26   H2    S    
C7    C8    A    
C32   H8    S    
C7    C11   A    
C42   H41   S    
C31   H5    S    
C26   C27   S    
C36   H22   S    
C3    C28   S    
C38   H28   S    
O5    Zn1   S    
C10   C15   A    
C25   O7    A    
C45   H53   S    
C33   H12   S    
C27   O20   S    
C18   C19   A    
C12   O4    A    
C35   H19   S    
C44   H49   S    
O20   C42   S    
C28   H6    S    
C41   H36   S    
C3    H45   S    
O13   C35   S    
C36   H23   S    
C21   O15   S    
C2    C27   S    
C12   O3    A    
O2    Zn2   S    
C17   O19   S    
C5    C13   A    
C4    C29   S    
C43   H48   S    
C33   H13   S    
O7    Zn1   S    
C26   H1    S    
O8    Zn2   S    
C40   H33   S    
C17   N2    A    
O21   C43   S    
C21   N1    A    
C1    O1    A    
C4    O9    S    
C32   H9    S    
C42   H42   S    
C31   H4    S    
C36   H21   S    
C1    C6    S    
N2    Zn2   S    
C34   H17   S    
C45   H52   S    
C38   H27   S    
C25   O8    A    
C37   H25   S    
C3    H7    S    
O15   C37   S    
C16   C17   A    
C45   H54   S    
O6    Zn2   S    
C40   H35   S    
C28   H44   S    
C33   H11   S    
O9    C31   S    
C29   O22   S    
C37   H24   S    
C44   H51   S    
C34   H16   S    
O4    Zn2   S    
C35   H20   S    
C2    C4    S    
C7    H14   S    
C29   C30   S    
C13   O10   S    
O16   C38   S    
C5    C23   S    
C16   C20   A    
C4    O23   S    
O17   C39   S    
C39   H32   S    
C40   H34   S    
C5    C14   A    
C22   N1    A    
C41   H37   S    
C8    O13   S    
C22   C24   A    
C39   H31   S    
O10   C32   S    
C1    O2    A    
C43   H46   S    
C9    C10   A    
C32   H10   S    
C14   O11   S    
C31   H3    S    
N1    Zn1   S    
C12   C30   S    
C9    O14   S    
C37   H26   S    
C6    C8    A    
C26   C30   S    
C23   O5    A    
C42   H40   S    
C34   H15   S    
C28   C30   S    
C2    C3    S    
C39   H30   S    
C24   O18   S    
C22   O16   S    
C11   C13   A    
O11   C33   S    
C23   O6    A    
C19   C24   A    
C2    C25   S    
C18   H39   S    
C35   H18   S    
C18   N2    A    
C44   H50   S    
C10   C11   A    
O12   C34   S    
C41   H38   S    
C20   C21   A    
C27   H43   S    
O19   C41   S    
C16   O17   S    
C15   O12   S    
C14   C15   A    
O23   C45   S    
O22   C44   S    
C43   H47   S    
