data_mof_unit_41425.cif
_audit_creation_date              2012-12-10T17:36:47-0500
_audit_creation_method            fapswitch 2.2
_symmetry_space_group_name_H-M    P1
_symmetry_Int_Tables_number       1
_space_group_crystal_system       triclinic
_cell_length_a                    10.643334
_cell_length_b                    12.328225
_cell_length_c                    13.083275
_cell_angle_alpha                 116.659444
_cell_angle_beta                  77.561653
_cell_angle_gamma                 100.816546
_cell_volume                      1490.01609457

loop_
_atom_site_label
_atom_site_type_symbol
_atom_type_description
_atom_site_fract_x
_atom_site_fract_y
_atom_site_fract_z
_atom_type_partial_charge
C1    C     C_R   0.513311 0.854868 0.285544 0.806981
C2    C     C_3   0.020447 0.029001 0.607831 -0.027933
C3    C     C_3   0.935019 0.918061 0.535834 0.189174
C4    C     C_3   0.875773 0.999006 0.502114 -0.073926
C5    C     C_R   0.306255 0.281102 0.016244 -0.178712
C6    C     C_R   0.453955 0.227805 0.836582 -0.104549
C7    C     C_R   0.595932 0.812580 0.077262 0.151070
C8    C     C_R   0.608977 0.731974 0.959319 0.167064
C9    C     C_R   0.559054 0.609865 0.925996 -0.217865
C10   C     C_R   0.494022 0.566235 0.008325 0.043849
C11   C     C_R   0.457697 0.652184 0.122421 -0.025999
C12   C     C_R   0.739884 0.999579 0.500744 0.805888
C13   C     C_R   0.455447 0.440110 0.977970 0.026354
C14   C     C_R   0.354822 0.404900 0.051960 0.091223
C15   C     C_R   0.304153 0.494668 0.159230 0.126776
C16   C     C_R   0.356731 0.615747 0.193717 -0.142418
C17   C     C_R   0.514769 0.347392 0.877142 -0.072688
C18   C     C_R   0.352354 0.194323 0.907803 -0.181287
C19   C     C_R   0.519944 0.773248 0.160293 -0.140305
C20   C     C_R   0.707091 0.343272 0.325853 -0.289028
C21   C     C_R   0.324933 0.760334 0.646554 0.091094
C22   C     C_R   0.287298 0.664047 0.678367 -0.242370
C23   C     C_R   0.481730 0.144978 0.713904 0.799707
C24   C     C_R   0.353236 0.560181 0.622529 -0.194827
C25   C     C_R   0.458492 0.551256 0.533511 -0.005051
C26   C     C_R   0.493401 0.652416 0.504105 0.279875
C27   C     C_R   0.530493 0.446650 0.473343 -0.050427
C28   C     C_R   0.635660 0.445105 0.384729 0.123053
C29   C     C_R   0.668015 0.545408 0.356998 -0.088153
C30   C     C_R   0.598236 0.646150 0.416334 -0.253224
C31   C     C_R   0.502942 0.342628 0.497412 0.044886
C32   C     C_R   0.675055 0.244908 0.354205 0.085554
C33   C     C_R   0.260103 0.000981 0.500174 0.796213
C34   C     C_3   0.978955 0.972214 0.393162 -0.193160
C35   C     C_3   0.038624 0.889319 0.427697 -0.197450
C36   C     C_3   0.124059 0.002432 0.500492 -0.067351
C37   C     C_3   0.064505 0.083347 0.467121 0.217453
C38   C     C_3   0.960802 0.112528 0.575296 -0.282568
Cu1   Cu    Cu3+1 0.529830 0.098270 0.475420 0.961097
Cu2   Cu    Cu3+1 0.470170 0.901730 0.524580 0.924785
H1    H     H_    0.071121 0.798010 0.368857 0.160158
H2    H     H_    0.566883 0.550626 0.834535 0.147770
H3    H     H_    0.311979 0.681674 0.274902 0.181459
H4    H     H_    0.729932 0.166761 0.308996 0.138875
H5    H     H_    0.787730 0.338860 0.258096 0.151888
H6    H     H_    0.424868 0.335762 0.562615 0.115444
H7    H     H_    0.273417 0.840724 0.690452 0.136205
H8    H     H_    0.960417 0.950929 0.305447 0.144754
H9    H     H_    0.319733 0.488728 0.650995 0.134465
H10   H     H_    0.206802 0.669956 0.746609 0.156701
H11   H     H_    0.631389 0.719413 0.392097 0.212577
H12   H     H_    0.928630 0.203822 0.634427 0.175436
H13   H     H_    0.306188 0.101544 0.878302 0.167207
H14   H     H_    0.228545 0.250980 0.069160 0.144690
N1    N     N_R   0.575030 0.246270 0.438190 -0.179453
N2    N     N_R   0.425760 0.754330 0.561190 -0.204505
O1    O     O_R   0.537510 0.972500 0.318130 -0.541973
O2    O     O_R   0.487140 0.806530 0.359650 -0.609928
O3    O     O_R   0.708330 0.082950 0.479220 -0.574748
O4    O     O_R   0.657960 0.916980 0.520740 -0.615006
O5    O     O_R   0.512860 0.193470 0.640350 -0.579148
O6    O     O_R   0.462490 0.027500 0.681870 -0.590588
O7    O     O_R   0.342040 0.083020 0.479260 -0.572551
O8    O     O_R   0.291670 0.917050 0.520780 -0.588392
C39   C     C_1   0.645908 0.368273 0.823497 0.246732
N3    N     N_1   0.750446 0.384533 0.780737 -0.292994
N4    N     N_3   0.660902 0.933966 0.112534 -0.576285
H15   H     H_    0.759895 0.928128 0.082809 0.232708
H16   H     H_    0.626529 0.978499 0.073992 0.227144
N5    N     N_3   0.677536 0.774296 0.874373 -0.586119
H17   H     H_    0.619643 0.831230 0.869712 0.212763
H18   H     H_    0.689429 0.701447 0.792330 0.229098
C40   C     C_1   0.774780 0.549267 0.268366 0.223862
N6    N     N_1   0.860076 0.552651 0.197702 -0.287281
N7    N     N_3   0.137716 0.173864 0.428334 -0.566863
H19   H     H_    0.071384 0.212421 0.409440 0.215729
H20   H     H_    0.178358 0.243551 0.498539 0.216823
C41   C     C_1   0.042528 0.058301 0.724745 0.247918
N8    N     N_1   0.059502 0.081330 0.817029 -0.308962
N9    N     N_3   0.865798 0.827318 0.575964 -0.570010
H21   H     H_    0.792315 0.868475 0.642954 0.231430
H22   H     H_    0.821988 0.758145 0.507855 0.229049
N10   N     N_3   0.200429 0.465790 0.236278 -0.591087
H23   H     H_    0.119933 0.425230 0.193413 0.228952
H24   H     H_    0.229299 0.403943 0.258907 0.223251

loop_
_geom_bond_atom_site_label_1
_geom_bond_atom_site_label_2
_ccdc_geom_bond_type
C30   H11   S    
Cu2   O4    S    
C34   C37   S    
C40   N6    T    
C35   C36   S    
C7    C8    A    
C11   C19   A    
C9    H2    S    
C29   C30   A    
C28   C29   A    
C38   H12   S    
C15   C16   A    
Cu1   O1    S    
C33   C36   S    
Cu2   O6    S    
C34   C35   S    
C18   H13   S    
C12   O3    A    
C23   O6    A    
Cu1   N1    S    
C8    C9    A    
Cu2   N2    S    
C31   H6    S    
N5    H17   S    
C4    C12   S    
C9    C10   A    
C32   N1    A    
C20   H5    S    
C22   H10   S    
C37   N7    S    
C21   C22   A    
Cu1   O5    S    
C3    N9    S    
C6    C18   A    
C4    C34   S    
C1    C19   S    
Cu2   O2    S    
C27   C31   A    
N4    H15   S    
C5    H14   S    
C24   C25   A    
N9    H22   S    
Cu1   Cu2   S    
C41   N8    T    
C15   N10   S    
C5    C18   A    
C20   C28   A    
C25   C26   A    
N4    H16   S    
N7    H19   S    
C37   C38   S    
C2    C41   S    
C1    O1    A    
C11   C16   A    
C2    C38   S    
N10   H23   S    
C3    C35   S    
C33   O7    A    
Cu1   O3    S    
C32   H4    S    
N7    H20   S    
C16   H3    S    
C5    C14   A    
N10   H24   S    
C4    C38   S    
C26   C30   A    
C7    C19   A    
C22   C24   A    
C34   H8    S    
C3    C4    S    
C20   C32   A    
C2    C36   S    
C24   H9    S    
C6    C17   A    
C36   C37   S    
C8    N5    S    
N9    H21   S    
C10   C13   A    
C26   N2    A    
C21   N2    A    
C25   C27   A    
Cu1   O7    S    
C17   C39   S    
Cu2   O8    S    
C13   C17   A    
C2    C3    S    
C1    O2    A    
C33   O8    A    
C6    C23   S    
C35   H1    S    
C10   C11   A    
C7    N4    S    
C12   O4    A    
C23   O5    A    
C29   C40   S    
C39   N3    T    
C27   C28   A    
C14   C15   A    
N5    H18   S    
C31   N1    A    
C13   C14   A    
C21   H7    S    
