data_mof_unit_43322.cif
_audit_creation_date              2012-12-10T17:15:15-0500
_audit_creation_method            fapswitch 2.2
_symmetry_space_group_name_H-M    P1
_symmetry_Int_Tables_number       1
_space_group_crystal_system       triclinic
_cell_length_a                    15.877617
_cell_length_b                    12.987706
_cell_length_c                    11.665458
_cell_angle_alpha                 100.56706
_cell_angle_beta                  93.532237
_cell_angle_gamma                 90.269352
_cell_volume                      2359.97610758

loop_
_atom_site_label
_atom_site_type_symbol
_atom_type_description
_atom_site_fract_x
_atom_site_fract_y
_atom_site_fract_z
_atom_type_partial_charge
C1    C     C_R   0.501053 0.298889 0.477642 0.849473
C2    C     C_R   0.498561 0.700951 0.522219 0.840971
C3    C     C_R   0.543034 0.014165 0.357731 0.204272
C4    C     C_R   0.452025 0.984731 0.640405 0.204171
C5    C     C_R   0.538522 0.123095 0.365091 0.210083
C6    C     C_R   0.456756 0.875702 0.633038 0.223938
C7    C     C_R   0.475532 0.138697 0.552519 -0.312807
C8    C     C_R   0.521813 0.860982 0.447148 -0.315370
C9    C     C_R   0.480897 0.031053 0.548560 0.035766
C10   C     C_R   0.515403 0.968291 0.450492 0.035734
C11   C     C_R   0.417114 0.405269 0.021534 0.330631
C12   C     C_R   0.580990 0.597196 0.978908 0.327020
C13   C     C_R   0.426387 0.413653 0.144010 -0.031900
C14   C     C_R   0.571870 0.588631 0.856336 -0.005791
C15   C     C_R   0.534889 0.541684 0.157570 0.026921
C16   C     C_R   0.465081 0.458322 0.842421 0.020833
C17   C     C_R   0.529144 0.535499 0.034568 -0.096936
C18   C     C_R   0.470161 0.465338 0.965532 -0.099649
C19   C     C_R   0.339828 0.500135 0.500563 0.812498
C20   C     C_R   0.660191 0.500077 0.499467 0.824674
C21   C     C_3   0.974504 0.432286 0.562541 0.464724
C22   C     C_3   0.025635 0.570100 0.437669 0.463940
C23   C     C_3   0.025653 0.406777 0.453970 0.208802
C24   C     C_3   0.974486 0.595629 0.546287 0.207906
C25   C     C_1   0.250415 0.501011 0.501922 -0.186356
C26   C     C_1   0.749650 0.500107 0.498239 -0.176941
C27   C     C_3   0.032437 0.528572 0.613569 -0.386312
C28   C     C_3   0.967709 0.473800 0.386655 -0.383976
C29   C     C_3   0.083583 0.502054 0.502644 -0.025160
C30   C     C_3   0.916533 0.500332 0.497596 -0.026910
C31   C     C_1   0.175053 0.501692 0.502553 0.020619
C32   C     C_1   0.825039 0.500174 0.497684 0.021134
C33   C     C_R   0.492467 0.814507 0.535810 -0.139893
C34   C     C_R   0.504307 0.184882 0.463141 -0.144180
Cu1   Cu    Cu3+1 0.506200 0.507730 0.615930 0.941756
Cu2   Cu    Cu3+1 0.493800 0.492270 0.384070 0.943356
H1    H     H_    0.940597 0.450762 0.295472 0.153961
H2    H     H_    0.059592 0.551607 0.704734 0.152790
H3    H     H_    0.550592 0.811740 0.375617 0.179756
H4    H     H_    0.449028 0.188517 0.625682 0.181495
H5    H     H_    0.420447 0.404504 0.787968 0.169864
H6    H     H_    0.579847 0.595078 0.211968 0.169307
H7    H     H_    0.610326 0.637619 0.813987 0.142879
H8    H     H_    0.386516 0.366443 0.186582 0.141713
N1    N     N_R   0.515540 0.519350 0.790140 -0.208431
N2    N     N_R   0.484460 0.480650 0.209860 -0.205888
O1    O     O_R   0.504400 0.354460 0.582000 -0.593109
O2    O     O_R   0.495600 0.645540 0.418000 -0.595088
O3    O     O_R   0.493920 0.341410 0.386200 -0.555827
O4    O     O_R   0.506080 0.658590 0.613800 -0.552978
O5    O     O_R   0.384320 0.506520 0.597880 -0.590552
O6    O     O_R   0.615680 0.493480 0.402120 -0.581319
O7    O     O_R   0.373840 0.493460 0.402080 -0.574740
O8    O     O_R   0.626160 0.506540 0.597920 -0.576921
N3    N     N_2   0.056974 0.304584 0.405388 -0.416079
H9    H     H_    0.103650 0.278754 0.458124 0.238112
C35   C     C_3   0.992789 0.225910 0.360038 -0.646481
H10   H     H_    0.023162 0.153393 0.316981 0.213397
H11   H     H_    0.949363 0.253520 0.294123 0.230651
H12   H     H_    0.956302 0.207186 0.432015 0.248002
N4    N     N_2   0.943327 0.697843 0.595115 -0.415102
H13   H     H_    0.896333 0.723657 0.542861 0.238118
C36   C     C_3   0.007659 0.776508 0.639856 -0.651795
H14   H     H_    0.977476 0.848990 0.683366 0.214362
H15   H     H_    0.043665 0.795321 0.567477 0.247125
H16   H     H_    0.051523 0.748843 0.705249 0.229144
O9    O     O_3   0.941508 0.357205 0.621834 -0.569909
C37   C     C_3   0.004290 0.329445 0.700938 0.064761
H17   H     H_    0.014257 0.393974 0.777802 0.144737
H18   H     H_    0.065282 0.311725 0.659672 0.131826
C38   C     C_3   0.975311 0.232040 0.743488 -0.790257
H19   H     H_    0.965316 0.165992 0.668426 0.243511
H20   H     H_    0.024023 0.209908 0.806650 0.199869
H21   H     H_    0.915309 0.247420 0.787345 0.252525
O10   O     O_3   0.058794 0.644923 0.378172 -0.570909
C39   C     C_3   0.995767 0.673911 0.300195 0.064325
H22   H     H_    0.935474 0.693156 0.342765 0.132264
H23   H     H_    0.984192 0.609510 0.223520 0.144747
C40   C     C_3   0.025703 0.770508 0.256870 -0.792049
H24   H     H_    0.085019 0.753562 0.211698 0.251708
H25   H     H_    0.976835 0.793774 0.194671 0.199400
H26   H     H_    0.037306 0.836420 0.331729 0.243919
N5    N     N_2   0.427215 0.828104 0.724449 -0.408513
H27   H     H_    0.434263 0.872069 0.807656 0.269556
C41   C     C_3   0.347116 0.772002 0.699479 -0.626563
H28   H     H_    0.349206 0.702213 0.741980 0.238347
H29   H     H_    0.333003 0.745241 0.604070 0.212392
H30   H     H_    0.295343 0.822738 0.735334 0.201913
N6    N     N_2   0.576343 0.171628 0.280339 -0.411574
H31   H     H_    0.636407 0.146329 0.262294 0.256658
C42   C     C_3   0.523668 0.176944 0.175874 -0.586820
H32   H     H_    0.545485 0.243612 0.137329 0.223394
H33   H     H_    0.456457 0.188944 0.195786 0.221725
H34   H     H_    0.529158 0.104297 0.110121 0.218929
N7    N     N_2   0.577186 0.952985 0.257445 -0.440134
H35   H     H_    0.626939 0.906570 0.275599 0.253243
C43   C     C_3   0.515414 0.899703 0.169648 -0.638543
H36   H     H_    0.546739 0.870976 0.087593 0.251800
H37   H     H_    0.464393 0.953591 0.150956 0.221883
H38   H     H_    0.486725 0.831615 0.198824 0.225980
N8    N     N_2   0.418648 0.046066 0.741137 -0.444020
H39   H     H_    0.455125 0.110276 0.780324 0.260609
C44   C     C_3   0.329590 0.067869 0.729118 -0.666423
H40   H     H_    0.307681 0.103621 0.815750 0.248310
H41   H     H_    0.292540 0.994670 0.696196 0.231942
H42   H     H_    0.317686 0.123098 0.667919 0.216291
O11   O     O_3   0.358178 0.335877 0.957075 -0.596581
C45   C     C_3   0.279099 0.385239 0.959169 0.066416
H43   H     H_    0.282254 0.460059 0.925396 0.138184
H44   H     H_    0.257108 0.401370 0.049510 0.149745
C46   C     C_3   0.214386 0.313520 0.881484 -0.823116
H45   H     H_    0.208027 0.238891 0.914045 0.248585
H46   H     H_    0.152214 0.352221 0.882576 0.194185
H47   H     H_    0.234048 0.296601 0.790263 0.240831
O12   O     O_3   0.636754 0.670249 0.044353 -0.599370
C47   C     C_3   0.718690 0.628668 0.039846 0.061514
H48   H     H_    0.741207 0.621404 0.950209 0.149432
H49   H     H_    0.720531 0.550488 0.066630 0.138744
C48   C     C_3   0.778786 0.702080 0.123809 -0.807241
H50   H     H_    0.758824 0.709202 0.214512 0.237319
H51   H     H_    0.843616 0.670561 0.119972 0.191957
H52   H     H_    0.779117 0.780841 0.099472 0.255136

loop_
_geom_bond_atom_site_label_1
_geom_bond_atom_site_label_2
_ccdc_geom_bond_type
C25   C31   T    
N3    H9    S    
C36   H15   S    
C11   C18   A    
C26   C32   T    
N8    H39   S    
C22   C29   S    
C27   C29   S    
N7    H35   S    
C39   C40   S    
Cu1   O1    S    
C43   H36   S    
C46   H46   S    
C41   H28   S    
C45   H43   S    
C24   N4    S    
C23   C29   S    
C39   H23   S    
C13   N2    A    
C35   H11   S    
C27   H2    S    
O12   C47   S    
C47   H48   S    
C15   C17   A    
N4    C36   S    
Cu2   O7    S    
C2    O4    A    
C38   H21   S    
C46   H45   S    
C47   H49   S    
C37   H17   S    
C12   C17   A    
C7    H4    S    
C24   C27   S    
Cu2   N2    S    
C8    H3    S    
N6    C42   S    
C9    C10   A    
Cu2   O6    S    
C12   O12   S    
C19   O7    A    
C41   H29   S    
C21   C27   S    
C36   H16   S    
N8    C44   S    
C22   C28   S    
C4    N8    S    
Cu1   O8    S    
C29   C31   S    
C22   O10   S    
C43   H37   S    
C1    C34   S    
C14   N1    A    
C48   H51   S    
C5    N6    S    
O9    C37   S    
C47   C48   S    
C39   H22   S    
C20   O8    A    
C42   H32   S    
C38   H20   S    
C1    O1    A    
C35   H12   S    
C2    O2    A    
C40   H24   S    
Cu1   Cu2   S    
C44   H42   S    
O10   C39   S    
C42   H33   S    
N5    H27   S    
O11   C45   S    
C5    C34   A    
Cu1   O4    S    
C17   C18   A    
Cu1   O5    S    
C44   H41   S    
C45   C46   S    
C23   C28   S    
C2    C33   S    
C4    C6    A    
N5    C41   S    
C12   C14   A    
N3    C35   S    
C11   O11   S    
C7    C34   A    
C22   C24   S    
Cu1   N1    S    
C43   H38   S    
C40   H25   S    
C41   H30   S    
C7    C9    A    
C6    N5    S    
C16   C18   A    
C15   H6    S    
C3    C5    A    
C16   N1    A    
C40   H26   S    
C48   H50   S    
N7    C43   S    
C23   N3    S    
C21   C30   S    
C6    C33   A    
C21   C23   S    
C4    C9    A    
C38   H19   S    
C20   O6    A    
C3    C10   A    
C42   H34   S    
C30   C32   S    
C11   C13   A    
C35   H10   S    
C20   C26   S    
C28   H1    S    
C37   C38   S    
C28   C30   S    
C48   H52   S    
C45   H44   S    
Cu2   O2    S    
C46   H47   S    
C8    C33   A    
N4    H13   S    
C19   C25   S    
C24   C30   S    
C36   H14   S    
C19   O5    A    
C8    C10   A    
C44   H40   S    
C37   H18   S    
C3    N7    S    
C15   N2    A    
N6    H31   S    
C1    O3    A    
C16   H5    S    
C13   H8    S    
C21   O9    S    
Cu2   O3    S    
C14   H7    S    
