data_mof_unit_29277.cif
_audit_creation_date              2012-12-10T16:47:56-0500
_audit_creation_method            fapswitch 2.2
_symmetry_space_group_name_H-M    P1
_symmetry_Int_Tables_number       1
_space_group_crystal_system       triclinic
_cell_length_a                    7.862999
_cell_length_b                    8.577171
_cell_length_c                    10.608413
_cell_angle_alpha                 92.046177
_cell_angle_beta                  86.507711
_cell_angle_gamma                 92.806685
_cell_volume                      712.886081066

loop_
_atom_site_label
_atom_site_type_symbol
_atom_type_description
_atom_site_fract_x
_atom_site_fract_y
_atom_site_fract_z
_atom_type_partial_charge
C1    C     C_R   0.544810 0.794123 0.496955 0.932107
C2    C     C_2   0.568861 0.957306 0.496213 -0.379788
C3    C     C_3   0.353905 0.670807 0.099836 -0.407936
C4    C     C_3   0.333458 0.819980 0.182943 -0.334643
C5    C     C_3   0.196592 0.920380 0.136246 -0.899755
C6    C     C_3   0.980935 0.621601 0.647083 -0.150187
C7    C     C_3   0.082104 0.773984 0.677999 -0.367440
C8    C     C_3   0.998568 0.863492 0.790569 -0.985467
C9    C     C_2   0.432028 0.042695 0.498336 -0.399916
C10   C     C_R   0.502319 0.496761 0.737422 0.922286
C11   C     C_R   0.455320 0.205903 0.501450 0.978468
C12   C     C_R   0.500126 0.518435 0.263875 0.893350
C13   C     C_2   0.644530 0.555843 0.061953 -0.190539
C14   C     C_2   0.503370 0.577677 0.137518 -0.048105
C15   C     C_2   0.642065 0.558391 0.926485 -0.197723
C16   C     C_2   0.508988 0.491112 0.870576 -0.339330
H1    H     H_    0.759197 0.511740 0.097186 0.165993
H2    H     H_    0.752739 0.606616 0.873054 0.170610
H3    H     H_    0.698959 0.006808 0.495763 0.186387
H4    H     H_    0.302512 0.993401 0.496835 0.171106
H5    H     H_    0.012065 0.394961 0.394853 0.179423
H6    H     H_    0.865792 0.890377 0.771856 0.270489
H7    H     H_    0.997664 0.794056 0.877028 0.267511
H8    H     H_    0.072410 0.975228 0.807400 0.271248
H9    H     H_    0.212711 0.751616 0.702670 0.273806
H10   H     H_    0.087178 0.848933 0.594667 0.225898
H11   H     H_    0.854840 0.660567 0.634696 0.237720
H12   H     H_    0.399788 0.438624 0.923993 0.152944
H13   H     H_    0.979674 0.541961 0.727435 0.162781
H14   H     H_    0.232663 0.958724 0.038917 0.264748
H15   H     H_    0.071906 0.853523 0.136749 0.266470
H16   H     H_    0.183004 0.025616 0.199474 0.251266
H17   H     H_    0.295831 0.789955 0.281782 0.253652
H18   H     H_    0.456610 0.889574 0.182011 0.223616
H19   H     H_    0.371601 0.709024 0.000987 0.232523
H20   H     H_    0.234535 0.595894 0.107680 0.197238
N1    N     N_2   0.950320 0.457950 0.466680 -0.161966
N2    N     N_2   0.049680 0.542050 0.533320 -0.074990
O1    O     O_R   0.389250 0.738570 0.508180 -0.641680
O2    O     O_R   0.678390 0.711630 0.486820 -0.644863
O3    O     O_R   0.355470 0.513470 0.691600 -0.631746
O4    O     O_R   0.644610 0.486520 0.670240 -0.642673
O5    O     O_R   0.321610 0.288370 0.513180 -0.625151
O6    O     O_R   0.610750 0.261430 0.491820 -0.606842
O7    O     O_R   0.355390 0.513480 0.329760 -0.631006
O8    O     O_R   0.644530 0.486530 0.308400 -0.627563
Zn1   Zn    Zn3+2 0.306940 0.517990 0.514260 0.915970
Zn2   Zn    Zn3+2 0.693060 0.482010 0.485740 0.921697

loop_
_geom_bond_atom_site_label_1
_geom_bond_atom_site_label_2
_ccdc_geom_bond_type
C16   H12   S    
C15   H2    S    
C8    H6    S    
C6    N2    S    
C11   O5    A    
C6    C7    S    
C13   H1    S    
C10   O4    A    
C9    H4    S    
C6    H11   S    
C7    H9    S    
C3    H19   S    
C5    H16   S    
C6    H13   S    
O7    Zn1   S    
O3    Zn1   S    
C11   O6    A    
C10   C16   S    
C13   C14   D    
N1    Zn2   S    
C9    C11   S    
N2    Zn1   S    
N1    N2    D    
C7    H10   S    
C3    H20   S    
C3    C14   S    
O1    Zn1   S    
C8    H8    S    
C12   C14   S    
C1    C2    S    
O8    Zn2   S    
C13   C15   S    
C4    H18   S    
C15   C16   D    
C1    O1    A    
C3    C4    S    
C7    C8    S    
C8    H7    S    
H5    N1    S    
C12   O8    A    
C5    H14   S    
O2    Zn2   S    
C4    H17   S    
C12   O7    A    
O4    Zn2   S    
C1    O2    A    
C5    H15   S    
C2    H3    S    
C2    C9    D    
O5    Zn1   S    
O6    Zn2   S    
C4    C5    S    
C10   O3    A    
