data_mof_unit_48576.cif
_audit_creation_date              2013-03-05T15:42:35-0500
_audit_creation_method            fapswitch 2.2
_symmetry_space_group_name_H-M    P1
_symmetry_Int_Tables_number       1
_space_group_crystal_system       triclinic
_cell_length_a                    29.255442
_cell_length_b                    17.48108
_cell_length_c                    18.846043
_cell_angle_alpha                 89.44671
_cell_angle_beta                  139.288619
_cell_angle_gamma                 90.261072
_cell_volume                      6286.14458213

loop_
_atom_site_label
_atom_site_type_symbol
_atom_site_description
_atom_site_fract_x
_atom_site_fract_y
_atom_site_fract_z
_atom_type_partial_charge
C1    C     C_R   0.666706 0.922968 0.813819 -0.130336
C2    C     C_R   0.685046 0.099251 0.801433 -0.095734
C3    C     C_R   0.166708 0.423000 0.813818 -0.129924
C4    C     C_R   0.185089 0.599332 0.801303 -0.095858
H1    H     H_    0.714342 0.954884 0.876789 0.136105
H2    H     H_    0.735028 0.072870 0.849643 0.123119
H3    H     H_    0.214310 0.454985 0.876751 0.135736
H4    H     H_    0.235038 0.572961 0.849336 0.123981
N1    N     N_R   0.625250 0.928170 0.708660 -0.047525
N2    N     N_R   0.625250 0.071830 0.708660 -0.038635
N3    N     N_R   0.125250 0.428170 0.708660 -0.047534
N4    N     N_R   0.125250 0.571830 0.708660 -0.038705
C5    C     C_R   0.329062 0.101983 0.412926 -0.111121
C6    C     C_R   0.330004 0.898996 0.417198 -0.113465
C7    C     C_R   0.829059 0.601983 0.412916 -0.111187
C8    C     C_R   0.830005 0.398996 0.417203 -0.113534
H5    H     H_    0.279180 0.073152 0.355301 0.080830
H6    H     H_    0.280137 0.928228 0.360677 0.082261
H7    H     H_    0.779178 0.573149 0.355290 0.080872
H8    H     H_    0.780138 0.428226 0.360681 0.082311
N5    N     N_R   0.386350 0.070500 0.452620 -0.038150
N6    N     N_R   0.386350 0.929500 0.452620 -0.038436
N7    N     N_R   0.886350 0.570500 0.452620 -0.038167
N8    N     N_R   0.886350 0.429500 0.452620 -0.038451
C9    C     C_R   0.410665 0.805706 0.502688 -0.136942
C10   C     C_R   0.409947 0.194685 0.499252 -0.125931
C11   C     C_R   0.910670 0.305708 0.502702 -0.136996
C12   C     C_R   0.909942 0.694686 0.499241 -0.125988
H9    H     H_    0.434235 0.749987 0.523588 0.087302
H10   H     H_    0.434121 0.250057 0.521084 0.084824
H11   H     H_    0.934244 0.249989 0.523612 0.087306
H12   H     H_    0.934116 0.750059 0.521073 0.084834
N9    N     N_R   0.437960 0.869720 0.507940 -0.037165
N10   N     N_R   0.437960 0.130280 0.507940 -0.037706
N11   N     N_R   0.937960 0.369720 0.507940 -0.037166
N12   N     N_R   0.937960 0.630280 0.507940 -0.037731
C13   C     C_R   0.601759 0.188911 0.717668 -0.117835
C14   C     C_R   0.583485 0.832526 0.724942 -0.130216
C15   C     C_R   0.101811 0.688960 0.717627 -0.117593
C16   C     C_R   0.083511 0.332529 0.724979 -0.130583
H13   H     H_    0.575557 0.243104 0.694991 0.087154
H14   H     H_    0.553094 0.783258 0.704635 0.092302
H15   H     H_    0.075589 0.743134 0.694961 0.087138
H16   H     H_    0.053169 0.283222 0.704725 0.092305
N13   N     N_R   0.573630 0.128950 0.653340 -0.035693
N14   N     N_R   0.573630 0.871050 0.653340 -0.045699
N15   N     N_R   0.073630 0.628950 0.653340 -0.035708
N16   N     N_R   0.073630 0.371050 0.653340 -0.045655
C17   C     C_R   0.641922 0.863497 0.826921 0.117944
C18   C     C_R   0.671286 0.170387 0.811971 -0.002003
C19   C     C_R   0.141938 0.363539 0.826952 0.117669
C20   C     C_R   0.171397 0.670526 0.811826 -0.002625
C21   C     C_R   0.341457 0.179532 0.438089 0.061273
C22   C     C_R   0.343015 0.821562 0.445448 0.063607
C23   C     C_R   0.841451 0.679532 0.438070 0.061254
C24   C     C_R   0.843019 0.321563 0.445462 0.063576
C25   C     C_R   0.643101 0.083067 0.524530 -0.125792
C26   C     C_R   0.653995 0.907525 0.547517 -0.135174
C27   C     C_R   0.143115 0.583084 0.524557 -0.125758
C28   C     C_R   0.153961 0.407554 0.547436 -0.135123
H17   H     H_    0.689305 0.053136 0.562152 0.087019
H18   H     H_    0.703322 0.934491 0.593858 0.086677
H19   H     H_    0.189332 0.553170 0.562203 0.087064
H20   H     H_    0.203284 0.434518 0.593758 0.086761
N17   N     N_R   0.609990 0.071870 0.547380 -0.042967
N18   N     N_R   0.609990 0.928130 0.547380 -0.039035
N19   N     N_R   0.109990 0.571870 0.547380 -0.042958
N20   N     N_R   0.109990 0.428130 0.547380 -0.039050
C29   C     C_R   0.324845 0.913107 0.185419 -0.147711
C30   C     C_R   0.311022 0.107266 0.199685 -0.149348
C31   C     C_R   0.824771 0.413034 0.185430 -0.147650
C32   C     C_R   0.811023 0.607235 0.199674 -0.149340
H21   H     H_    0.276085 0.944345 0.122490 0.089824
H22   H     H_    0.261179 0.078953 0.147210 0.086665
H23   H     H_    0.776026 0.444299 0.122520 0.089789
H24   H     H_    0.761188 0.578917 0.147247 0.086701
N21   N     N_R   0.371090 0.922150 0.291340 -0.037921
N22   N     N_R   0.371090 0.077850 0.291340 -0.033970
N23   N     N_R   0.871090 0.422150 0.291340 -0.037875
N24   N     N_R   0.871090 0.577850 0.291340 -0.033977
C33   C     C_R   0.572220 0.816111 0.460593 -0.144898
C34   C     C_R   0.558378 0.172353 0.432630 -0.138114
C35   C     C_R   0.072173 0.316150 0.460486 -0.144820
C36   C     C_R   0.058387 0.672364 0.432648 -0.138113
H25   H     H_    0.546714 0.761555 0.427365 0.087842
H26   H     H_    0.523853 0.219849 0.381357 0.091398
H27   H     H_    0.046645 0.261610 0.427204 0.087765
H28   H     H_    0.023865 0.719862 0.381381 0.091364
N25   N     N_R   0.558380 0.869490 0.492060 -0.040141
N26   N     N_R   0.558380 0.130510 0.492060 -0.043192
N27   N     N_R   0.058380 0.369490 0.492060 -0.040150
N28   N     N_R   0.058380 0.630510 0.492060 -0.043179
C37   C     C_R   0.396086 0.189886 0.288771 -0.141898
C38   C     C_R   0.409769 0.827888 0.279237 -0.116124
C39   C     C_R   0.896079 0.689867 0.288724 -0.141917
C40   C     C_R   0.909699 0.327792 0.279258 -0.116471
H29   H     H_    0.423891 0.243435 0.318523 0.090994
H30   H     H_    0.438124 0.775902 0.304315 0.091977
H31   H     H_    0.923863 0.743428 0.318428 0.090963
H32   H     H_    0.938050 0.275794 0.304327 0.091983
N29   N     N_R   0.422710 0.124520 0.346660 -0.034007
N30   N     N_R   0.422710 0.875480 0.346660 -0.037842
N31   N     N_R   0.922710 0.624520 0.346660 -0.034002
N32   N     N_R   0.922710 0.375480 0.346660 -0.037775
Ni1   Ni    Ni4+2 0.616550 0.000000 0.626870 0.220947
Ni2   Ni    Ni4+2 0.116550 0.500000 0.626870 0.221105
Ni3   Ni    Ni4+2 0.379790 0.000000 0.373130 0.210696
Ni4   Ni    Ni4+2 0.879790 0.500000 0.373130 0.210683
Ni5   Ni    Ni4+2 0.498170 0.870760 0.500000 0.214831
Ni6   Ni    Ni4+2 0.498170 0.129240 0.500000 0.213382
Ni7   Ni    Ni4+2 0.998170 0.370760 0.500000 0.214773
Ni8   Ni    Ni4+2 0.998170 0.629240 0.500000 0.213338
C41   C     C_R   0.609242 0.142424 0.448114 0.065418
C42   C     C_R   0.627707 0.841741 0.485342 0.069693
C43   C     C_R   0.109258 0.642443 0.448144 0.065380
C44   C     C_R   0.127643 0.341798 0.485199 0.069639
C45   C     C_R   0.348106 0.850917 0.175542 0.022961
C46   C     C_R   0.324976 0.180418 0.196151 0.027988
C47   C     C_R   0.847947 0.350726 0.175594 0.023071
C48   C     C_R   0.824974 0.680366 0.196084 0.027984
C49   C     C_3   0.688863 0.231698 0.946132 -0.321238
C50   C     C_3   0.647124 0.762840 0.929042 -0.360472
C51   C     C_3   0.189464 0.731129 0.946799 -0.320722
C52   C     C_3   0.147150 0.263245 0.929421 -0.360331
H33   H     H_    0.640076 0.266507 0.883485 0.142868
H34   H     H_    0.612199 0.725343 0.856739 0.143822
H35   H     H_    0.140485 0.765702 0.884474 0.143015
H36   H     H_    0.111950 0.225803 0.857056 0.143786
H37   H     H_    0.673180 0.177802 0.954901 0.218988
H38   H     H_    0.613419 0.794193 0.927398 0.205752
H39   H     H_    0.174206 0.676934 0.955808 0.219219
H40   H     H_    0.113713 0.294871 0.928139 0.205823
C53   C     C_3   0.241611 0.774950 0.053189 -0.384345
C54   C     C_3   0.198290 0.211107 0.029892 -0.420795
C55   C     C_3   0.740906 0.275603 0.052441 -0.384709
C56   C     C_3   0.698276 0.710776 0.029567 -0.420684
H41   H     H_    0.261387 0.737464 0.120231 0.200507
H42   H     H_    0.189171 0.215746 0.077313 0.167190
H43   H     H_    0.760134 0.238407 0.119298 0.200118
H44   H     H_    0.688986 0.715267 0.076769 0.167211
H45   H     H_    0.712896 0.324744 0.043827 0.144551
H46   H     H_    0.687004 0.650971 0.000450 0.154188
H47   H     H_    0.213534 0.823672 0.045134 0.144646
H48   H     H_    0.186831 0.151301 0.000703 0.154234
H49   H     H_    0.678516 0.324323 0.812551 0.172732
H50   H     H_    0.702321 0.732561 0.861574 0.183044
H51   H     H_    0.177828 0.824572 0.812280 0.172535
H52   H     H_    0.201877 0.232216 0.861378 0.183024
H53   H     H_    0.244259 0.898511 0.962318 0.158148
H54   H     H_    0.282187 0.161514 0.014866 0.165103
H55   H     H_    0.745117 0.398412 0.962545 0.158267
H56   H     H_    0.782505 0.661770 0.015008 0.165121
C57   C     C_3   0.729974 0.295677 0.882064 -0.464254
C58   C     C_3   0.735333 0.771001 0.933203 -0.474018
C59   C     C_3   0.229485 0.796215 0.881583 -0.464008
C60   C     C_3   0.235084 0.270729 0.932960 -0.473994
C61   C     C_3   0.295697 0.679087 0.002572 0.242688
C62   C     C_3   0.237696 0.369808 0.033828 0.248536
C63   C     C_3   0.795257 0.178430 0.003159 0.243280
C64   C     C_3   0.737375 0.869710 0.033748 0.248460
C65   C     C_3   0.720743 0.217053 0.909314 0.209392
C66   C     C_3   0.688506 0.818825 0.928947 0.192993
C67   C     C_3   0.220919 0.717241 0.909172 0.209254
C68   C     C_3   0.188536 0.318898 0.929010 0.193255
H57   H     H_    0.316975 0.673547 0.972775 0.052359
H58   H     H_    0.271969 0.404452 0.038711 0.101910
H59   H     H_    0.816941 0.172471 0.974043 0.052061
H60   H     H_    0.771604 0.904665 0.038805 0.103132
C69   C     C_3   0.303712 0.802848 0.079491 0.330307
C70   C     C_3   0.275401 0.232340 0.102231 0.337371
C71   C     C_3   0.803519 0.302630 0.079602 0.330472
C72   C     C_3   0.775384 0.732269 0.102156 0.337469
C73   C     C_3   0.275717 0.848476 0.981568 -0.390775
C74   C     C_3   0.287742 0.222660 0.036539 -0.378793
C75   C     C_3   0.776298 0.347925 0.982065 -0.390587
C76   C     C_3   0.787945 0.722873 0.036729 -0.378676
C77   C     C_3   0.344721 0.731952 0.100642 -0.504351
C78   C     C_3   0.286748 0.317028 0.136164 -0.509964
C79   C     C_3   0.844257 0.231163 0.101329 -0.504757
C80   C     C_3   0.786498 0.816914 0.136081 -0.510270
H61   H     H_    0.367748 0.698983 0.172744 0.194422
H62   H     H_    0.276741 0.323444 0.182232 0.197751
H63   H     H_    0.866600 0.198410 0.173133 0.194682
H64   H     H_    0.776402 0.823099 0.182053 0.197852
H65   H     H_    0.388722 0.750440 0.117486 0.146669
H66   H     H_    0.341884 0.334474 0.191253 0.154758
H67   H     H_    0.888730 0.248965 0.119038 0.146332
H68   H     H_    0.841610 0.834538 0.191273 0.154847
H69   H     H_    0.754542 0.287497 0.858005 0.166973
H70   H     H_    0.764547 0.808941 0.930209 0.168938
H71   H     H_    0.253832 0.788598 0.857084 0.167033
H72   H     H_    0.264237 0.308432 0.929638 0.168998
H73   H     H_    0.320103 0.870654 0.001393 0.165626
H74   H     H_    0.341931 0.240640 0.086021 0.161647
H75   H     H_    0.821071 0.369394 0.002484 0.165631
H76   H     H_    0.842147 0.740979 0.086415 0.161545
C81   C     C_R   0.647570 0.811305 0.439812 0.131719
C82   C     C_R   0.625875 0.170148 0.396051 0.127680
C83   C     C_R   0.147492 0.311376 0.439643 0.131834
C84   C     C_R   0.125891 0.670168 0.396084 0.127753
C85   C     C_R   0.290408 0.235697 0.403026 0.113905
C86   C     C_R   0.292082 0.765044 0.411149 0.122017
C87   C     C_R   0.790401 0.735690 0.403012 0.113843
C88   C     C_R   0.792087 0.265045 0.411165 0.122005
C89   C     C_R   0.273610 0.354547 0.445611 -0.201924
C90   C     C_R   0.270536 0.641335 0.440474 -0.204038
C91   C     C_R   0.773617 0.854523 0.445644 -0.201757
C92   C     C_R   0.770538 0.141331 0.440480 -0.203906
C93   C     C_R   0.310841 0.311379 0.440639 -0.154517
C94   C     C_R   0.312702 0.688918 0.449100 -0.153763
C95   C     C_R   0.810829 0.811373 0.440621 -0.154354
C96   C     C_R   0.812707 0.188918 0.449115 -0.153743
C97   C     C_R   0.225498 0.209616 0.350945 -0.273386
C98   C     C_R   0.224612 0.789153 0.350785 -0.273290
C99   C     C_R   0.725504 0.709596 0.350972 -0.273165
C100  C     C_R   0.724615 0.289152 0.350797 -0.273209
C101  C     C_R   0.191646 0.249259 0.364216 0.191627
C102  C     C_R   0.184224 0.743713 0.347826 0.188813
C103  C     C_R   0.691678 0.749217 0.364304 0.191491
C104  C     C_R   0.684223 0.243706 0.347824 0.188740
C105  C     C_R   0.718117 0.820577 0.417133 0.184785
C106  C     C_R   0.709070 0.170664 0.397767 0.185478
C107  C     C_R   0.218083 0.320620 0.417045 0.184800
C108  C     C_R   0.209072 0.670673 0.397773 0.185469
C109  C     C_R   0.694131 0.852412 0.451447 -0.275157
C110  C     C_R   0.677417 0.132641 0.416925 -0.270472
C111  C     C_R   0.194074 0.352471 0.451314 -0.275201
C112  C     C_R   0.177426 0.632656 0.416946 -0.270526
C113  C     C_R   0.617263 0.743488 0.379128 -0.174949
C114  C     C_R   0.595628 0.238187 0.334038 -0.171360
C115  C     C_R   0.117178 0.243567 0.378939 -0.175016
C116  C     C_R   0.095643 0.738207 0.334069 -0.171416
C117  C     C_R   0.638292 0.713390 0.339639 -0.219216
C118  C     C_R   0.624088 0.274217 0.308357 -0.217277
C119  C     C_R   0.138230 0.213455 0.339493 -0.219443
C120  C     C_R   0.124095 0.774230 0.308373 -0.217413
H77   H     H_    0.715303 0.906696 0.493027 0.113488
H78   H     H_    0.698367 0.077830 0.458507 0.114501
H79   H     H_    0.215249 0.406752 0.492903 0.113501
H80   H     H_    0.198376 0.577845 0.458529 0.114503
H81   H     H_    0.578891 0.711901 0.364337 0.121510
H82   H     H_    0.553329 0.266815 0.311471 0.118293
H83   H     H_    0.078788 0.211992 0.364113 0.121308
H84   H     H_    0.053349 0.766838 0.311511 0.118211
H85   H     H_    0.793052 0.910386 0.483124 0.120979
H86   H     H_    0.789451 0.084673 0.477005 0.121688
H87   H     H_    0.293045 0.410409 0.483093 0.121023
H88   H     H_    0.289449 0.584677 0.477002 0.121715
H89   H     H_    0.116945 0.159117 0.297733 0.130598
H90   H     H_    0.103470 0.829446 0.267525 0.129504
H91   H     H_    0.617008 0.659050 0.297885 0.130790
H92   H     H_    0.603463 0.329434 0.267512 0.129632
H93   H     H_    0.358679 0.335027 0.475496 0.115508
H94   H     H_    0.363222 0.667210 0.492277 0.115041
H95   H     H_    0.858655 0.835031 0.475443 0.115479
H96   H     H_    0.863228 0.167212 0.492297 0.115004
H97   H     H_    0.206418 0.153471 0.315093 0.114352
H98   H     H_    0.206204 0.846246 0.316624 0.115257
H99   H     H_    0.706424 0.653451 0.315118 0.114363
H100  H     H_    0.706207 0.346245 0.316638 0.115286
N33   N     N_R   0.794986 0.102122 0.036921 0.228718
O1    O     O_R   0.829898 0.046574 0.048811 -0.459005
O2    O     O_R   0.773228 0.093034 0.076238 -0.369491
N34   N     N_R   0.699283 0.922869 0.035437 0.252974
O3    O     O_R   0.734471 0.965212 0.120558 -0.338925
O4    O     O_R   0.632165 0.934621 0.950157 -0.406596
N35   N     N_R   0.296135 0.602603 0.036841 0.228403
O5    O     O_R   0.331193 0.547470 0.048415 -0.458125
O6    O     O_R   0.274927 0.593029 0.076936 -0.370060
N36   N     N_R   0.199909 0.423349 0.035750 0.252660
O7    O     O_R   0.235365 0.465835 0.120843 -0.339370
O8    O     O_R   0.132788 0.435227 0.950699 -0.407060

loop_
_geom_bond_atom_site_label_1
_geom_bond_atom_site_label_2
_geom_bond_distance
_ccdc_geom_bond_type
C26   H18   1.076350 S    
C35   H27   1.074748 S    
C85   C93   1.406646 A    
C53   H41   1.113457 S    
C82   C110  1.401109 A    
C110  H78   1.081910 S    
C105  C109  1.385179 A    
C30   N22   1.313605 A    
C109  H77   1.082312 S    
C6    H6    1.079126 S    
C40   C47   1.371876 A    
C29   N21   1.322890 A    
N31   Ni8   1.887566 S    
C4    H4    1.077034 S    
C87   C95   1.406638 A    
C101  C119  1.394198 A    
C31   N23   1.322642 A    
C61   H57   1.115252 S    
N21   N30   1.281042 A    
C14   C17   1.392875 A    
C57   H69   1.113067 S    
C7    H7    1.079028 S    
C72   C76   1.540716 S    
H52   C60   1.114316 S    
C36   N28   1.331741 A    
C60   C74   1.520219 S    
C25   N17   1.338329 A    
C4    C20   1.370572 A    
C13   H13   1.081600 S    
C1    H1    1.077147 S    
C104  C118  1.396373 A    
C8    H8    1.079127 S    
C14   H14   1.078094 S    
C3    H3    1.077228 S    
N33   O1    1.301617 A    
C38   C45   1.371980 A    
C107  C111  1.385189 A    
C79   H67   1.114012 S    
C89   C93   1.388603 A    
C38   H30   1.068444 S    
C92   C106  1.396669 A    
N6    Ni3   1.824977 S    
N25   Ni5   1.877681 S    
C116  C120  1.387224 A    
N20   N27   1.427442 A    
C77   H65   1.113982 S    
C52   H40   1.109930 S    
C84   C112  1.401102 A    
C99   H99   1.080490 S    
C25   H17   1.072358 S    
C53   C69   1.554238 S    
C30   H22   1.079795 S    
C94   H94   1.080037 S    
C56   H46   1.111953 S    
C2    C18   1.370533 A    
C27   N19   1.338328 A    
N5    Ni3   1.843243 S    
C56   H44   1.113325 S    
C26   N18   1.336514 A    
C64   C80   1.553207 S    
C56   C72   1.557275 S    
C49   C55   1.521778 S    
C90   C108  1.396663 A    
N34   O3    1.301347 A    
C39   N31   1.341086 A    
C42   C81   1.457575 S    
C1    C17   1.388185 A    
C33   C42   1.379476 A    
N12   Ni8   1.877613 S    
C41   C82   1.465205 S    
C63   C65   1.575239 S    
C29   H21   1.081405 S    
N8    Ni4   1.824977 S    
C55   C71   1.554321 S    
C4    N4    1.311113 A    
H51   C59   1.112416 S    
C61   C67   1.575399 S    
C79   H63   1.110762 S    
C32   H24   1.079796 S    
C52   H36   1.109413 S    
C33   N25   1.328347 A    
C96   H96   1.080038 S    
C72   C80   1.550063 S    
H53   C73   1.112952 S    
C7    N7    1.330839 A    
C15   C20   1.384122 A    
C58   H70   1.113900 S    
C49   C65   1.550338 S    
N1    N14   1.408574 A    
C8    N8    1.333388 A    
C31   H23   1.081407 S    
C18   C65   1.455544 S    
C91   C95   1.388607 A    
C71   C79   1.553324 S    
N3    N16   1.408574 A    
C2    H2    1.077178 S    
N20   Ni2   1.859518 S    
C86   C94   1.407569 A    
N4    N15   1.404049 A    
C91   H85   1.084098 S    
C104  C106  1.411611 A    
C92   C96   1.388987 A    
C12   C23   1.383207 A    
C10   N10   1.329453 A    
N18   N25   1.427442 A    
C5    C21   1.393333 A    
C58   C76   1.520199 S    
C9    H9    1.079967 S    
N17   N26   1.422856 A    
C61   N35   1.475071 S    
C93   H93   1.080421 S    
C53   H47   1.112641 S    
N8    N11   1.437235 A    
H55   C75   1.112981 S    
N24   N31   1.285094 A    
C11   H11   1.079967 S    
C100  C104  1.386595 A    
C12   H12   1.080164 S    
C1    N1    1.326846 A    
C9    C22   1.385651 A    
C26   C42   1.392374 A    
C98   C102  1.386585 A    
C118  H92   1.084039 S    
N33   O2    1.300499 A    
C44   C83   1.457598 S    
C3    C19   1.388148 A    
N13   Ni6   1.884938 S    
C48   C72   1.466009 S    
C25   C41   1.396325 A    
N5    N10   1.441862 A    
C50   H38   1.109938 S    
C59   C67   1.555500 S    
N29   Ni6   1.887566 S    
C34   H26   1.075081 S    
C6    C22   1.394342 A    
C71   C75   1.548715 S    
C89   C107  1.397122 A    
C21   C85   1.461430 S    
H56   C76   1.114446 S    
C57   C65   1.555306 S    
N22   Ni3   1.913290 S    
C7    C23   1.393314 A    
C50   H34   1.109437 S    
C90   H88   1.084162 S    
C8    C24   1.394353 A    
C37   N29   1.341041 A    
C49   H33   1.113888 S    
C114  H82   1.079961 S    
C99   C103  1.381547 A    
C108  C112  1.387903 A    
C103  C105  1.411877 A    
C51   C67   1.550236 S    
C90   C94   1.388986 A    
C5    H5    1.079028 S    
C51   H35   1.113900 S    
H50   C58   1.114325 S    
N21   Ni3   1.932718 S    
C63   N33   1.474953 S    
C50   C56   1.529060 S    
C51   H39   1.110666 S    
C88   C96   1.407569 A    
N2    N13   1.404049 A    
C82   C114  1.406599 A    
C5    N5    1.330856 A    
C19   C68   1.473940 S    
C61   C77   1.526199 S    
C76   H76   1.114273 S    
C63   C79   1.525718 S    
C102  C108  1.411613 A    
C85   C97   1.397298 A    
C17   C66   1.473885 S    
C78   H62   1.113378 S    
C80   H68   1.111603 S    
C59   H71   1.113045 S    
C46   C70   1.466106 S    
C60   H72   1.113908 S    
N34   O4    1.301508 A    
H54   C74   1.114440 S    
C51   C53   1.521888 S    
C10   H10   1.080162 S    
C36   C43   1.385274 A    
C81   C113  1.406734 A    
C32   C48   1.356790 A    
C69   C77   1.553454 S    
N26   Ni6   1.877457 S    
C73   H73   1.113011 S    
N10   Ni6   1.877613 S    
N36   O8    1.301503 A    
N23   N32   1.281042 A    
C28   C44   1.392394 A    
C47   C71   1.457297 S    
N9    Ni5   1.877430 S    
C37   C46   1.378214 A    
C119  H89   1.084212 S    
N18   Ni1   1.859518 S    
C13   N13   1.322825 A    
C2    N2    1.310973 A    
C10   C21   1.383203 A    
C37   H29   1.078925 S    
C111  H79   1.082310 S    
N11   Ni7   1.877430 S    
C62   H58   1.111851 S    
C54   H48   1.111916 S    
C15   N15   1.323053 A    
C120  H90   1.084039 S    
C70   C74   1.540751 S    
C43   C84   1.465186 S    
C87   C99   1.397294 A    
C16   N16   1.323759 A    
N6    N9    1.437235 A    
C88   C100  1.400737 A    
C49   H37   1.110619 S    
C97   C101  1.381562 A    
C74   H74   1.114268 S    
C97   H97   1.080491 S    
C116  H84   1.079960 S    
N30   Ni5   1.886005 S    
C35   C44   1.379486 A    
C58   C66   1.557126 S    
N28   Ni8   1.877457 S    
C23   C87   1.461417 S    
C36   H28   1.075076 S    
C34   C41   1.385289 A    
C95   H95   1.080426 S    
C89   H87   1.084099 S    
C62   N36   1.473176 S    
C54   H42   1.113318 S    
N32   Ni7   1.886005 S    
C15   H15   1.081581 S    
N35   O5    1.301622 A    
N17   Ni1   1.841059 S    
N19   Ni2   1.841059 S    
C112  H80   1.081913 S    
C24   C88   1.467317 S    
C62   C68   1.574141 S    
C39   C48   1.378252 A    
C102  C120  1.396371 A    
C16   C19   1.393035 A    
C35   N27   1.328344 A    
N15   Ni8   1.884938 S    
N24   Ni4   1.913290 S    
C11   C24   1.385663 A    
C27   H19   1.072358 S    
C34   N26   1.331755 A    
C31   C47   1.371723 A    
C50   C66   1.554310 S    
C28   H20   1.076336 S    
C55   H43   1.113463 S    
C11   N11   1.331862 A    
C6    N6    1.333384 A    
C40   N32   1.318310 A    
C62   C78   1.553101 S    
H49   C57   1.112488 S    
C32   N24   1.313437 A    
C22   C86   1.467307 S    
C60   C68   1.557093 S    
N4    Ni2   1.859339 S    
C13   C18   1.383954 A    
N35   O6    1.300487 A    
C69   C73   1.548827 S    
C59   C73   1.540436 S    
C113  H81   1.079691 S    
N3    Ni2   1.840709 S    
C83   C111  1.400459 A    
C30   C46   1.356899 A    
C77   H61   1.110454 S    
N7    Ni4   1.843243 S    
C40   H32   1.068605 S    
C29   C45   1.371993 A    
N19   N28   1.422856 A    
C55   H45   1.112593 S    
C63   H59   1.115255 S    
N23   Ni4   1.932718 S    
C114  C118  1.387228 A    
C91   C105  1.397127 A    
C39   H31   1.078940 S    
C64   H60   1.111800 S    
C113  C117  1.383372 A    
C57   C75   1.540319 S    
C92   H86   1.084161 S    
C14   N14   1.323614 A    
C3    N3    1.326778 A    
C28   N20   1.336529 A    
C20   C67   1.456115 S    
N27   Ni7   1.877681 S    
C52   C54   1.529298 S    
C78   H66   1.111579 S    
C117  H91   1.084211 S    
C45   C69   1.457709 S    
C115  H83   1.079688 S    
C16   H16   1.078120 S    
N16   Ni7   1.885034 S    
C83   C115  1.406738 A    
C12   N12   1.329464 A    
C86   C98   1.400730 A    
C27   C43   1.396323 A    
N7    N12   1.441862 A    
C54   C70   1.557286 S    
N14   Ni5   1.885034 S    
C9    N9    1.331865 A    
C103  C117  1.394200 A    
C64   N34   1.473176 S    
C106  C110  1.387908 A    
N36   O7    1.301319 A    
C98   H98   1.080488 S    
N2    Ni1   1.859339 S    
C115  C119  1.383378 A    
C84   C116  1.406597 A    
C52   C68   1.554316 S    
C70   C78   1.550112 S    
N1    Ni1   1.840709 S    
C101  C107  1.411880 A    
C75   H75   1.113024 S    
C33   H25   1.074778 S    
C80   H64   1.113380 S    
C38   N30   1.318458 A    
C64   C66   1.574080 S    
N22   N29   1.285094 A    
C100  H100  1.080488 S    
C81   C109  1.400461 A    
