data_mof_unit_48182.cif
_audit_creation_date              2013-03-05T16:35:15-0500
_audit_creation_method            fapswitch 2.2
_symmetry_space_group_name_H-M    P1
_symmetry_Int_Tables_number       1
_space_group_crystal_system       triclinic
_cell_length_a                    10.903946
_cell_length_b                    9.052164
_cell_length_c                    7.96821
_cell_angle_alpha                 90.004469
_cell_angle_beta                  91.489648
_cell_angle_gamma                 90.01657
_cell_volume                      786.230808015

loop_
_atom_site_label
_atom_site_type_symbol
_atom_site_description
_atom_site_fract_x
_atom_site_fract_y
_atom_site_fract_z
_atom_type_partial_charge
O1    O     O_R   0.500000 0.288400 0.642760 -0.563045
O2    O     O_R   0.500000 0.288400 0.357240 -0.559269
C1    C     C_R   0.499923 0.220811 0.499978 0.906180
O3    O     O_R   0.317700 0.499990 0.642790 -0.531209
O4    O     O_R   0.317700 0.499990 0.357210 -0.524916
O5    O     O_R   0.682300 0.499990 0.642790 -0.528420
O6    O     O_R   0.682300 0.499990 0.357210 -0.531390
N1    N     N_1   0.500000 0.499970 0.076820 0.032186
N2    N     N_1   0.500000 0.499970 0.923180 0.030156
C2    C     C_R   0.261332 0.482426 0.498698 0.995275
C3    C     C_R   0.739007 0.484838 0.500940 0.992170
Cu1   Cu    Cu3+1 0.500000 0.500010 0.669080 1.207187
Cu2   Cu    Cu3+1 0.500000 0.500010 0.330920 1.209957
O7    O     O_R   0.500000 0.711620 0.642810 -0.566512
O8    O     O_R   0.500000 0.711620 0.357190 -0.566529
C4    C     C_R   0.500020 0.779162 0.500003 0.865766
C5    C     C_1   0.499974 0.065581 0.499964 0.047081
C6    C     C_3   0.076828 0.363671 0.648564 0.383537
C7    C     C_3   0.067388 0.397232 0.325503 0.383189
C8    C     C_3   0.932081 0.396352 0.670557 0.376327
C9    C     C_3   0.922392 0.367218 0.348328 0.377754
C10   C     C_1   0.500006 0.934348 0.499990 -0.010333
C11   C     C_3   0.072801 0.635609 0.518502 0.506689
C12   C     C_3   0.929229 0.637042 0.481716 0.509929
C13   C     C_3   0.123326 0.468529 0.497896 -0.548015
C14   C     C_3   0.877057 0.470606 0.500290 -0.548139
Cl1   Cl    Cl    0.156077 0.388115 0.845487 -0.291291
Cl2   Cl    Cl    0.094370 0.528973 0.162469 -0.272264
Cl3   Cl    Cl    0.908098 0.527661 0.834055 -0.277477
Cl4   Cl    Cl    0.844299 0.398990 0.152258 -0.291015
N3    N     N_R   0.110650 0.207254 0.614507 0.155643
O9    O     O_R   0.047555 0.097418 0.672373 -0.135343
O10   O     O_R   0.226002 0.178457 0.592369 -0.311950
N4    N     N_R   0.129273 0.263261 0.261020 0.205835
O11   O     O_R   0.245891 0.240628 0.286078 -0.296978
O12   O     O_R   0.079630 0.196597 0.131327 -0.124433
N5    N     N_R   0.866234 0.264094 0.732271 0.200762
O13   O     O_R   0.758418 0.225694 0.675135 -0.321480
O14   O     O_R   0.901633 0.205872 0.874758 -0.122479
N6    N     N_R   0.885520 0.210602 0.378831 0.159700
O15   O     O_R   0.961235 0.100036 0.375387 -0.166097
O16   O     O_R   0.769516 0.176765 0.364700 -0.279233
Cl5   Cl    Cl    0.117404 0.712166 0.720684 -0.270515
Cl6   Cl    Cl    0.149743 0.774647 0.394912 -0.320911
Cl7   Cl    Cl    0.853590 0.776082 0.606727 -0.317163
Cl8   Cl    Cl    0.885868 0.716395 0.280613 -0.268918

loop_
_geom_bond_atom_site_label_1
_geom_bond_atom_site_label_2
_geom_bond_distance
_ccdc_geom_bond_type
C9    C14   1.617915 S    
N3    O10   1.301083 A    
N1    Cu2   2.024721 S    
C8    N5    1.486148 S    
O3    Cu1   1.993375 S    
C9    Cl4   1.783178 S    
O4    Cu2   2.004207 S    
N3    O9    1.300252 A    
C11   C12   1.585262 S    
C12   Cl8   1.807840 S    
N6    O16   1.303399 A    
O2    C1    1.291550 A    
O4    C2    1.307701 A    
N5    O14   1.301241 A    
O6    C3    1.294622 A    
C7    Cl2   1.793398 S    
O1    Cu1   1.926960 S    
N5    O13   1.296948 A    
C6    C13   1.622007 S    
C8    C14   1.615715 S    
C12   Cl7   1.816503 S    
C2    C13   1.509872 S    
N6    O15   1.298362 A    
C7    C9    1.619021 S    
C12   C14   1.618432 S    
C1    C5    1.405170 S    
N4    O12   1.302216 A    
C8    Cl3   1.787768 S    
Cu2   O8    1.926915 S    
O5    Cu1   2.004206 S    
C7    C13   1.622217 S    
N2    Cu1   2.024721 S    
O7    C4    1.291817 A    
C6    Cl1   1.785257 S    
O3    C2    1.297897 A    
O8    C4    1.291758 A    
O6    Cu2   1.993374 S    
C11   C13   1.619591 S    
C11   Cl5   1.808622 S    
Cu1   Cu2   2.694531 S    
C6    C8    1.619861 S    
N4    O11   1.298357 A    
O5    C3    1.309607 A    
O2    Cu2   1.926992 S    
C4    C10   1.404774 S    
C6    N3    1.489931 S    
C3    C14   1.510966 S    
C11   Cl6   1.816673 S    
C5    C10   1.187938 T    
Cu1   O7    1.926947 S    
N1    N2    1.224237 T    
O1    C1    1.291729 A    
C7    N4    1.486096 S    
C9    N6    1.495138 S    
