data_mof_unit_12593.cif
_audit_creation_date              2012-12-10T17:42:16-0500
_audit_creation_method            fapswitch 2.2
_symmetry_space_group_name_H-M    P1
_symmetry_Int_Tables_number       1
_space_group_crystal_system       triclinic
_cell_length_a                    15.086053
_cell_length_b                    13.727177
_cell_length_c                    10.790139
_cell_angle_alpha                 90.830175
_cell_angle_beta                  89.441105
_cell_angle_gamma                 89.928306
_cell_volume                      2234.17521303

loop_
_atom_site_label
_atom_site_type_symbol
_atom_type_description
_atom_site_fract_x
_atom_site_fract_y
_atom_site_fract_z
_atom_type_partial_charge
C1    C     C_R   0.328654 0.500150 0.499082 0.794655
C2    C     C_3   0.550200 0.595891 0.930793 0.734040
C3    C     C_R   0.815179 0.421552 0.461416 -0.237360
C4    C     C_R   0.768391 0.501638 0.508672 -0.146351
C5    C     C_R   0.814314 0.584461 0.554207 0.369376
C6    C     C_R   0.907384 0.590643 0.538192 -0.037632
C7    C     C_R   0.953769 0.507418 0.491999 -0.015366
C8    C     C_R   0.907133 0.422863 0.455374 0.035639
C9    C     C_R   0.955890 0.676488 0.568064 -0.088874
C10   C     C_R   0.048470 0.677495 0.557131 0.327282
C11   C     C_R   0.094383 0.591325 0.522672 0.027885
C12   C     C_R   0.503006 0.499154 0.259888 0.868494
C13   C     C_R   0.046983 0.507164 0.485702 -0.000988
C14   C     C_R   0.092976 0.421700 0.445376 0.017089
C15   C     C_R   0.044602 0.339537 0.402697 0.399775
C16   C     C_R   0.952548 0.340637 0.410608 -0.158269
C17   C     C_R   0.186776 0.586697 0.528116 -0.200537
C18   C     C_R   0.232067 0.501593 0.494240 -0.061273
C19   C     C_R   0.185626 0.419631 0.453097 -0.201642
C20   C     C_R   0.446005 0.795187 0.579123 -0.039042
C21   C     C_R   0.445379 0.206667 0.578211 -0.053006
C22   C     C_R   0.555504 0.790379 0.419485 0.572035
C23   C     C_R   0.556683 0.207388 0.421187 0.582469
C24   C     C_R   0.553380 0.894329 0.409348 -0.150255
C25   C     C_R   0.554436 0.103160 0.410429 -0.142623
C26   C     C_R   0.671378 0.500213 0.503911 0.823755
C27   C     C_R   0.500472 0.947982 0.494937 0.060743
C28   C     C_R   0.500545 0.051713 0.494941 0.058904
C29   C     C_R   0.446196 0.897807 0.580202 -0.004495
C30   C     C_R   0.445892 0.104048 0.579703 0.004544
C31   C     C_R   0.598479 0.945816 0.314265 -0.069823
C32   C     C_R   0.600214 0.049131 0.315764 -0.073712
C33   C     C_R   0.392002 0.052987 0.663269 -0.159113
C34   C     C_R   0.392259 0.950950 0.663652 -0.149994
C35   C     C_R   0.502559 0.500702 0.739867 0.890345
C36   C     C_3   0.405101 0.503550 0.072848 0.292463
C37   C     C_3   0.554357 0.403027 0.067043 0.219315
C38   C     C_3   0.405973 0.496302 0.927551 0.077177
C39   C     C_3   0.552129 0.407162 0.922428 0.128108
C40   C     C_3   0.556947 0.586911 0.073857 -0.470223
C41   C     C_3   0.503823 0.496640 0.121510 -0.277454
C42   C     C_3   0.503764 0.501693 0.877571 -0.118513
Cu1   Cu    Cu3+1 0.499990 0.597420 0.500010 1.039638
Cu2   Cu    Cu3+1 0.499990 0.402580 0.500010 1.006583
H1    H     H_    0.224447 0.647944 0.563376 0.167029
H2    H     H_    0.222639 0.354355 0.429450 0.173719
H3    H     H_    0.916205 0.276663 0.380102 0.173127
H4    H     H_    0.403525 0.755948 0.642598 0.171529
H5    H     H_    0.402330 0.247386 0.640989 0.140840
H6    H     H_    0.349555 0.092075 0.728584 0.148200
H7    H     H_    0.349998 0.913496 0.729231 0.161206
H8    H     H_    0.378472 0.423993 0.897794 0.041591
H9    H     H_    0.512226 0.344365 0.887295 0.123766
H10   H     H_    0.533806 0.655711 0.119150 0.209511
H11   H     H_    0.627565 0.580804 0.101477 0.221784
H12   H     H_    0.779776 0.357976 0.427888 0.175602
N1    N     N_R   0.499930 0.743810 0.499950 -0.199533
N2    N     N_R   0.499930 0.256190 0.499950 -0.193136
O1    O     O_R   0.370250 0.582280 0.500040 -0.592131
O2    O     O_R   0.370250 0.417720 0.500040 -0.596719
O3    O     O_R   0.499970 0.582270 0.317700 -0.519129
O4    O     O_R   0.499970 0.417730 0.317700 -0.570346
O5    O     O_R   0.629730 0.582260 0.499980 -0.532113
O6    O     O_R   0.629730 0.417740 0.499980 -0.544465
O7    O     O_R   0.500000 0.582270 0.682320 -0.529049
O8    O     O_R   0.500000 0.417730 0.682320 -0.607183
O9    O     O_3   0.364449 0.590527 0.116361 -0.665587
H13   H     H_    0.389937 0.646991 0.072805 0.392098
O10   O     O_3   0.643505 0.402051 0.106141 -0.684610
H14   H     H_    0.644974 0.399353 0.197811 0.356248
O11   O     O_3   0.092165 0.763966 0.582114 -0.718676
H15   H     H_    0.141375 0.770520 0.521400 0.328599
O12   O     O_3   0.084044 0.256680 0.353607 -0.706915
H16   H     H_    0.137480 0.276057 0.306189 0.336429
O13   O     O_3   0.614796 0.734199 0.352511 -0.699692
H17   H     H_    0.673884 0.764650 0.362917 0.318202
O14   O     O_3   0.617118 0.261644 0.356322 -0.714206
H18   H     H_    0.675794 0.230848 0.368471 0.293299
C43   C     C_1   0.636227 0.894384 0.207404 0.275044
N3    N     N_1   0.666112 0.853721 0.122004 -0.273733
C44   C     C_1   0.643783 0.097659 0.213041 0.300353
N4    N     N_1   0.678649 0.135775 0.130937 -0.202614
C45   C     C_1   0.348884 0.424542 0.122283 0.275177
N5    N     N_1   0.304387 0.363278 0.161142 -0.287196
C46   C     C_1   0.513266 0.309488 0.104762 0.302698
N6    N     N_1   0.481065 0.236549 0.133187 -0.260300
O15   O     O_3   0.352332 0.569547 0.876667 -0.633543
H19   H     H_    0.329451 0.544371 0.796379 0.314499
O16   O     O_3   0.636286 0.393790 0.866177 -0.643322
H20   H     H_    0.677905 0.442803 0.899776 0.407666
O17   O     O_3   0.499247 0.678624 0.901263 -0.685225
H21   H     H_    0.531042 0.737508 0.931403 0.320014
O18   O     O_3   0.635251 0.605505 0.877124 -0.769563
H22   H     H_    0.663795 0.663941 0.914434 0.333051
O19   O     O_3   0.769834 0.657756 0.617974 -0.724262
H23   H     H_    0.723004 0.627643 0.669596 0.365349
C47   C     C_1   0.912969 0.767447 0.603275 0.483304
N7    N     N_1   0.879063 0.840301 0.631269 -0.230454

loop_
_geom_bond_atom_site_label_1
_geom_bond_atom_site_label_2
_ccdc_geom_bond_type
C23   N2    A    
O15   H19   S    
O18   H22   S    
Cu2   O2    S    
C37   O10   S    
C27   C29   A    
O12   H16   S    
Cu2   O8    S    
O19   H23   S    
C24   C27   A    
O13   H17   S    
C6    C9    A    
C21   H5    S    
C47   N7    T    
C19   H2    S    
Cu1   O5    S    
C7    C8    A    
O14   H18   S    
Cu2   O6    S    
C25   C28   A    
C32   C44   S    
C34   H7    S    
C37   C46   S    
C17   H1    S    
C38   C42   S    
C1    O1    A    
C5    C6    A    
C38   H8    S    
C35   O7    A    
C36   C45   S    
C15   C16   A    
C18   C19   A    
C35   C42   S    
C26   O6    A    
C31   C32   A    
Cu2   N2    S    
C9    C47   S    
C9    C10   A    
Cu1   O1    S    
C10   O11   S    
C25   C32   A    
C8    C16   A    
C13   C14   A    
C36   C41   S    
O10   H14   S    
C22   O13   S    
C22   N1    A    
C16   H3    S    
C5    O19   S    
C17   C18   A    
C39   C42   S    
C20   C29   A    
C36   O9    S    
O9    H13   S    
C3    C8    A    
C1    O2    A    
O17   H21   S    
C35   O8    A    
Cu2   O4    S    
C33   H6    S    
C46   N6    T    
C29   C34   A    
C44   N4    T    
Cu1   Cu2   S    
C12   C41   S    
C12   O4    A    
C3    H12   S    
C45   N5    T    
Cu1   O7    S    
C40   H11   S    
C33   C34   A    
C1    C18   S    
C23   O14   S    
C20   H4    S    
C40   C41   S    
C15   O12   S    
C40   H10   S    
C22   C24   A    
C3    C4    A    
Cu1   O3    S    
C11   C17   A    
C26   O5    A    
C30   C33   A    
C14   C19   A    
C2    O18   S    
C4    C5    A    
C4    C26   S    
C31   C43   S    
C6    C7    A    
C21   C30   A    
C38   O15   S    
C36   C38   S    
O16   H20   S    
C24   C31   A    
C21   N2    A    
C37   C39   S    
C12   O3    A    
C11   C13   A    
C39   H9    S    
C2    C42   S    
C28   C30   A    
C23   C25   A    
C37   C41   S    
C2    O17   S    
C10   C11   A    
Cu1   N1    S    
C43   N3    T    
C2    C40   S    
C7    C13   A    
O11   H15   S    
C27   C28   A    
C14   C15   A    
C20   N1    A    
C39   O16   S    
