data_mof_unit_5735.cif
_audit_creation_date              2012-10-26T17:13:03-0400
_audit_creation_method            fapswitch 2.2
_symmetry_space_group_name_H-M    P1
_symmetry_Int_Tables_number       1
_space_group_crystal_system       triclinic
_cell_length_a                    16.745641
_cell_length_b                    16.74552
_cell_length_c                    16.745755
_cell_angle_alpha                 68.05958
_cell_angle_beta                  68.060708
_cell_angle_gamma                 68.060795
_cell_volume                      3887.8996075

loop_
_atom_site_label
_atom_site_type_symbol
_atom_type_description
_atom_site_fract_x
_atom_site_fract_y
_atom_site_fract_z
_atom_type_partial_charge
C1    C     C_R   0.323963 0.950776 0.454112 -0.071219
C2    C     C_R   0.323963 0.454115 0.950775 -0.071220
C3    C     C_R   0.544406 0.413752 0.986992 0.006635
C4    C     C_R   0.013007 0.455589 0.586248 0.006636
C5    C     C_R   0.986992 0.544411 0.413753 0.006635
C6    C     C_1   0.276566 0.029190 0.803818 0.214786
C7    C     C_1   0.723433 0.970812 0.196181 0.214786
C8    C     C_1   0.029216 0.803817 0.276561 0.214799
C9    C     C_1   0.970791 0.196179 0.723435 0.214796
C10   C     C_1   0.803816 0.276562 0.029198 0.214784
C11   C     C_1   0.196195 0.723447 0.970780 0.214789
C12   C     C_1   0.196291 0.970550 0.723558 0.214802
C13   C     C_R   0.049225 0.676034 0.545890 -0.071223
C14   C     C_1   0.803708 0.029452 0.276441 0.214801
C15   C     C_1   0.723569 0.196296 0.970529 0.214796
C16   C     C_1   0.276434 0.803706 0.029466 0.214795
C17   C     C_1   0.970586 0.723552 0.196286 0.214813
C18   C     C_1   0.029449 0.276427 0.803704 0.214805
C19   C     C_1   0.399161 0.134492 0.750004 0.227269
C20   C     C_1   0.600839 0.865509 0.249996 0.227269
C21   C     C_1   0.134494 0.750031 0.399161 0.227239
C22   C     C_1   0.865506 0.249968 0.600840 0.227239
C23   C     C_1   0.750022 0.399151 0.134502 0.227246
C24   C     C_R   0.950773 0.323966 0.454110 -0.071223
C25   C     C_1   0.249978 0.600848 0.865495 0.227245
C26   C     C_1   0.250006 0.865454 0.600818 0.227243
C27   C     C_1   0.749994 0.134546 0.399182 0.227243
C28   C     C_1   0.600816 0.250025 0.865445 0.227243
C29   C     C_1   0.399183 0.749975 0.134553 0.227243
C30   C     C_1   0.865475 0.600833 0.249992 0.227253
C31   C     C_1   0.134530 0.399170 0.750005 0.227251
C32   C     C_R   0.457359 0.976079 0.457360 0.015106
C33   C     C_R   0.542640 0.023922 0.542639 0.015106
C34   C     C_R   0.976072 0.457365 0.457361 0.015107
C35   C     C_R   0.023926 0.542636 0.542641 0.015107
C36   C     C_R   0.457363 0.457364 0.976070 0.015105
C37   C     C_R   0.542637 0.542636 0.023928 0.015105
C38   C     C_R   0.028496 0.828101 0.564533 0.556921
C39   C     C_R   0.676037 0.049224 0.545888 -0.071219
C40   C     C_R   0.971504 0.171899 0.435467 0.556921
C41   C     C_R   0.828101 0.564532 0.028495 0.556929
C42   C     C_R   0.171898 0.435467 0.971505 0.556929
C43   C     C_R   0.564535 0.028490 0.828102 0.556931
C44   C     C_R   0.435465 0.971510 0.171898 0.556930
C45   C     C_R   0.435466 0.171899 0.971506 0.556929
C46   C     C_R   0.564534 0.828101 0.028494 0.556929
C47   C     C_R   0.971504 0.435467 0.171899 0.556929
C48   C     C_R   0.028496 0.564532 0.828101 0.556930
C49   C     C_R   0.171898 0.971507 0.435466 0.556922
C50   C     C_R   0.950775 0.454117 0.323960 -0.071217
C51   C     C_R   0.828102 0.028493 0.564534 0.556921
C52   C     C_R   0.411412 0.960127 0.411413 -0.013399
C53   C     C_R   0.588588 0.039873 0.588587 -0.013399
C54   C     C_R   0.960117 0.411419 0.411413 -0.013394
C55   C     C_R   0.039881 0.588581 0.588588 -0.013395
C56   C     C_R   0.411416 0.411418 0.960116 -0.013398
C57   C     C_R   0.588584 0.588582 0.039883 -0.013398
C58   C     C_R   0.271249 0.954274 0.401869 -0.014309
C59   C     C_R   0.728751 0.045726 0.598131 -0.014309
C60   C     C_R   0.954265 0.401874 0.271251 -0.014309
C61   C     C_R   0.049224 0.545883 0.676040 -0.071217
C62   C     C_R   0.045734 0.598126 0.728749 -0.014308
C63   C     C_R   0.401869 0.271252 0.954271 -0.014304
C64   C     C_R   0.598131 0.728748 0.045729 -0.014304
C65   C     C_R   0.598133 0.045720 0.728751 -0.014299
C66   C     C_R   0.401867 0.954280 0.271249 -0.014300
C67   C     C_R   0.728749 0.598127 0.045730 -0.014304
C68   C     C_R   0.271251 0.401873 0.954269 -0.014303
C69   C     C_R   0.045735 0.728746 0.598129 -0.014306
C70   C     C_R   0.954264 0.271254 0.401871 -0.014306
C71   C     C_R   0.451919 0.063833 0.706048 -0.003945
C72   C     C_R   0.454111 0.323965 0.950773 -0.071223
C73   C     C_R   0.548081 0.936168 0.293952 -0.003945
C74   C     C_R   0.063864 0.706034 0.451915 -0.003967
C75   C     C_R   0.936135 0.293966 0.548086 -0.003968
C76   C     C_R   0.706037 0.451906 0.063862 -0.003962
C77   C     C_R   0.293964 0.548094 0.936134 -0.003962
C78   C     C_R   0.293971 0.936112 0.548091 -0.003948
C79   C     C_R   0.706029 0.063888 0.451908 -0.003947
C80   C     C_R   0.548090 0.293971 0.936115 -0.003939
C81   C     C_R   0.451910 0.706029 0.063883 -0.003939
C82   C     C_R   0.936126 0.548098 0.293963 -0.003950
C83   C     C_R   0.545889 0.676035 0.049226 -0.071222
C84   C     C_R   0.063877 0.451902 0.706036 -0.003949
C85   C     C_R   0.311796 0.954322 0.311797 0.354730
C86   C     C_R   0.688204 0.045677 0.688203 0.354730
C87   C     C_R   0.954302 0.311804 0.311802 0.354730
C88   C     C_R   0.045697 0.688197 0.688199 0.354729
C89   C     C_R   0.311798 0.311800 0.954316 0.354731
C90   C     C_R   0.688202 0.688200 0.045685 0.354729
C91   C     C_R   0.669988 0.031593 0.409543 -0.017037
C92   C     C_R   0.330012 0.968408 0.590457 -0.017037
C93   C     C_R   0.031575 0.409541 0.669995 -0.017039
C94   C     C_R   0.545893 0.049207 0.676041 -0.071228
C95   C     C_R   0.968428 0.590457 0.330005 -0.017042
C96   C     C_R   0.409549 0.669994 0.031577 -0.017037
C97   C     C_R   0.590451 0.330006 0.968420 -0.017037
C98   C     C_R   0.590425 0.968496 0.329981 -0.017043
C99   C     C_R   0.409575 0.031505 0.670019 -0.017043
C100  C     C_R   0.329996 0.590443 0.968456 -0.017040
C101  C     C_R   0.670006 0.409559 0.031539 -0.017040
C102  C     C_R   0.968465 0.329989 0.590433 -0.017037
C103  C     C_R   0.031534 0.670010 0.409567 -0.017037
C104  C     C_R   0.714941 0.016757 0.323553 -0.040213
C105  C     C_R   0.454107 0.950793 0.323958 -0.071228
C106  C     C_R   0.285058 0.983244 0.676446 -0.040214
C107  C     C_R   0.016732 0.323552 0.714948 -0.040215
C108  C     C_R   0.983278 0.676442 0.285048 -0.040209
C109  C     C_R   0.323564 0.714955 0.016730 -0.040218
C110  C     C_R   0.676439 0.285047 0.983264 -0.040217
C111  C     C_R   0.676378 0.983411 0.284989 -0.040195
C112  C     C_R   0.323621 0.016590 0.715010 -0.040196
C113  C     C_R   0.285009 0.676399 0.983366 -0.040197
C114  C     C_R   0.714995 0.323604 0.016624 -0.040195
C115  C     C_R   0.983381 0.284994 0.676385 -0.040198
C116  C     C_R   0.676038 0.545885 0.049224 -0.071221
C117  C     C_R   0.016624 0.715003 0.323613 -0.040200
C118  C     C_R   0.544395 0.987026 0.413743 0.006631
C119  C     C_R   0.455605 0.012975 0.586256 0.006631
C120  C     C_R   0.987008 0.413748 0.544401 0.006634
C121  C     C_R   0.012990 0.586252 0.455600 0.006635
C122  C     C_R   0.413751 0.544405 0.987004 0.006635
C123  C     C_R   0.586250 0.455596 0.012994 0.006634
C124  C     C_R   0.586243 0.013018 0.455589 0.006637
C125  C     C_R   0.413757 0.986982 0.544411 0.006637
C126  C     C_R   0.455594 0.586248 0.013006 0.006635
Cu1   Cu    Cu3+1 0.995180 0.995180 0.424630 1.153523
Cu2   Cu    Cu3+1 0.004820 0.004820 0.575370 1.153524
Cu3   Cu    Cu3+1 0.995180 0.424630 0.995180 1.153522
Cu4   Cu    Cu3+1 0.004820 0.575370 0.004820 1.153526
Cu5   Cu    Cu3+1 0.424630 0.995180 0.995180 1.153518
Cu6   Cu    Cu3+1 0.575370 0.004820 0.004820 1.153517
F1    F     F_    0.262100 0.957067 0.262101 -0.556493
F2    F     F_    0.737900 0.042933 0.737899 -0.556493
F3    F     F_    0.957032 0.262111 0.262110 -0.556500
F4    F     F_    0.042967 0.737889 0.737890 -0.556499
F5    F     F_    0.262102 0.262103 0.957064 -0.556502
F6    F     F_    0.737898 0.737897 0.042938 -0.556503
N1    N     N_1   0.238748 0.039453 0.874419 -0.191713
N2    N     N_1   0.238544 0.874255 0.039849 -0.191536
N3    N     N_1   0.960243 0.761422 0.125726 -0.191582
N4    N     N_1   0.039815 0.238542 0.874257 -0.191544
N5    N     N_1   0.357402 0.191207 0.784603 -0.193600
N6    N     N_1   0.642598 0.808793 0.215397 -0.193601
N7    N     N_1   0.191172 0.784683 0.357401 -0.193510
N8    N     N_1   0.808829 0.215315 0.642601 -0.193508
N9    N     N_1   0.784656 0.357401 0.191195 -0.193532
N10   N     N_1   0.215345 0.642595 0.808801 -0.193533
N11   N     N_1   0.215403 0.808737 0.642552 -0.193619
N12   N     N_1   0.761250 0.960550 0.125579 -0.191721
N13   N     N_1   0.784598 0.191263 0.357449 -0.193620
N14   N     N_1   0.642549 0.215438 0.808719 -0.193672
N15   N     N_1   0.357449 0.784562 0.191279 -0.193670
N16   N     N_1   0.808764 0.642572 0.215384 -0.193599
N17   N     N_1   0.191243 0.357434 0.784611 -0.193606
N18   N     N_1   0.039469 0.874424 0.238743 -0.191681
N19   N     N_1   0.960538 0.125572 0.761252 -0.191683
N20   N     N_1   0.874434 0.238758 0.039427 -0.191721
N21   N     N_1   0.125583 0.761257 0.960539 -0.191701
N22   N     N_1   0.125724 0.960211 0.761428 -0.191564
N23   N     N_1   0.874275 0.039792 0.238570 -0.191568
N24   N     N_1   0.761458 0.125746 0.960147 -0.191536
O1    O     O_R   0.124540 0.978640 0.385460 -0.409602
O2    O     O_R   0.124540 0.385460 0.978640 -0.409610
O3    O     O_R   0.021360 0.875460 0.614540 -0.409609
O4    O     O_R   0.978640 0.124540 0.385460 -0.409609
O5    O     O_R   0.013780 0.867370 0.487190 -0.540787
O6    O     O_R   0.986220 0.132630 0.512810 -0.540787
O7    O     O_R   0.867370 0.487190 0.013780 -0.540787
O8    O     O_R   0.132630 0.512810 0.986220 -0.540786
O9    O     O_R   0.487190 0.013780 0.867370 -0.540792
O10   O     O_R   0.512810 0.986220 0.132630 -0.540792
O11   O     O_R   0.512810 0.132630 0.986220 -0.540786
O12   O     O_R   0.875460 0.021360 0.614540 -0.409602
O13   O     O_R   0.487190 0.867370 0.013780 -0.540786
O14   O     O_R   0.986220 0.512810 0.132630 -0.540790
O15   O     O_R   0.013780 0.487190 0.867370 -0.540792
O16   O     O_R   0.132630 0.986220 0.512810 -0.540785
O17   O     O_R   0.867370 0.013780 0.487190 -0.540785
O18   O     O_R   0.978640 0.385460 0.124540 -0.409606
O19   O     O_R   0.021360 0.614540 0.875460 -0.409606
O20   O     O_R   0.385460 0.124540 0.978640 -0.409608
O21   O     O_R   0.614540 0.875460 0.021360 -0.409608
O22   O     O_R   0.614540 0.021360 0.875460 -0.409609
O23   O     O_R   0.385460 0.978640 0.124540 -0.409609
O24   O     O_R   0.875460 0.614540 0.021360 -0.409610

loop_
_geom_bond_atom_site_label_1
_geom_bond_atom_site_label_2
_ccdc_geom_bond_type
C46   O21   A    
C38   O3    A    
C30   C82   S    
C1    C78   A    
C80   C97   A    
C20   N6    T    
C15   N24   T    
C44   C66   S    
C61   C84   A    
C64   C90   A    
C91   C104  A    
C92   C125  A    
C66   C85   A    
C11   C113  S    
C11   N21   T    
C65   C86   A    
C41   C67   S    
C71   C94   A    
C106  C112  A    
Cu6   O22   S    
C90   F6    S    
Cu5   O9    S    
C101  C123  A    
C40   C70   S    
C25   C77   S    
Cu3   O7    S    
C37   C126  A    
C27   C79   S    
Cu6   O21   S    
C48   O19   A    
Cu5   O20   S    
C42   O2    A    
C24   C54   A    
C5    C121  A    
C43   O22   A    
C77   C100  A    
C17   N3    T    
C6    N1    T    
C18   C107  S    
C32   C52   A    
C102  C115  A    
C42   O8    A    
C5    C95   A    
C47   C60   S    
C37   C123  A    
C19   C71   S    
C86   F2    S    
C33   C119  A    
C22   N8    T    
C56   C72   A    
C45   O20   A    
C75   C102  A    
C27   N13   T    
C57   C83   A    
C98   C111  A    
C10   N20   T    
C40   O4    A    
C47   O14   A    
C10   C114  S    
C109  C113  A    
C44   O23   A    
Cu6   O11   S    
C38   C69   S    
C42   C68   S    
C101  C114  A    
C15   C110  S    
C103  C117  A    
C6    C112  S    
C22   C75   S    
C51   O17   A    
C70   C87   A    
C48   O15   A    
C81   C83   A    
C60   C87   A    
C3    C123  A    
C16   C109  S    
C98   C118  A    
C57   C116  A    
C33   C53   A    
C38   O5    A    
Cu3   O18   S    
C40   O6    A    
C24   C70   A    
C9    C115  S    
C87   F3    S    
C35   C121  A    
C8    C117  S    
C88   F4    S    
C17   C108  S    
C81   C96   A    
C43   O9    A    
C74   C103  A    
C78   C92   A    
Cu3   O15   S    
C21   C74   S    
C45   C63   S    
C67   C90   A    
C31   C84   S    
C72   C80   A    
Cu3   O2    S    
C46   C64   S    
C39   C79   A    
C32   C125  A    
C122  C126  A    
C51   O12   A    
C36   C122  A    
C67   C116  A    
C44   O10   A    
C64   C83   A    
C29   C81   S    
C47   O18   A    
C36   C56   A    
C45   O11   A    
C33   C124  A    
C7    N12   T    
C3    C97   A    
C14   C104  S    
C9    N19   T    
C43   C65   S    
C39   C59   A    
C5    C34   A    
C63   C89   A    
C68   C89   A    
C96   C126  A    
C118  C124  A    
C12   N22   T    
C107  C115  A    
C35   C55   A    
C69   C88   A    
C119  C125  A    
C92   C106  A    
C65   C94   A    
C52   C105  A    
C28   N14   T    
C89   F5    S    
C91   C124  A    
Cu2   O3    S    
Cu2   O16   S    
C28   C80   S    
Cu5   Cu6   S    
C103  C121  A    
C58   C85   A    
Cu5   O23   S    
C48   C62   S    
C16   N2    T    
C102  C120  A    
C50   C82   A    
C29   N15   T    
C49   O16   A    
C76   C101  A    
C110  C114  A    
C18   N4    T    
Cu1   O1    S    
C82   C95   A    
C53   C94   A    
C79   C91   A    
C108  C117  A    
C26   N11   T    
C100  C113  A    
C26   C78   S    
C32   C118  A    
Cu4   O19   S    
C104  C111  A    
C31   N17   T    
Cu4   O24   S    
C24   C75   A    
C34   C54   A    
C50   C60   A    
Cu6   O10   S    
C96   C109  A    
C2    C68   A    
C73   C105  A    
Cu4   O14   S    
C13   C69   A    
C14   N23   T    
Cu3   Cu4   S    
C59   C86   A    
Cu1   O17   S    
C4    C35   A    
C50   C54   A    
C2    C77   A    
C2    C56   A    
C1    C58   A    
C93   C107  A    
C23   N9    T    
C12   C106  S    
C97   C110  A    
C39   C53   A    
C62   C88   A    
C3    C36   A    
Cu4   O8    S    
Cu1   O4    S    
C99   C112  A    
C55   C61   A    
Cu5   O13   S    
C63   C72   A    
C76   C116  A    
C7    C111  S    
C20   C73   S    
C25   N10   T    
C100  C122  A    
C84   C93   A    
C71   C99   A    
C61   C62   A    
C8    N18   T    
C1    C52   A    
C19   N5    T    
C73   C98   A    
C49   O1    A    
C95   C108  A    
C49   C58   S    
C99   C119  A    
C4    C93   A    
C30   N16   T    
C51   C59   S    
Cu2   O12   S    
C34   C120  A    
Cu1   O5    S    
C85   F1    S    
C41   O24   A    
Cu2   O6    S    
C23   C76   S    
C46   O13   A    
C4    C120  A    
C66   C105  A    
C41   O7    A    
C37   C57   A    
Cu1   Cu2   S    
C21   N7    T    
C13   C74   A    
C13   C55   A    
