data_mof_unit_15909.cif
_audit_creation_date              2012-12-11T14:49:27-0500
_audit_creation_method            fapswitch 2.2
_symmetry_space_group_name_H-M    P1
_symmetry_Int_Tables_number       1
_space_group_crystal_system       triclinic
_cell_length_a                    16.891449
_cell_length_b                    16.794581
_cell_length_c                    19.572021
_cell_angle_alpha                 116.347104
_cell_angle_beta                  61.952111
_cell_angle_gamma                 100.425121
_cell_volume                      4388.47260269

loop_
_atom_site_label
_atom_site_type_symbol
_atom_type_description
_atom_site_fract_x
_atom_site_fract_y
_atom_site_fract_z
_atom_type_partial_charge
C1    C     C_R   0.038401 0.758712 0.011407 -0.145342
C2    C     C_R   0.769706 0.435035 0.240407 0.098862
C3    C     C_R   0.722450 0.548586 0.020424 -0.031536
C4    C     C_R   0.976589 0.755869 0.251632 0.110571
C5    C     C_R   0.249641 0.569996 0.011397 -0.120726
C6    C     C_R   0.924888 0.261680 0.835524 0.500396
C7    C     C_R   0.172195 0.450533 0.753934 -0.115435
C8    C     C_R   0.052647 0.308552 0.051563 -0.064114
C9    C     C_R   0.975396 0.240138 0.976188 -0.084923
C10   C     C_R   0.252118 0.520237 0.827376 -0.136069
C11   C     C_R   0.182921 0.492015 0.088751 -0.124412
C12   C     C_R   0.768106 0.414594 0.163994 -0.156540
C13   C     C_R   0.992076 0.341008 0.759261 -0.189985
C14   C     C_R   0.256488 0.543464 0.065768 0.084549
C15   C     C_R   0.948295 0.264367 0.759379 -0.073742
C16   C     C_R   0.258363 0.457891 0.747895 0.088391
C17   C     C_R   0.031362 0.224812 0.003927 -0.008054
C18   C     C_R   0.037181 0.143349 0.626179 0.464361
C19   C     C_R   0.954403 0.190392 0.684853 -0.074501
C20   C     C_R   0.878092 0.169090 0.671604 -0.295009
C21   C     C_R   0.882071 0.098089 0.598561 0.137598
C22   C     C_R   0.964097 0.049322 0.538660 -0.017665
C23   C     C_R   0.805241 0.560272 0.960450 -0.217477
C24   C     C_R   0.042105 0.073226 0.551764 0.033708
C25   C     C_R   0.805385 0.074954 0.584797 -0.178336
C26   C     C_R   0.809279 0.002416 0.511923 -0.175820
C27   C     C_R   0.889670 0.952617 0.453160 0.152955
C28   C     C_R   0.967764 0.975852 0.466264 0.024675
C29   C     C_R   0.049201 0.925186 0.407356 -0.030175
C30   C     C_R   0.127172 0.952614 0.418869 -0.222001
C31   C     C_R   0.123450 0.025685 0.490811 -0.095563
C32   C     C_R   0.893490 0.879882 0.381155 -0.348071
C33   C     C_R   0.973172 0.830327 0.324735 -0.005011
C34   C     C_R   0.960502 0.671466 0.248454 -0.119928
C35   C     C_R   0.050414 0.849248 0.337384 0.455288
C36   C     C_R   0.424607 0.412703 0.667911 0.440395
C37   C     C_R   0.339648 0.410711 0.669277 -0.105342
C38   C     C_R   0.333646 0.370641 0.591843 -0.161166
C39   C     C_R   0.410043 0.349619 0.514483 -0.058664
C40   C     C_R   0.494489 0.369197 0.514710 -0.086194
C41   C     C_R   0.502362 0.396408 0.590694 0.098782
C42   C     C_R   0.402232 0.315362 0.437961 0.459634
C43   C     C_R   0.478727 0.309337 0.362376 0.348267
C44   C     C_R   0.560520 0.343196 0.365945 -0.076354
C45   C     C_R   0.737851 0.483066 0.038581 0.505223
C46   C     C_R   0.570055 0.366950 0.440315 -0.009788
C47   C     C_R   0.653610 0.394043 0.442087 0.018131
C48   C     C_R   0.662899 0.408156 0.514489 -0.221482
C49   C     C_R   0.587929 0.409933 0.588154 -0.128518
C50   C     C_R   0.629506 0.361713 0.299733 -0.287326
C51   C     C_R   0.709068 0.399265 0.304151 0.028618
C52   C     C_R   0.724138 0.409549 0.372897 0.506756
C53   C     C_R   0.636772 0.593317 0.052456 0.123102
C54   C     C_R   0.322442 0.574856 0.100134 0.096132
C55   C     C_R   0.399497 0.554819 0.168956 -0.152996
C56   C     C_R   0.031639 0.751023 0.171217 -0.039939
C57   C     C_R   0.323805 0.543828 0.155336 -0.159207
C58   C     C_R   0.391629 0.628036 0.069049 -0.180615
C59   C     C_R   0.470476 0.632933 0.076205 0.068803
C60   C     C_R   0.475400 0.592330 0.123625 0.087325
C61   C     C_R   0.558260 0.578806 0.115813 -0.235276
C62   C     C_R   0.631210 0.645022 0.014638 -0.347423
C63   C     C_R   0.547608 0.667257 0.027937 0.507743
C64   C     C_R   0.836236 0.178987 0.140151 0.083280
C65   C     C_R   0.958921 0.861364 0.994171 0.069642
C66   C     C_R   0.874446 0.945848 0.974556 -0.105594
C67   C     C_R   0.842555 0.488418 0.240339 -0.097369
C68   C     C_R   0.914415 0.866142 0.950939 -0.160019
C69   C     C_R   0.965290 0.939503 0.060113 -0.106824
C70   C     C_R   0.925012 0.020727 0.085211 0.007105
C71   C     C_R   0.878545 0.024207 0.041916 -0.100166
C72   C     C_R   0.833951 0.104936 0.070371 0.325720
C73   C     C_R   0.883244 0.177295 0.181824 0.253218
C74   C     C_R   0.926550 0.096898 0.155884 0.308663
C75   C     C_R   0.962529 0.690507 0.934660 -0.108594
C76   C     C_R   0.988200 0.773737 0.978297 0.052834
H1    H     H_    0.078042 0.806759 0.039612 0.099700
H2    H     H_    0.150965 0.407786 0.705935 0.110973
H3    H     H_    0.093238 0.321911 0.084505 0.107351
H4    H     H_    0.305979 0.543967 0.845640 0.148107
H5    H     H_    0.159696 0.470582 0.139442 0.095355
H6    H     H_    0.013151 0.366768 0.711713 0.143729
H7    H     H_    0.815913 0.207829 0.718474 0.164743
H8    H     H_    0.742559 0.112659 0.630470 0.136598
H9    H     H_    0.731961 0.361142 0.135556 0.178508
H10   H     H_    0.184535 0.044256 0.498562 0.187111
H11   H     H_    0.269381 0.362209 0.590930 0.193388
H12   H     H_    0.617179 0.354997 0.248166 0.171570
H13   H     H_    0.818023 0.601452 0.927648 0.127507
H14   H     H_    0.596816 0.426546 0.644238 0.179562
H15   H     H_    0.559836 0.548703 0.153347 0.148832
H16   H     H_    0.690983 0.663703 0.970720 0.128322
H17   H     H_    0.389730 0.656451 0.030096 0.173526
H18   H     H_    0.926915 0.652055 0.300992 0.099031
H19   H     H_    0.837725 0.943581 0.941093 0.124735
H20   H     H_    0.907726 0.807601 0.900022 0.109488
H21   H     H_    0.998001 0.936133 0.094848 0.164742
H22   H     H_    0.065601 0.805065 0.154303 0.103453
H23   H     H_    0.872078 0.508847 0.283504 0.160253
H24   H     H_    0.933526 0.676054 0.891962 0.083197
H25   H     H_    0.286348 0.620809 0.990320 0.103023
N1    N     N_R   0.036080 0.671900 0.995420 -0.043809
N2    N     N_R   0.954660 0.334720 0.880230 -0.077558
N3    N     N_R   0.116260 0.502360 0.832930 -0.043538
N4    N     N_R   0.012950 0.371090 0.051890 -0.051002
N5    N     N_R   0.963920 0.328100 0.004580 -0.040053
N6    N     N_R   0.165290 0.545350 0.880240 -0.046756
N7    N     N_R   0.132570 0.490700 0.051900 -0.046686
N8    N     N_R   0.996640 0.382750 0.832930 -0.076510
N9    N     N_R   0.834710 0.454650 0.119760 -0.054616
N10   N     N_R   0.867430 0.509300 0.948100 -0.068009
N11   N     N_R   0.003360 0.617250 0.167070 -0.046885
N12   N     N_R   0.825450 0.461270 0.995400 -0.073114
N13   N     N_R   0.045340 0.665280 0.119770 -0.049012
N14   N     N_R   0.883740 0.497640 0.167070 -0.064378
N15   N     N_R   0.987050 0.628910 0.948110 -0.040191
N16   N     N_R   0.174550 0.538730 0.004600 -0.047327
Ni1   Ni    Ni4+2 0.104370 0.604370 0.000010 0.220810
Ni2   Ni    Ni4+2 0.895630 0.395630 0.999990 0.290597
Ni3   Ni    Ni4+2 0.991920 0.505780 0.891500 0.203410
Ni4   Ni    Ni4+2 0.008080 0.494220 0.108500 0.220228
O1    O     O_3   0.865941 0.205820 0.868904 -0.763632
H26   H     H_    0.849587 0.160275 0.824293 0.320126
H27   H     H_    0.944734 0.189409 0.939409 0.171650
O2    O     O_3   0.113607 0.163754 0.639378 -0.767007
H28   H     H_    0.097653 0.199523 0.700308 0.319545
H29   H     H_    0.749483 0.984812 0.501803 0.133548
H30   H     H_    0.834928 0.861214 0.368890 0.156525
O3    O     O_3   0.124980 0.792251 0.280078 -0.757516
H31   H     H_    0.152975 0.786088 0.312074 0.311393
H32   H     H_    0.191690 0.918752 0.372660 0.155640
O4    O     O_3   0.433682 0.432065 0.740083 -0.776555
H33   H     H_    0.380730 0.409266 0.777002 0.318407
O5    O     O_3   0.318943 0.289453 0.439502 -0.750451
H34   H     H_    0.322794 0.268097 0.382054 0.371957
O6    O     O_3   0.470704 0.273428 0.287360 -0.753217
H35   H     H_    0.528564 0.243277 0.239984 0.341223
O7    O     O_3   0.806519 0.436110 0.372094 -0.749202
H36   H     H_    0.796451 0.483175 0.428871 0.293621
H37   H     H_    0.726980 0.421513 0.516552 0.151196
H38   H     H_    0.402173 0.525065 0.206968 0.137841
O8    O     O_3   0.540842 0.713962 0.987741 -0.758996
H39   H     H_    0.601365 0.732419 0.956241 0.320510
H40   H     H_    0.269739 0.505836 0.183239 0.122156
O9    O     O_3   0.787464 0.115374 0.032689 -0.714337
H41   H     H_    0.817434 0.078206 0.970919 0.325324
O10   O     O_3   0.887124 0.256130 0.245739 -0.699341
H42   H     H_    0.943208 0.255517 0.249845 0.335370
O11   O     O_3   0.967824 0.089900 0.199585 -0.752964
H43   H     H_    0.938304 0.132930 0.259743 0.333942
O12   O     O_3   0.674839 0.434463 0.078127 -0.752333
H44   H     H_    0.655273 0.471102 0.139643 0.285733

loop_
_geom_bond_atom_site_label_1
_geom_bond_atom_site_label_2
_ccdc_geom_bond_type
C66   C68   A    
C55   H38   S    
N5    Ni2   S    
C34   N11   A    
C73   C74   A    
C3    C23   A    
C19   C20   A    
C56   H22   S    
C49   H14   S    
C43   C44   A    
C2    C12   A    
C8    N4    A    
C12   N9    A    
O9    H41   S    
C36   C41   A    
C11   H5    S    
C40   C46   A    
C26   C27   A    
C29   C30   A    
C65   C76   S    
C12   H9    S    
C73   O10   S    
N14   Ni4   S    
C28   C29   A    
C58   H17   S    
C36   O4    S    
C18   O2    S    
C38   C39   A    
C11   C14   A    
C65   C69   A    
C4    C33   S    
C30   H32   S    
C9    H27   S    
C1    H1    S    
C18   C19   A    
C67   N14   A    
C13   N8    A    
C6    C15   A    
N12   Ni2   S    
C53   C61   A    
O10   H42   S    
O4    H33   S    
C62   H16   S    
C70   C74   A    
C25   H8    S    
C52   O7    S    
C64   C73   A    
C23   H13   S    
C74   O11   S    
C70   C71   A    
C35   O3    S    
N6    Ni1   S    
N1    Ni1   S    
C67   H23   S    
C16   C37   S    
C55   C60   A    
C59   C60   A    
C31   H10   S    
C22   C28   A    
C21   C22   A    
C4    C56   A    
C10   N6    A    
C69   C70   A    
C41   C49   A    
C44   C46   A    
C39   C42   A    
C4    C34   A    
C5    H25   S    
C48   H37   S    
C51   C52   A    
C2    C67   A    
C2    C51   S    
C39   C40   A    
C10   H4    S    
C25   C26   A    
C13   H6    S    
C3    C45   A    
N15   Ni3   S    
C5    N16   A    
N10   Ni3   S    
C45   O12   S    
C47   C52   A    
C15   C19   S    
C75   C76   A    
C66   C71   A    
C37   C38   A    
C8    H3    S    
C53   C62   A    
C47   C48   A    
O12   H44   S    
C65   C68   A    
C62   C63   A    
C50   C51   A    
N4    Ni4   S    
N10   N12   A    
C68   H20   S    
C6    N2    A    
C5    C14   A    
N13   Ni1   S    
N2    Ni2   S    
C7    H2    S    
N11   N13   A    
C9    C17   A    
C40   C41   A    
C14   C54   S    
C7    N3    A    
C13   C15   A    
O2    H28   S    
C18   C24   A    
C42   C43   A    
C6    O1    S    
C11   N7    A    
C9    N5    A    
O3    H31   S    
C54   C58   A    
C44   C50   A    
C21   C25   A    
C46   C47   A    
C36   C37   A    
C57   H40   S    
C27   C32   A    
C1    C76   A    
N7    N16   A    
C7    C16   A    
C34   H18   S    
O6    H35   S    
N9    Ni2   S    
O5    H34   S    
C50   H12   S    
C23   N10   A    
N4    N5    A    
C29   C35   A    
C59   C63   A    
C8    C17   A    
C42   O5    S    
C38   H11   S    
N2    N8    A    
C32   C33   A    
C32   H30   S    
C55   C57   A    
C58   C59   A    
C24   C31   A    
N11   Ni4   S    
C10   C16   A    
O11   H43   S    
C3    C53   S    
C30   C31   A    
N7    Ni4   S    
C48   C49   A    
C1    N1    A    
C75   H24   S    
C33   C35   A    
C63   O8    S    
C22   C24   A    
C26   H29   S    
C64   C72   A    
C43   O6    S    
N1    N15   A    
O7    H36   S    
C45   N12   A    
C71   C72   A    
C20   C21   A    
C20   H7    S    
C27   C28   A    
C56   N13   A    
O8    H39   S    
C60   C61   A    
C75   N15   A    
C61   H15   S    
O1    H26   S    
N16   Ni1   S    
N9    N14   A    
N3    N6    A    
C72   O9    S    
N8    Ni3   S    
C66   H19   S    
N3    Ni3   S    
C54   C57   A    
C69   H21   S    
