data_mof_unit_50089.cif
_audit_creation_date              2012-10-26T21:05:42-0400
_audit_creation_method            fapswitch 2.2
_symmetry_space_group_name_H-M    P1
_symmetry_Int_Tables_number       1
_space_group_crystal_system       triclinic
_cell_length_a                    13.057998
_cell_length_b                    9.092772
_cell_length_c                    7.796801
_cell_angle_alpha                 90.001876
_cell_angle_beta                  96.178376
_cell_angle_gamma                 90.081311
_cell_volume                      920.362715138

loop_
_atom_site_label
_atom_site_type_symbol
_atom_type_description
_atom_site_fract_x
_atom_site_fract_y
_atom_site_fract_z
_atom_type_partial_charge
C1    C     C_R   0.500252 0.220083 0.500054 0.539103
C2    C     C_R   0.871334 0.510509 0.724002 0.045785
C3    C     C_R   0.136064 0.516799 0.588911 -0.164814
C4    C     C_R   0.865677 0.453264 0.418801 -0.134841
C5    C     C_R   0.029183 0.506910 0.583165 -0.016973
C6    C     C_R   0.972936 0.452215 0.432345 0.037271
C7    C     C_1   0.500120 0.065404 0.500017 -0.059294
C8    C     C_1   0.500022 0.934632 0.499995 -0.052682
C9    C     C_3   0.824156 0.493573 0.893357 -0.210192
C10   C     C_3   0.789208 0.333740 0.916584 -0.373472
C11   C     C_3   0.181943 0.363792 0.140709 -0.248707
C12   C     C_R   0.499974 0.779925 0.499995 0.559443
C13   C     C_3   0.239954 0.218672 0.171552 -0.428000
C14   C     C_R   0.300049 0.493015 0.467306 0.540424
C15   C     C_R   0.700252 0.495138 0.533740 0.537591
C16   C     C_R   0.813672 0.487550 0.560383 -0.053735
C17   C     C_R   0.187397 0.476164 0.447405 -0.029758
C18   C     C_R   0.023978 0.392459 0.299128 0.262638
C19   C     C_R   0.977653 0.539145 0.729482 0.238338
C20   C     C_R   0.131293 0.411827 0.299084 0.023162
Cu1   Cu    Cu3+1 0.500010 0.500000 0.669080 0.991482
Cu2   Cu    Cu3+1 0.499990 0.500000 0.330920 0.995261
H1    H     H_    0.821966 0.424160 0.298073 0.172591
H2    H     H_    0.281308 0.192626 0.058126 0.153398
H3    H     H_    0.124321 0.349419 0.026506 0.191648
H4    H     H_    0.232381 0.451142 0.097384 0.185665
H5    H     H_    0.010543 0.221479 0.150284 0.322868
H6    H     H_    0.077099 0.669607 0.851352 0.316953
H7    H     H_    0.181008 0.555310 0.704769 0.147839
H8    H     H_    0.728870 0.297414 0.815015 0.165544
H9    H     H_    0.855004 0.257544 0.910731 0.185595
H10   H     H_    0.757698 0.320888 0.042126 0.156924
H11   H     H_    0.880234 0.520739 0.005729 0.228544
H12   H     H_    0.760680 0.572803 0.903351 0.157792
H13   H     H_    0.296734 0.224602 0.287556 0.178395
H14   H     H_    0.185166 0.127989 0.189831 0.132438
N1    N     N_1   0.499980 0.500000 0.076820 -0.091259
N2    N     N_1   0.500020 0.500000 0.923180 -0.092406
O1    O     O_R   0.500000 0.288400 0.642760 -0.499970
O2    O     O_3   0.029568 0.590947 0.881079 -0.733350
O3    O     O_R   0.500000 0.711600 0.357240 -0.489761
O4    O     O_R   0.500000 0.288400 0.357240 -0.503321
O5    O     O_R   0.500000 0.711600 0.642760 -0.492678
O6    O     O_R   0.349000 0.500000 0.619590 -0.507383
O7    O     O_R   0.651000 0.500000 0.380410 -0.506028
O8    O     O_R   0.348990 0.500000 0.334020 -0.511192
O9    O     O_R   0.651010 0.500000 0.665980 -0.516473
O10   O     O_3   0.967858 0.306551 0.177457 -0.750402

loop_
_geom_bond_atom_site_label_1
_geom_bond_atom_site_label_2
_ccdc_geom_bond_type
H5    O10   S    
C4    C16   A    
C3    C17   A    
N1    N2    T    
C5    C19   A    
Cu1   O6    S    
C2    C16   A    
C9    C10   S    
C10   H8    S    
Cu1   O1    S    
C15   O9    A    
C8    C12   S    
Cu2   O7    S    
Cu2   N1    S    
C7    C8    T    
C14   O8    A    
Cu2   O4    S    
Cu1   Cu2   S    
C9    H11   S    
C11   C13   S    
C14   C17   S    
C12   O3    A    
C5    C6    A    
C4    C6    A    
Cu2   O8    S    
C13   H13   S    
C12   O5    A    
C18   C20   A    
C9    H12   S    
C6    C18   A    
C11   C20   S    
Cu2   O3    S    
C19   O2    S    
H6    O2    S    
C15   C16   S    
C11   H3    S    
C10   H10   S    
C1    O4    A    
C17   C20   A    
C13   H14   S    
C14   O6    A    
C3    H7    S    
C4    H1    S    
C1    O1    A    
C11   H4    S    
Cu1   O9    S    
C2    C19   A    
C1    C7    S    
C2    C9    S    
C10   H9    S    
Cu1   O5    S    
Cu1   N2    S    
C13   H2    S    
C3    C5    A    
C15   O7    A    
C18   O10   S    
