data_mof_unit_13851.cif
_audit_creation_date              2012-12-10T16:48:46-0500
_audit_creation_method            fapswitch 2.2
_symmetry_space_group_name_H-M    P1
_symmetry_Int_Tables_number       1
_space_group_crystal_system       triclinic
_cell_length_a                    17.304511
_cell_length_b                    8.786708
_cell_length_c                    7.430668
_cell_angle_alpha                 102.862029
_cell_angle_beta                  90.546163
_cell_angle_gamma                 93.512382
_cell_volume                      1099.10132187

loop_
_atom_site_label
_atom_site_type_symbol
_atom_type_description
_atom_site_fract_x
_atom_site_fract_y
_atom_site_fract_z
_atom_type_partial_charge
C1    C     C_R   0.496697 0.200419 0.454517 0.825760
C2    C     C_R   0.503305 0.799581 0.545482 0.825738
C3    C     C_2   0.488314 0.034114 0.431956 -0.277681
C4    C     C_2   0.511692 0.965886 0.568040 -0.277684
C5    C     C_R   0.351391 0.499266 0.524928 0.799485
C6    C     C_R   0.648610 0.500742 0.475074 0.799461
C7    C     C_R   0.267255 0.495226 0.534878 -0.187845
C8    C     C_R   0.732749 0.504792 0.465130 -0.187878
C9    C     C_R   0.223163 0.376763 0.409025 -0.049714
C10   C     C_R   0.776838 0.623201 0.591066 -0.049687
C11   C     C_R   0.144260 0.390576 0.382765 0.091177
C12   C     C_R   0.855739 0.609367 0.617326 0.091135
C13   C     C_R   0.109091 0.521310 0.485527 0.014397
C14   C     C_R   0.890911 0.478674 0.514477 0.014410
C15   C     C_R   0.151405 0.634333 0.619677 0.174944
C16   C     C_R   0.848603 0.365728 0.380229 0.174941
C17   C     C_R   0.230946 0.621987 0.644605 0.078473
C18   C     C_R   0.769063 0.378091 0.355301 0.078430
C19   C     C_2   0.026606 0.536994 0.456483 -0.061711
C20   C     C_2   0.973395 0.462975 0.543508 -0.061732
Cu1   Cu    Cu3+1 0.508700 0.517250 0.683000 0.985564
Cu2   Cu    Cu3+1 0.491300 0.482750 0.317000 0.985559
H1    H     H_    0.439348 0.378734 0.957545 0.232234
H2    H     H_    0.560651 0.621266 0.042455 0.232232
N1    N     N_2   0.478180 0.456750 0.041980 -0.205062
N2    N     N_2   0.521820 0.543250 0.958020 -0.205065
O1    O     O_R   0.505650 0.286040 0.618880 -0.585843
O2    O     O_R   0.494350 0.713960 0.381120 -0.585845
O3    O     O_R   0.490960 0.256910 0.309800 -0.570669
O4    O     O_R   0.509040 0.743090 0.690200 -0.570660
O5    O     O_R   0.394600 0.516230 0.672450 -0.592281
O6    O     O_R   0.605400 0.483770 0.327550 -0.592300
O7    O     O_R   0.379910 0.487100 0.363380 -0.574088
O8    O     O_R   0.620090 0.512900 0.636620 -0.574091
C21   C     C_1   0.258704 0.240989 0.303051 0.314508
N3    N     N_1   0.286880 0.132556 0.218139 -0.271366
C22   C     C_1   0.741295 0.758939 0.697111 0.314538
N4    N     N_1   0.713112 0.867342 0.782073 -0.271345
N5    N     N_3   0.725827 0.257188 0.224739 -0.568764
H3    H     H_    0.682218 0.207250 0.293899 0.227067
H4    H     H_    0.700261 0.307729 0.126179 0.262352
N6    N     N_3   0.274191 0.742975 0.775045 -0.568804
H5    H     H_    0.299766 0.692541 0.873690 0.262370
H6    H     H_    0.317793 0.792854 0.705805 0.227014
C23   C     C_1   0.994887 0.368790 0.671114 0.269308
N7    N     N_1   0.012005 0.293600 0.772943 -0.287044
C24   C     C_1   0.005115 0.631194 0.328895 0.269402
N8    N     N_1   0.987997 0.706397 0.227082 -0.287037
N9    N     N_3   0.113178 0.763119 0.727592 -0.582842
H7    H     H_    0.120574 0.761894 0.867073 0.254596
H8    H     H_    0.139989 0.867110 0.705536 0.253505
N10   N     N_3   0.886840 0.237015 0.272198 -0.582843
H9    H     H_    0.879467 0.238390 0.132755 0.254582
H10   H     H_    0.860018 0.132978 0.294091 0.253529
N11   N     N_3   0.899245 0.727076 0.751908 -0.562251
H11   H     H_    0.943362 0.777910 0.685265 0.250899
H12   H     H_    0.924397 0.673463 0.848208 0.248158
N12   N     N_3   0.100753 0.272803 0.248257 -0.562259
H13   H     H_    0.075586 0.326345 0.151909 0.248178
H14   H     H_    0.056648 0.221981 0.314946 0.250890
C25   C     C_1   0.449526 0.949032 0.260774 0.347917
N13   N     N_1   0.418875 0.882047 0.124433 -0.253136
C26   C     C_1   0.550485 0.050966 0.739215 0.347896
N14   N     N_1   0.581141 0.117950 0.875549 -0.253123

loop_
_geom_bond_atom_site_label_1
_geom_bond_atom_site_label_2
_ccdc_geom_bond_type
C1    C3    S    
C6    O6    A    
Cu1   N2    S    
N6    H6    S    
C22   N4    T    
Cu2   O3    S    
C14   C20   S    
C11   N12   S    
Cu1   O5    S    
Cu1   O4    S    
C2    C4    S    
C19   C20   D    
C13   C15   A    
C12   C14   A    
C2    O4    A    
C6    O8    A    
N11   H11   S    
C1    O3    A    
Cu1   O1    S    
N5    H4    S    
C16   C18   A    
Cu2   O2    S    
Cu1   Cu2   S    
C15   N9    S    
C20   C23   S    
C9    C11   A    
C4    C26   S    
Cu2   O6    S    
C21   N3    T    
Cu2   O7    S    
C10   C22   S    
C10   C12   A    
C8    C10   A    
N1    N2    D    
N10   H10   S    
C5    C7    S    
N11   H12   S    
C25   N13   T    
C14   C16   A    
C5    O5    A    
C12   N11   S    
C2    O2    A    
N6    H5    S    
C13   C19   S    
C3    C25   S    
N12   H14   S    
C3    C4    D    
C24   N8    T    
C7    C9    A    
C11   C13   A    
H1    N1    S    
N10   H9    S    
C1    O1    A    
N9    H7    S    
C19   C24   S    
N5    H3    S    
C15   C17   A    
C18   N5    S    
C17   N6    S    
C9    C21   S    
C6    C8    S    
Cu1   O8    S    
N9    H8    S    
N12   H13   S    
C23   N7    T    
C8    C18   A    
C16   N10   S    
H2    N2    S    
C26   N14   T    
C7    C17   A    
Cu2   N1    S    
C5    O7    A    
