data_mof_unit_33004.cif
_audit_creation_date              2013-03-05T15:50:45-0500
_audit_creation_method            fapswitch 2.2
_symmetry_space_group_name_H-M    P1
_symmetry_Int_Tables_number       1
_space_group_crystal_system       triclinic
_cell_length_a                    14.299794
_cell_length_b                    14.826532
_cell_length_c                    33.192155
_cell_angle_alpha                 97.870183
_cell_angle_beta                  90.429623
_cell_angle_gamma                 118.819073
_cell_volume                      6085.66685168

loop_
_atom_site_label
_atom_site_type_symbol
_atom_site_description
_atom_site_fract_x
_atom_site_fract_y
_atom_site_fract_z
_atom_type_partial_charge
O1    O     O_R   0.318160 0.824460 0.443680 -0.516044
O2    O     O_R   0.525040 0.857250 0.449830 -0.499723
C1    C     C_R   0.616871 0.910530 0.436872 0.546552
O3    O     O_R   0.684760 0.998800 0.456360 -0.511457
O4    O     O_R   0.647540 0.166310 0.470260 -0.499513
C2    C     C_R   0.593798 0.205084 0.456475 0.547794
O5    O     O_R   0.500960 0.181750 0.467450 -0.514710
O6    O     O_R   0.331100 0.981120 0.457080 -0.500219
C3    C     C_R   0.296043 0.892894 0.434213 0.544331
O7    O     O_R   0.315560 0.821140 0.532010 -0.517326
O8    O     O_R   0.522630 0.854180 0.531710 -0.507741
C4    C     C_R   0.614643 0.905342 0.551656 0.559651
O9    O     O_R   0.682160 0.995480 0.544690 -0.471653
O10   O     O_R   0.645130 0.163230 0.552140 -0.494470
C5    C     C_R   0.589862 0.199509 0.570963 0.544827
O11   O     O_R   0.498360 0.178430 0.555780 -0.514814
O12   O     O_R   0.328690 0.978040 0.538950 -0.499545
C6    C     C_R   0.289021 0.886919 0.548520 0.546082
Cr1   Cr    Cr6+3 0.424820 0.846020 0.489780 1.027022
Cr2   Cr    Cr6+3 0.657880 0.078580 0.505700 1.052637
Cr3   Cr    Cr6+3 0.417280 0.075360 0.504550 1.031057
O13   O     O_3   0.499990 0.999990 0.500010 -0.247828
C7    C     C_R   0.735344 0.443242 0.104067 0.015000
C8    C     C_R   0.644533 0.418443 0.125920 -0.105957
C9    C     C_R   0.643244 0.394269 0.165007 -0.079263
C10   C     C_R   0.732009 0.393411 0.182527 0.059573
C11   C     C_R   0.820762 0.413002 0.160317 -0.059104
C12   C     C_R   0.822457 0.437735 0.121173 -0.096975
C13   C     C_R   0.709839 0.283563 0.237093 0.224918
C14   C     C_R   0.704124 0.275867 0.278712 -0.108131
C15   C     C_R   0.720542 0.361058 0.307882 0.002887
C16   C     C_R   0.749765 0.457799 0.296085 0.124614
C17   C     C_R   0.756134 0.466630 0.254872 -0.127071
C18   C     C_R   0.734099 0.380162 0.225279 -0.022309
C19   C     C_R   0.593615 0.318910 0.362106 0.121673
C20   C     C_R   0.563813 0.281884 0.398919 -0.097290
C21   C     C_R   0.738064 0.296131 0.411578 -0.128103
C22   C     C_R   0.768643 0.334203 0.375026 -0.126243
C23   C     C_R   0.695828 0.342969 0.349663 0.057819
C24   C     C_R   0.634035 0.266149 0.423078 -0.000311
H1    H     H_    0.576314 0.422084 0.113593 0.164418
H2    H     H_    0.893586 0.456728 0.105066 0.161543
H3    H     H_    0.847029 0.351536 0.365432 0.128294
H4    H     H_    0.681365 0.201625 0.288431 0.160357
H5    H     H_    0.574396 0.379268 0.182145 0.145737
H6    H     H_    0.775804 0.540749 0.245683 0.143129
H7    H     H_    0.483041 0.258628 0.407089 0.150663
H8    H     H_    0.889809 0.412759 0.173839 0.154515
H9    H     H_    0.793836 0.284961 0.429707 0.136540
H10   H     H_    0.191769 0.721653 0.300675 0.144247
H11   H     H_    0.231527 0.725929 0.373028 0.134544
C25   C     C_R   0.246807 0.878544 0.392773 0.021174
C26   C     C_R   0.238549 0.961026 0.379578 -0.116245
C27   C     C_R   0.216686 0.958515 0.338208 -0.104231
C28   C     C_R   0.201998 0.873358 0.309574 0.039358
C29   C     C_R   0.203231 0.788068 0.322648 -0.090926
C30   C     C_R   0.225287 0.790428 0.363997 -0.119276
C31   C     C_R   0.205168 0.803708 0.160970 0.231156
C32   C     C_R   0.179973 0.787194 0.118508 0.082279
C33   C     C_R   0.119475 0.915873 0.128035 0.052158
C34   C     C_R   0.145366 0.932273 0.170041 -0.140580
C35   C     C_R   0.181454 0.872134 0.186772 -0.019371
C36   C     C_1   0.188667 0.876809 0.230418 0.051096
C37   C     C_1   0.193672 0.876334 0.266636 0.024445
C38   C     C_R   0.124835 0.834244 0.102335 -0.022021
H12   H     H_    0.255106 0.030273 0.400838 0.136018
H13   H     H_    0.134244 0.990209 0.189863 0.155399
H14   H     H_    0.215777 0.024879 0.328403 0.134069
H15   H     H_    0.809148 0.012190 0.188925 0.192604
H16   H     H_    0.830295 0.979450 0.328917 0.121083
H17   H     H_    0.806712 0.995090 0.402041 0.136932
C39   C     C_R   0.637364 0.880785 0.394949 0.024932
C40   C     C_R   0.551525 0.808532 0.366616 -0.113133
C41   C     C_R   0.565362 0.800600 0.324910 -0.087832
C42   C     C_R   0.665046 0.864100 0.311188 0.042667
C43   C     C_R   0.752651 0.930646 0.339285 -0.100290
C44   C     C_R   0.739045 0.938854 0.380968 -0.109422
C45   C     C_R   0.757913 0.937435 0.170200 -0.061782
C46   C     C_R   0.765058 0.923661 0.127685 0.189214
C47   C     C_R   0.617370 0.745593 0.122796 0.061233
C48   C     C_R   0.610025 0.762465 0.164637 -0.082352
C49   C     C_R   0.683885 0.855204 0.188613 -0.016567
C50   C     C_1   0.681313 0.863837 0.232110 0.031389
C51   C     C_1   0.675499 0.865064 0.268288 0.014336
C52   C     C_R   0.703653 0.822240 0.104461 0.004825
H18   H     H_    0.472132 0.763396 0.376343 0.134454
H19   H     H_    0.547677 0.701523 0.178733 0.166768
H20   H     H_    0.497200 0.748372 0.303289 0.140494
H21   H     H_    0.846707 0.390284 0.904463 0.148518
H22   H     H_    0.827852 0.340048 0.830349 0.168959
H23   H     H_    0.791600 0.270130 0.692251 0.146477
H24   H     H_    0.763736 0.229851 0.617697 0.162337
C53   C     C_R   0.623098 0.249581 0.614032 0.017581
C54   C     C_R   0.556677 0.278714 0.636862 -0.101631
C55   C     C_R   0.572842 0.301319 0.679359 -0.072318
C56   C     C_R   0.655651 0.295534 0.699414 0.055817
C57   C     C_R   0.726905 0.274207 0.676905 -0.085200
C58   C     C_R   0.711096 0.251802 0.634376 -0.113726
C59   C     C_R   0.760865 0.339399 0.845609 -0.089739
C60   C     C_R   0.771031 0.367382 0.887940 -0.114910
C61   C     C_R   0.591413 0.345122 0.885303 -0.112358
C62   C     C_R   0.581475 0.317073 0.842969 -0.103866
C63   C     C_R   0.667768 0.318319 0.823015 0.032831
C64   C     C_1   0.664814 0.308765 0.779432 0.005503
C65   C     C_1   0.661993 0.303404 0.742952 0.013743
C66   C     C_R   0.688381 0.375650 0.907984 0.018803
H25   H     H_    0.488409 0.277959 0.622136 0.138230
H26   H     H_    0.508878 0.300375 0.825631 0.134856
H27   H     H_    0.526312 0.350648 0.899754 0.151645
H28   H     H_    0.517754 0.318507 0.696630 0.127932
C67   C     C_R   0.064835 0.751603 0.907946 -0.035203
C68   C     C_R   0.110624 0.852253 0.898150 -0.096107
C69   C     C_R   0.132164 0.868380 0.858167 0.079042
C70   C     C_R   0.104801 0.782450 0.827245 0.044643
C71   C     C_R   0.061652 0.680729 0.837167 0.227499
C72   C     C_R   0.044581 0.667028 0.877784 -0.102494
C73   C     C_R   0.197187 0.782192 0.763327 0.265924
C74   C     C_R   0.199933 0.787595 0.721634 -0.088448
C75   C     C_R   0.130217 0.811974 0.701682 -0.011593
C76   C     C_R   0.056599 0.831158 0.723317 -0.081019
C77   C     C_R   0.050875 0.823329 0.764600 -0.096239
C78   C     C_R   0.120559 0.799015 0.784771 0.064564
C79   C     C_R   0.173171 0.920281 0.646926 -0.103557
C80   C     C_R   0.213833 0.939458 0.609114 -0.116204
C81   C     C_R   0.178011 0.760387 0.593071 -0.119467
C82   C     C_R   0.138166 0.741623 0.630839 -0.098027
C83   C     C_R   0.140811 0.822914 0.658649 0.038042
C84   C     C_R   0.221994 0.861086 0.582938 0.020763
H29   H     H_    0.127106 0.918057 0.921430 0.165258
H30   H     H_    0.007024 0.588769 0.885197 0.159962
H31   H     H_    0.112492 0.665830 0.639561 0.140024
H32   H     H_    0.258809 0.775788 0.704775 0.139702
H33   H     H_    0.002893 0.850582 0.708136 0.155117
H34   H     H_    0.991169 0.835008 0.780872 0.137564
H35   H     H_    0.175733 0.983744 0.668304 0.124910
H36   H     H_    0.246330 0.017505 0.601840 0.135815
H37   H     H_    0.181438 0.697986 0.573125 0.137946
C85   C     C_R   0.661178 0.739617 0.911373 0.030421
C86   C     C_R   0.612006 0.645972 0.883504 -0.137742
C87   C     C_R   0.590639 0.646634 0.842610 -0.105863
C88   C     C_R   0.617183 0.740815 0.829001 0.021715
C89   C     C_R   0.656722 0.832897 0.857506 -0.077216
C90   C     C_R   0.678752 0.832957 0.898547 0.094698
C91   C     C_R   0.578843 0.808383 0.769902 -0.073299
C92   C     C_R   0.588084 0.822516 0.729344 -0.138306
C93   C     C_R   0.633252 0.774521 0.703086 -0.001612
C94   C     C_R   0.667105 0.708375 0.717365 0.219807
C95   C     C_R   0.656507 0.694391 0.758428 -0.102521
C96   C     C_R   0.614352 0.745518 0.784947 -0.006642
C97   C     C_R   0.556923 0.733384 0.631727 -0.094135
C98   C     C_R   0.553899 0.766423 0.594734 -0.142302
C99   C     C_R   0.726696 0.921736 0.615241 0.087127
C100  C     C_R   0.728167 0.887735 0.652363 -0.061847
C101  C     C_R   0.642054 0.795911 0.661140 0.051003
C102  C     C_R   0.635463 0.863356 0.586667 0.023699
H38   H     H_    0.597603 0.573198 0.892625 0.134568
H39   H     H_    0.794528 0.935389 0.675287 0.141125
H40   H     H_    0.560987 0.872333 0.718387 0.131413
H41   H     H_    0.545181 0.847711 0.789686 0.172191
H42   H     H_    0.558135 0.574340 0.821268 0.129303
H43   H     H_    0.686059 0.647456 0.770273 0.149272
H44   H     H_    0.489827 0.662206 0.638385 0.135203
H45   H     H_    0.483806 0.718507 0.573474 0.139485
H46   H     H_    0.676524 0.906185 0.847569 0.132153
O14   O     O_R   0.828710 0.851830 0.052170 -0.439277
O15   O     O_R   0.005980 0.823990 0.047210 -0.472260
C103  C     C_R   0.055571 0.782826 0.063155 0.558320
O16   O     O_R   0.031900 0.688850 0.050170 -0.486968
O17   O     O_R   0.830940 0.518420 0.048680 -0.497244
C104  C     C_R   0.743793 0.486186 0.066023 0.547910
O18   O     O_R   0.668160 0.499860 0.053480 -0.493765
O19   O     O_R   0.689170 0.693840 0.050110 -0.482645
C105  C     C_R   0.739961 0.789943 0.065687 0.573954
O20   O     O_R   0.803860 0.812940 0.962540 -0.473942
O21   O     O_R   0.982950 0.787950 0.964120 -0.498147
C106  C     C_R   0.021229 0.731707 0.947416 0.545522
O22   O     O_R   0.007050 0.649970 0.960540 -0.501905
O23   O     O_R   0.807910 0.482370 0.965590 -0.500302
C107  C     C_R   0.711989 0.437140 0.949310 0.543641
O24   O     O_R   0.643310 0.460980 0.963840 -0.508710
O25   O     O_R   0.666140 0.657800 0.967020 -0.500394
C108  C     C_R   0.709801 0.739782 0.950491 0.559979
Cr4   Cr    Cr6+3 0.903360 0.812540 0.006510 1.119403
Cr5   Cr    Cr6+3 0.914630 0.587050 0.006280 1.069567
Cr6   Cr    Cr6+3 0.673560 0.582680 0.008540 1.079765
O26   O     O_3   0.830520 0.660760 0.007110 -0.276711
I1    I     I_    0.239062 0.702040 0.079302 -0.129515
N1    N     N_R   0.251541 0.748691 0.177933 0.095913
O27   O     O_R   0.204376 0.647366 0.170173 -0.302592
O28   O     O_R   0.335770 0.798893 0.203928 -0.308946
I2    I     I_    0.080099 0.022978 0.106876 -0.180729
N2    N     N_R   0.828777 0.013392 0.108543 0.116569
O29   O     O_R   0.900272 0.100182 0.130463 -0.284391
O30   O     O_R   0.799612 0.016117 0.071689 -0.255597
I3    I     I_    0.489789 0.602084 0.091476 -0.221016
N3    N     N_R   0.271780 0.759598 0.783135 0.087896
O31   O     O_R   0.308324 0.799399 0.821034 -0.317548
O32   O     O_R   0.311371 0.706995 0.762223 -0.330943
I4    I     I_    0.205577 0.024480 0.846542 -0.351562
N4    N     N_R   0.030598 0.590449 0.806453 0.088883
O33   O     O_R   0.983669 0.581904 0.771303 -0.322199
O34   O     O_R   0.036578 0.510536 0.815421 -0.320291
N5    N     N_R   0.687739 0.192595 0.207894 0.097779
O35   O     O_R   0.695696 0.116136 0.219629 -0.340217
O36   O     O_R   0.651698 0.181210 0.170392 -0.279008
I5    I     I_    0.740509 0.977075 0.938838 -0.216952
N6    N     N_R   0.713313 0.656653 0.691415 0.076371
O37   O     O_R   0.761407 0.694379 0.659735 -0.326101
O38   O     O_R   0.714136 0.574809 0.701045 -0.331146
I6    I     I_    0.864372 0.063950 0.607780 -0.365919
I7    I     I_    0.781268 0.591476 0.338818 -0.347638
I8    I     I_    0.476004 0.324123 0.324508 -0.355168

loop_
_geom_bond_atom_site_label_1
_geom_bond_atom_site_label_2
_geom_bond_distance
_ccdc_geom_bond_type
C11   H8    1.083304 S    
C31   C35   1.405640 A    
C59   C63   1.397168 A    
N5    O35   1.301681 A    
C82   C83   1.398925 A    
C13   N5    1.443866 S    
C62   C63   1.398335 A    
O17   C104  1.274620 A    
C66   C107  1.476646 S    
C55   C56   1.397993 A    
H17   C44   1.083080 S    
C42   C43   1.396949 A    
O20   C108  1.269707 A    
C57   C58   1.395901 A    
C88   C96   1.474591 S    
C79   C80   1.394038 A    
O4    Cr2   1.923368 S    
O25   C108  1.274503 A    
C76   C77   1.390628 A    
N5    O36   1.300972 A    
O8    Cr1   1.915569 S    
C10   C11   1.398510 A    
C47   C52   1.425839 A    
O15   Cr4   1.916896 S    
C95   H43   1.083220 S    
C82   H31   1.083671 S    
C21   C22   1.392590 A    
C69   C70   1.408881 A    
C21   C24   1.404878 A    
C85   C90   1.409705 A    
C89   H46   1.082851 S    
O4    C2    1.274022 A    
C47   C48   1.390945 A    
C42   C51   1.434173 S    
C90   I5    2.124770 S    
C27   H14   1.083603 S    
C104  O18   1.269614 A    
C61   H27   1.082987 S    
C5    O11   1.271398 A    
C29   C30   1.397860 A    
C20   H7    1.082989 S    
N1    O28   1.301313 A    
C76   H33   1.083428 S    
C40   C41   1.396901 A    
C45   C49   1.396464 A    
C74   C75   1.402194 A    
C64   C65   1.201636 T    
C28   C29   1.399792 A    
C39   C44   1.408333 A    
C6    C84   1.467236 S    
C88   C89   1.404560 A    
C10   C18   1.460994 S    
O23   Cr5   1.916606 S    
C94   C95   1.404937 A    
Cr5   O26   1.975153 S    
N4    O33   1.301316 A    
O16   Cr5   2.033107 S    
C81   C84   1.404702 A    
C52   C105  1.495395 S    
C7    C8    1.405159 A    
C32   I1    2.143927 S    
C67   C72   1.400095 A    
H11   C30   1.082926 S    
C98   C102  1.411229 A    
C77   H34   1.083745 S    
O19   Cr6   1.920388 S    
O9    Cr2   2.038575 S    
C80   C84   1.405162 A    
C36   C37   1.204927 T    
Cr3   O13   1.975121 S    
C56   C57   1.397760 A    
C17   H6    1.083907 S    
C14   H4    1.084023 S    
H15   C45   1.083122 S    
C54   C55   1.395145 A    
C3    C25   1.481151 S    
C8    H1    1.082969 S    
C68   C69   1.391171 A    
C48   C49   1.388190 A    
C32   C38   1.422315 A    
C43   C44   1.395569 A    
C87   C88   1.400816 A    
C22   C23   1.398946 A    
C97   H44   1.083501 S    
C54   H25   1.082975 S    
O1    Cr1   2.032451 S    
C41   C42   1.399667 A    
C80   H36   1.083079 S    
H21   C60   1.083035 S    
H24   C58   1.082644 S    
C67   C106  1.460463 S    
O14   Cr4   2.039061 S    
C61   C62   1.395580 A    
O23   C107  1.275144 A    
C20   C24   1.403835 A    
Cr1   O13   1.974487 S    
O1    C3    1.274158 A    
C8    C9    1.390441 A    
N3    O32   1.301507 A    
C25   C30   1.407144 A    
Cr4   O26   1.975415 S    
C103  O16   1.272946 A    
C16   I7    2.121960 S    
O25   Cr6   1.919137 S    
C45   C46   1.409561 A    
N3    O31   1.301271 A    
C81   H37   1.083123 S    
C9    C10   1.398574 A    
C26   C27   1.397512 A    
C31   N1    1.436600 S    
C13   C18   1.415016 A    
H10   C29   1.083668 S    
N6    O37   1.301009 A    
C79   H35   1.083398 S    
N1    O27   1.301051 A    
C19   C20   1.393559 A    
N2    O30   1.301562 A    
C19   C23   1.407446 A    
C73   C78   1.412838 A    
O17   Cr5   1.921367 S    
C13   C14   1.401371 A    
O18   Cr6   2.037337 S    
O10   Cr2   1.918204 S    
C21   H9    1.083062 S    
C34   H13   1.083761 S    
C79   C83   1.400741 A    
C50   C51   1.202574 T    
C93   C101  1.462847 S    
C99   C102  1.420811 A    
O7    Cr1   2.039787 S    
C75   C76   1.396033 A    
C28   C37   1.437738 S    
C35   C36   1.441360 S    
O12   C6    1.276435 A    
O6    C3    1.276201 A    
C53   C54   1.406991 A    
C7    C12   1.407472 A    
H23   C57   1.083629 S    
C91   H41   1.083232 S    
C94   N6    1.443161 S    
C26   H12   1.082986 S    
C77   C78   1.404830 A    
C48   H19   1.084246 S    
C106  O22   1.268285 A    
Cr2   O13   1.971806 S    
C33   C38   1.416346 A    
C98   H45   1.083002 S    
C46   N2    1.440607 S    
H16   C43   1.083584 S    
C81   C82   1.388152 A    
C68   H29   1.083348 S    
C2    C24   1.470309 S    
C4    C102  1.482636 S    
C1    O3    1.267875 A    
C9    H5    1.083630 S    
H22   C59   1.083491 S    
C46   C52   1.423321 A    
O19   C105  1.272783 A    
C56   C65   1.432447 S    
O21   Cr4   1.921329 S    
C93   C94   1.415045 A    
C15   C23   1.462171 S    
C61   C66   1.407222 A    
C47   I3    2.135363 S    
C99   I6    2.128707 S    
C27   C28   1.397951 A    
C67   C68   1.398366 A    
O2    Cr1   1.923235 S    
C89   C90   1.395674 A    
C15   C16   1.401303 A    
C92   C93   1.401734 A    
N6    O38   1.301829 A    
C39   C40   1.406326 A    
C55   H28   1.083699 S    
O6    Cr3   1.913510 S    
O20   Cr4   2.033191 S    
C5    C53   1.476346 S    
C86   C87   1.391489 A    
O11   Cr3   2.030193 S    
C70   C71   1.416218 A    
C2    O5    1.270348 A    
O3    Cr2   2.036232 S    
O22   Cr5   2.037439 S    
C71   N4    1.440367 S    
C38   C103  1.494862 S    
C60   C66   1.408418 A    
C97   C98   1.390614 A    
C19   I8    2.124171 S    
C91   C92   1.388104 A    
C16   C17   1.391474 A    
C7    C104  1.470673 S    
O2    C1    1.278611 A    
C31   C32   1.410313 A    
C22   H3    1.083482 S    
O21   C106  1.272947 A    
O5    Cr3   2.042243 S    
C59   C60   1.395205 A    
N2    O29   1.301755 A    
C92   H40   1.084133 S    
Cr6   O26   1.972759 S    
C14   C15   1.401326 A    
O15   C103  1.286684 A    
C86   H38   1.083722 S    
O7    C6    1.268494 A    
C33   I2    2.119806 S    
C12   H2    1.083013 S    
C17   C18   1.403108 A    
C1    C39   1.476261 S    
C95   C96   1.406627 A    
C100  H39   1.083614 S    
C34   C35   1.394518 A    
C85   C108  1.467421 S    
C91   C96   1.398545 A    
O12   Cr3   1.923848 S    
C40   H18   1.083144 S    
C74   H32   1.083955 S    
C85   C86   1.405381 A    
C62   H26   1.083702 S    
C107  O24   1.271665 A    
C70   C78   1.464552 S    
C72   H30   1.083815 S    
C4    O9    1.271088 A    
N4    O34   1.301388 A    
C49   C50   1.434180 S    
C97   C101  1.393141 A    
O24   Cr6   2.036904 S    
C63   C64   1.432388 S    
C73   N3    1.441034 S    
O10   C5    1.276525 A    
C33   C34   1.397411 A    
C99   C100  1.397405 A    
C69   I4    2.125024 S    
C41   H20   1.083673 S    
C100  C101  1.397301 A    
C73   C74   1.396844 A    
O14   C105  1.285469 A    
C53   C58   1.407739 A    
C87   H42   1.083300 S    
C71   C72   1.396610 A    
O8    C4    1.277548 A    
C25   C26   1.409408 A    
C11   C12   1.394840 A    
C75   C83   1.460307 S    
