data_mof_unit_15708.cif
_audit_creation_date              2012-12-10T20:42:39-0500
_audit_creation_method            fapswitch 2.2
_symmetry_space_group_name_H-M    P1
_symmetry_Int_Tables_number       1
_space_group_crystal_system       triclinic
_cell_length_a                    8.900975
_cell_length_b                    10.670757
_cell_length_c                    9.883274
_cell_angle_alpha                 89.585396
_cell_angle_beta                  90.031735
_cell_angle_gamma                 90.451699
_cell_volume                      938.660897907

loop_
_atom_site_label
_atom_site_type_symbol
_atom_type_description
_atom_site_fract_x
_atom_site_fract_y
_atom_site_fract_z
_atom_type_partial_charge
C1    C     C_R   0.506663 0.259913 0.500273 0.865542
C2    C     C_R   0.545584 0.936478 0.374715 -0.230864
C3    C     C_R   0.534410 0.871369 0.498039 -0.099735
C4    C     C_R   0.556358 0.934913 0.619086 0.078552
C5    C     C_3   0.473407 0.925390 0.750247 -0.480352
C6    C     C_3   0.476742 0.067869 0.751904 -0.028784
C7    C     C_R   0.406729 0.420871 0.072017 0.164680
C8    C     C_R   0.601135 0.569642 0.071367 -0.136497
C9    C     C_R   0.601180 0.569622 0.927558 -0.140815
C10   C     C_R   0.406118 0.421116 0.929377 0.156314
C11   C     C_3   0.237760 0.419129 0.924769 -0.060138
C12   C     C_R   0.218782 0.499819 0.499966 0.927642
C13   C     C_3   0.239197 0.417077 0.080247 -0.069218
C14   C     C_R   0.505950 0.740086 0.499477 0.877571
C15   C     C_R   0.781250 0.499933 0.500046 0.932425
C16   C     C_1   0.065453 0.499632 0.499979 -0.219579
C17   C     C_1   0.934606 0.499673 0.500061 -0.202103
C18   C     C_R   0.559142 0.063161 0.619960 0.137245
C19   C     C_R   0.536224 0.128903 0.499311 -0.134025
C20   C     C_R   0.546181 0.065954 0.375309 -0.218718
H1    H     H_    0.541564 0.115276 0.279188 0.174498
H2    H     H_    0.192072 0.504059 0.124090 0.163696
H3    H     H_    0.541058 0.888739 0.278404 0.170587
H4    H     H_    0.358165 0.885936 0.738225 0.183003
H5    H     H_    0.541776 0.879511 0.830503 0.208255
H6    H     H_    0.363921 0.110185 0.741302 0.164959
H7    H     H_    0.680659 0.628144 0.125086 0.148591
H8    H     H_    0.680747 0.628082 0.873001 0.149737
H9    H     H_    0.191759 0.507888 0.882665 0.160870
N1    N     N_R   0.499010 0.499140 0.142800 -0.116829
N2    N     N_R   0.499010 0.499180 0.857150 -0.119535
O1    O     O_R   0.500020 0.316790 0.614690 -0.618987
O2    O     O_R   0.500000 0.316760 0.385350 -0.617815
O3    O     O_R   0.285350 0.500020 0.614650 -0.619331
O4    O     O_R   0.285340 0.499980 0.385310 -0.620163
O5    O     O_R   0.500000 0.683240 0.614650 -0.618247
O6    O     O_R   0.499980 0.683210 0.385310 -0.626425
O7    O     O_R   0.714660 0.500020 0.614690 -0.618080
O8    O     O_R   0.714650 0.499980 0.385350 -0.616249
Zn1   Zn    Zn3+2 0.500010 0.500020 0.653130 0.931845
Zn2   Zn    Zn3+2 0.499990 0.499980 0.346870 0.935802
C21   C     C_3   0.172803 0.303064 0.854346 -0.832454
H10   H     H_    0.222075 0.215366 0.894416 0.235931
H11   H     H_    0.049193 0.299632 0.868932 0.240347
H12   H     H_    0.195865 0.307797 0.744290 0.251494
C22   C     C_3   0.181095 0.297739 0.151590 -0.811014
H13   H     H_    0.245759 0.213674 0.122097 0.228989
H14   H     H_    0.191808 0.307531 0.262672 0.252338
H15   H     H_    0.060449 0.283075 0.127678 0.240822
C23   C     C_3   0.572269 0.122607 0.866449 -0.857688
H16   H     H_    0.682692 0.075041 0.874141 0.239513
H17   H     H_    0.593051 0.223833 0.847928 0.263004
H18   H     H_    0.511592 0.111337 0.964004 0.229394

loop_
_geom_bond_atom_site_label_1
_geom_bond_atom_site_label_2
_ccdc_geom_bond_type
C5    H5    S    
C7    C10   A    
C23   H17   S    
C15   O7    A    
C3    C14   S    
C19   C20   A    
C7    C13   S    
C8    N1    A    
C2    C3    A    
C1    O2    A    
N1    Zn2   S    
C7    N1    A    
C6    C23   S    
C14   O6    A    
O7    Zn1   S    
C11   C13   S    
C22   H15   S    
C15   O8    A    
C6    H6    S    
C5    H4    S    
C21   H11   S    
O3    Zn1   S    
C4    C5    S    
C10   N2    A    
C13   H2    S    
C23   H16   S    
O2    Zn2   S    
O1    Zn1   S    
O6    Zn2   S    
C5    C6    S    
O4    Zn2   S    
C6    C18   S    
C22   H14   S    
C1    C19   S    
C23   H18   S    
C10   C11   S    
C9    N2    A    
C12   O3    A    
C3    C4    A    
O5    Zn1   S    
C20   H1    S    
C11   H9    S    
C11   C21   S    
O8    Zn2   S    
C18   C19   A    
C21   H10   S    
C2    H3    S    
C15   C17   S    
C8    H7    S    
C13   C22   S    
C16   C17   T    
C14   O5    A    
N2    Zn1   S    
C22   H13   S    
C2    C20   A    
C4    C18   A    
C1    O1    A    
C12   C16   S    
C9    H8    S    
C8    C9    A    
C12   O4    A    
C21   H12   S    
