data_mof_unit_6597.cif
_audit_creation_date              2012-12-10T17:40:59-0500
_audit_creation_method            fapswitch 2.2
_symmetry_space_group_name_H-M    P1
_symmetry_Int_Tables_number       1
_space_group_crystal_system       triclinic
_cell_length_a                    15.08308
_cell_length_b                    13.704795
_cell_length_c                    11.713301
_cell_angle_alpha                 90.001043
_cell_angle_beta                  89.832384
_cell_angle_gamma                 89.71263
_cell_volume                      2421.22171686

loop_
_atom_site_label
_atom_site_type_symbol
_atom_type_description
_atom_site_fract_x
_atom_site_fract_y
_atom_site_fract_z
_atom_type_partial_charge
C1    C     C_R   0.328563 0.500258 0.500762 0.812046
C2    C     C_R   0.671477 0.499784 0.500695 0.812225
C3    C     C_R   0.906301 0.585449 0.476184 0.086793
C4    C     C_R   0.093889 0.416814 0.536648 0.087941
C5    C     C_R   0.956216 0.330298 0.573534 0.155789
C6    C     C_R   0.043995 0.673722 0.445742 0.155379
C7    C     C_R   0.048924 0.332660 0.570195 -0.253098
C8    C     C_R   0.951295 0.670658 0.446405 -0.253459
C9    C     C_R   0.443228 0.793056 0.569452 0.018483
C10   C     C_R   0.555988 0.207025 0.429426 0.021066
C11   C     C_R   0.555789 0.792409 0.429222 0.023157
C12   C     C_R   0.442465 0.207536 0.568340 0.023184
C13   C     C_R   0.555686 0.895924 0.423279 -0.049025
C14   C     C_R   0.438087 0.104071 0.567999 -0.048322
C15   C     C_R   0.441110 0.896653 0.572488 -0.037402
C16   C     C_R   0.558524 0.103400 0.426683 -0.037079
C17   C     C_R   0.498379 0.948308 0.497736 0.000379
C18   C     C_R   0.498410 0.051710 0.497555 -0.001047
C19   C     C_R   0.611733 0.947336 0.345928 0.120816
C20   C     C_R   0.375795 0.052670 0.636827 0.126520
C21   C     C_R   0.382294 0.948831 0.646414 0.126091
C22   C     C_R   0.618146 0.051271 0.353700 0.129258
C23   C     C_R   0.500072 0.500003 0.283822 0.830105
C24   C     C_R   0.499889 0.500005 0.716177 0.828609
C25   C     C_1   0.500027 0.500022 0.162230 -0.189940
C26   C     C_1   0.499853 0.500027 0.837765 -0.188618
C27   C     C_1   0.499957 0.500044 0.059838 -0.003717
C28   C     C_1   0.499876 0.500047 0.940154 -0.003229
C29   C     C_R   0.814147 0.584421 0.474741 -0.224789
C30   C     C_R   0.186091 0.416721 0.533840 -0.225974
C31   C     C_R   0.768254 0.499578 0.503161 -0.074798
C32   C     C_R   0.231855 0.501016 0.502956 -0.075087
C33   C     C_R   0.814611 0.415225 0.535286 -0.252414
C34   C     C_R   0.185429 0.586372 0.475112 -0.255598
C35   C     C_R   0.907637 0.414390 0.539259 0.090916
C36   C     C_R   0.092457 0.588329 0.475389 0.088013
C37   C     C_R   0.953541 0.500529 0.507404 0.019836
C38   C     C_R   0.046587 0.502002 0.506529 0.020423
Cu1   Cu    Cu3+1 0.500000 0.597420 0.500000 0.934643
Cu2   Cu    Cu3+1 0.500000 0.402580 0.500000 0.935167
H1    H     H_    0.778026 0.649646 0.450091 0.145710
H2    H     H_    0.222334 0.351094 0.556962 0.143023
H3    H     H_    0.777098 0.351081 0.557776 0.165340
H4    H     H_    0.222887 0.650356 0.451886 0.167751
H5    H     H_    0.086591 0.268562 0.595349 0.136247
H6    H     H_    0.913751 0.735234 0.422669 0.143587
H7    H     H_    0.399762 0.749591 0.621663 0.146463
H8    H     H_    0.597904 0.250621 0.375305 0.148166
H9    H     H_    0.600893 0.748549 0.379197 0.144386
H10   H     H_    0.401279 0.251248 0.623844 0.144304
N1    N     N_R   0.500000 0.743810 0.500000 -0.191364
N2    N     N_R   0.500000 0.256190 0.500000 -0.192078
O1    O     O_R   0.370260 0.582280 0.500020 -0.593633
O2    O     O_R   0.629740 0.417720 0.499980 -0.591848
O3    O     O_R   0.629740 0.582280 0.499980 -0.588820
O4    O     O_R   0.370260 0.417720 0.500020 -0.589521
O5    O     O_R   0.500010 0.582270 0.337200 -0.579916
O6    O     O_R   0.499990 0.417730 0.662800 -0.579384
O7    O     O_R   0.499990 0.582270 0.662800 -0.577256
O8    O     O_R   0.500010 0.417730 0.337200 -0.577563
C39   C     C_3   0.912595 0.237628 0.616021 -0.417337
C40   C     C_3   0.878473 0.249636 0.738123 -0.820431
H11   H     H_    0.934384 0.266533 0.796285 0.253763
H12   H     H_    0.828463 0.309085 0.743917 0.251811
H13   H     H_    0.847147 0.180646 0.766707 0.239828
H14   H     H_    0.858267 0.215427 0.558533 0.198822
H15   H     H_    0.960594 0.175764 0.615299 0.197646
C41   C     C_3   0.087874 0.769012 0.412560 -0.414566
C42   C     C_3   0.119803 0.766633 0.288736 -0.822302
H16   H     H_    0.168416 0.706781 0.274649 0.251154
H17   H     H_    0.062616 0.756050 0.230545 0.253681
H18   H     H_    0.152084 0.836962 0.267348 0.238642
H19   H     H_    0.040290 0.830820 0.421508 0.198010
H20   H     H_    0.143391 0.786180 0.471127 0.188928
C43   C     C_3   0.660539 0.891466 0.251765 -0.403037
C44   C     C_3   0.753249 0.859808 0.289437 -0.846539
H21   H     H_    0.795633 0.924096 0.306005 0.257740
H22   H     H_    0.749607 0.815335 0.368439 0.238464
H23   H     H_    0.784772 0.815249 0.221207 0.242352
H24   H     H_    0.622485 0.826725 0.223985 0.188063
H25   H     H_    0.663681 0.933839 0.171354 0.188672
C45   C     C_3   0.299432 0.108230 0.693466 -0.422041
C46   C     C_3   0.323017 0.141549 0.814082 -0.823684
H26   H     H_    0.336901 0.078102 0.870082 0.256815
H27   H     H_    0.382281 0.189218 0.812658 0.248402
H28   H     H_    0.266597 0.183395 0.850963 0.239526
H29   H     H_    0.279120 0.172218 0.641621 0.179094
H30   H     H_    0.237675 0.064786 0.694223 0.186730
C47   C     C_3   0.329792 0.893617 0.737931 -0.420844
C48   C     C_3   0.390472 0.857193 0.833584 -0.822160
H31   H     H_    0.442125 0.806329 0.801334 0.252535
H32   H     H_    0.423648 0.919902 0.875300 0.252000
H33   H     H_    0.350437 0.818223 0.898760 0.239599
H34   H     H_    0.278125 0.937813 0.780335 0.216278
H35   H     H_    0.292552 0.832334 0.699412 0.178890
C49   C     C_3   0.689981 0.106828 0.287903 -0.402177
C50   C     C_3   0.762118 0.144236 0.368005 -0.858127
H36   H     H_    0.734860 0.195159 0.432731 0.244970
H37   H     H_    0.794293 0.082105 0.412809 0.252217
H38   H     H_    0.813365 0.183510 0.317893 0.243413
H39   H     H_    0.724865 0.062905 0.222928 0.215522
H40   H     H_    0.660286 0.167726 0.238437 0.182841

loop_
_geom_bond_atom_site_label_1
_geom_bond_atom_site_label_2
_ccdc_geom_bond_type
Cu1   N1    S    
Cu2   O8    S    
C20   C45   S    
C14   C18   A    
C9    N1    A    
C44   H23   S    
C10   N2    A    
C50   H36   S    
C21   C47   S    
C40   H11   S    
C7    H5    S    
C35   C37   A    
C1    O4    A    
C24   C26   S    
C49   H40   S    
C2    O3    A    
C41   H20   S    
C45   H29   S    
Cu1   O5    S    
C3    C29   A    
C47   H34   S    
C42   H17   S    
C1    O1    A    
C40   H12   S    
C50   H37   S    
C39   H14   S    
Cu1   O3    S    
C41   C42   S    
Cu2   O4    S    
C31   C33   A    
C43   H24   S    
C6    C41   S    
C49   H39   S    
C42   H16   S    
C4    C7    A    
C12   N2    A    
C23   O8    A    
Cu2   O6    S    
C13   C19   A    
C44   H22   S    
C33   H3    S    
C14   C20   A    
C19   C22   A    
C34   H4    S    
C44   H21   S    
C3    C8    A    
C2    O2    A    
Cu1   Cu2   S    
C5    C7    A    
C43   H25   S    
C6    C8    A    
C41   H19   S    
Cu2   N2    S    
C1    C32   S    
C2    C31   S    
C32   C34   A    
C47   H35   S    
C42   H18   S    
C43   C44   S    
C37   C38   A    
C11   H9    S    
C39   H15   S    
C48   H32   S    
C46   H26   S    
Cu1   O7    S    
C49   C50   S    
C17   C18   A    
C5    C39   S    
C23   O5    A    
C24   O6    A    
C46   H27   S    
C12   C14   A    
C9    H7    S    
Cu2   O2    S    
C10   H8    S    
C50   H38   S    
C48   H33   S    
C15   C17   A    
C16   C22   A    
C40   H13   S    
C29   H1    S    
C22   C49   S    
C4    C38   A    
C12   H10   S    
C25   C27   T    
C26   C28   T    
C13   C17   A    
C36   C38   A    
C9    C15   A    
C29   C31   A    
C10   C16   A    
C30   C32   A    
C11   C13   A    
C48   H31   S    
Cu1   O1    S    
C24   O7    A    
C45   H30   S    
C5    C35   A    
C19   C43   S    
C33   C35   A    
C6    C36   A    
C34   C36   A    
C23   C25   S    
C39   C40   S    
C8    H6    S    
C11   N1    A    
C15   C21   A    
C46   H28   S    
C20   C21   A    
C3    C37   A    
C16   C18   A    
C45   C46   S    
C27   C28   S    
C30   H2    S    
C47   C48   S    
C4    C30   A    
