data_mof_unit_31521.cif
_audit_creation_date              2013-03-05T16:05:41-0500
_audit_creation_method            fapswitch 2.2
_symmetry_space_group_name_H-M    P1
_symmetry_Int_Tables_number       1
_space_group_crystal_system       triclinic
_cell_length_a                    10.682886
_cell_length_b                    15.054294
_cell_length_c                    15.481377
_cell_angle_alpha                 82.714871
_cell_angle_beta                  89.677013
_cell_angle_gamma                 104.836274
_cell_volume                      2385.44617985

loop_
_atom_site_label
_atom_site_type_symbol
_atom_site_description
_atom_site_fract_x
_atom_site_fract_y
_atom_site_fract_z
_atom_type_partial_charge
O1    O     O_R   0.462770 0.383110 0.605620 -0.623768
O2    O     O_R   0.510160 0.531900 0.639510 -0.633714
C1    C     C_R   0.481407 0.441875 0.662213 0.844986
O3    O     O_R   0.661510 0.425600 0.483070 -0.614877
O4    O     O_R   0.708900 0.574390 0.516960 -0.550286
C2    C     C_R   0.742043 0.499729 0.501869 0.888741
Zn1   Zn    Zn3+2 0.468350 0.400660 0.477370 0.983019
Zn2   Zn    Zn3+2 0.531650 0.599340 0.522630 0.968371
O5    O     O_R   0.489840 0.468100 0.360490 -0.550531
O6    O     O_R   0.537230 0.616890 0.394380 -0.615241
O7    O     O_R   0.291100 0.425610 0.483040 -0.604368
O8    O     O_R   0.338490 0.574400 0.516930 -0.638610
C3    C     C_R   0.518366 0.558007 0.338226 0.924863
C4    C     C_R   0.257627 0.497612 0.504043 0.879850
C5    C     C_3   0.891113 0.395867 0.541103 0.858021
C6    C     C_3   0.036934 0.396781 0.537575 -0.522420
H1    H     H_    0.056208 0.345856 0.496838 0.173080
H2    H     H_    0.890997 0.492676 0.362371 0.009568
H3    H     H_    0.104309 0.483799 0.366502 0.106945
C7    C     C_3   0.944059 0.535133 0.410708 0.291028
C8    C     C_3   0.951618 0.564990 0.566288 -0.368706
C9    C     C_3   0.878636 0.497671 0.503598 -0.051375
H4    H     H_    0.947054 0.637376 0.544761 0.270927
C10   C     C_3   0.120769 0.496081 0.505901 0.039586
C11   C     C_3   0.086620 0.529876 0.412938 -0.476046
C12   C     C_3   0.093783 0.562421 0.568990 -0.416418
H5    H     H_    0.117114 0.538944 0.636696 0.179911
H6    H     H_    0.155092 0.634339 0.550250 0.216260
H7    H     H_    0.152971 0.599452 0.391043 0.211988
C13   C     C_R   0.473933 0.405770 0.755061 -0.048302
C14   C     C_R   0.548075 0.593614 0.246793 -0.291127
C15   C     C_R   0.407779 0.281360 0.874978 -0.172408
C16   C     C_R   0.418941 0.311830 0.785520 -0.199484
C17   C     C_R   0.522821 0.467132 0.814126 -0.250751
C18   C     C_R   0.520164 0.436918 0.903287 0.089818
C19   C     C_R   0.455108 0.344067 0.934293 0.089959
C20   C     C_R   0.572935 0.499143 0.962428 0.015353
C21   C     C_R   0.535167 0.474689 0.051335 -0.033533
C22   C     C_R   0.478608 0.379317 0.082747 0.547061
C23   C     C_R   0.438155 0.315602 0.023835 -0.365291
C24   C     C_R   0.665043 0.583946 0.935553 -0.236450
C25   C     C_R   0.709480 0.647370 0.993188 -0.170886
C26   C     C_R   0.656700 0.630473 0.078088 -0.005738
C27   C     C_R   0.562370 0.545819 0.105616 -0.093100
C28   C     C_R   0.694824 0.696913 0.135844 0.452973
C29   C     C_R   0.645673 0.674809 0.222087 -0.413708
C30   C     C_R   0.493552 0.537794 0.184577 0.520780
H8    H     H_    0.686644 0.719291 0.270066 0.207886
H9    H     H_    0.360649 0.209369 0.897777 0.134464
H10   H     H_    0.709272 0.599754 0.871195 0.136862
N1    N     N_R   0.573860 0.731700 0.552730 -0.177776
N2    N     N_R   0.426060 0.268290 0.447230 -0.156176
C31   C     C_R   0.709747 0.851346 0.623641 0.298524
C32   C     C_R   0.681146 0.762083 0.599319 0.526904
C33   C     C_R   0.497445 0.787982 0.524534 -0.182146
C34   C     C_R   0.535304 0.883881 0.532489 -0.044312
C35   C     C_R   0.641839 0.913929 0.585571 -0.022878
C36   C     C_R   0.473943 0.951067 0.489657 0.005379
C37   C     C_R   0.512738 0.044626 0.509937 0.047370
C38   C     C_R   0.618604 0.069900 0.563066 -0.238442
C39   C     C_R   0.683766 0.006941 0.597541 -0.161863
C40   C     C_R   0.382040 0.931484 0.423520 0.438386
C41   C     C_R   0.322213 0.998582 0.387611 -0.268551
C42   C     C_R   0.356766 0.087921 0.409756 0.026390
C43   C     C_R   0.450979 0.112438 0.471629 -0.013987
C44   C     C_R   0.300587 0.153909 0.366932 -0.391877
C45   C     C_R   0.336767 0.245733 0.385535 0.668580
C46   C     C_R   0.480405 0.204907 0.491295 -0.135806
H11   H     H_    0.544618 0.228726 0.541574 0.175755
H12   H     H_    0.251242 0.980934 0.338503 0.164163
H13   H     H_    0.659457 0.139853 0.575085 0.156946
O9    O     O_3   0.810853 0.321169 0.500740 -0.640689
C47   C     C_3   0.838189 0.317567 0.411944 0.043910
H14   H     H_    0.935693 0.357308 0.387923 0.103896
H15   H     H_    0.766539 0.343757 0.371531 0.167130
C48   C     C_3   0.824519 0.217410 0.398026 -0.874821
H16   H     H_    0.721246 0.178171 0.405103 0.270618
H17   H     H_    0.860702 0.214724 0.331320 0.203673
H18   H     H_    0.881435 0.184532 0.446068 0.260070
O10   O     O_3   0.939713 0.628758 0.387516 -0.582754
C49   C     C_3   0.958841 0.655727 0.296477 0.113172
H19   H     H_    0.869252 0.625482 0.263155 0.149803
H20   H     H_    0.040055 0.633017 0.268657 0.112393
C50   C     C_3   0.991217 0.760957 0.277992 -0.758240
H21   H     H_    0.079702 0.791790 0.312240 0.265380
H22   H     H_    0.009118 0.783453 0.206917 0.232911
H23   H     H_    0.909973 0.786525 0.301075 0.253761
H24   H     H_    0.392339 0.243835 0.048535 0.169532
O11   O     O_3   0.371159 0.477949 0.200060 -0.536996
C51   C     C_3   0.276407 0.528487 0.184938 0.080921
H25   H     H_    0.301850 0.596115 0.210995 0.119175
H26   H     H_    0.185278 0.487587 0.220257 0.152132
C52   C     C_3   0.248509 0.542938 0.088222 -0.908390
H27   H     H_    0.228378 0.475998 0.061250 0.264264
H28   H     H_    0.162729 0.571626 0.079801 0.222362
H29   H     H_    0.332452 0.592695 0.051429 0.250980
H30   H     H_    0.782238 0.710806 0.970075 0.182068
H31   H     H_    0.380954 0.262779 0.740628 0.153713
H32   H     H_    0.556766 0.539805 0.790411 0.135241
O12   O     O_3   0.849878 0.382577 0.631002 -0.650537
C53   C     C_3   0.819941 0.289087 0.670390 0.162400
H33   H     H_    0.881115 0.248331 0.643655 0.142158
H34   H     H_    0.716277 0.256181 0.661127 0.164542
C54   C     C_3   0.839912 0.286693 0.767708 -0.894343
H35   H     H_    0.776970 0.324462 0.796760 0.271087
H36   H     H_    0.814713 0.213706 0.799646 0.212553
H37   H     H_    0.942823 0.319780 0.779336 0.256531
O13   O     O_3   0.466210 0.345661 0.170666 -0.552337
C55   C     C_3   0.587310 0.337115 0.202064 0.141879
H38   H     H_    0.590247 0.349419 0.271272 0.180860
H39   H     H_    0.672407 0.388972 0.167626 0.093890
C56   C     C_3   0.600849 0.239271 0.198456 -0.929294
H40   H     H_    0.692538 0.231894 0.228005 0.221813
H41   H     H_    0.518412 0.187651 0.235045 0.271782
H42   H     H_    0.603025 0.225346 0.129848 0.249821
O14   O     O_3   0.793790 0.776098 0.111769 -0.622359
C57   C     C_3   0.744087 0.854676 0.109199 0.090510
H43   H     H_    0.699840 0.858889 0.173369 0.136370
H44   H     H_    0.670481 0.853431 0.058351 0.136157
C58   C     C_3   0.854409 0.941554 0.086542 -0.849611
H45   H     H_    0.902833 0.939499 0.023475 0.256302
H46   H     H_    0.816110 0.003921 0.081273 0.206693
H47   H     H_    0.926656 0.946242 0.138219 0.254389
H48   H     H_    0.768943 0.032620 0.633719 0.179326
O15   O     O_3   0.292870 0.316297 0.338608 -0.532188
C59   C     C_3   0.161610 0.287562 0.315990 0.125840
H49   H     H_    0.116954 0.344640 0.323717 0.141077
H50   H     H_    0.103214 0.226485 0.360005 0.096550
C60   C     C_3   0.150086 0.271093 0.220415 -0.803327
H51   H     H_    0.214389 0.228723 0.202167 0.263063
H52   H     H_    0.048362 0.235265 0.208602 0.184364
H53   H     H_    0.176639 0.337680 0.176787 0.281355
O16   O     O_3   0.815253 0.880494 0.674300 -0.584225
C61   C     C_3   0.771223 0.888623 0.758937 0.056608
H54   H     H_    0.743594 0.819767 0.799361 0.139830
H55   H     H_    0.685888 0.918447 0.758858 0.132730
C62   C     C_3   0.880066 0.951245 0.802893 -0.837755
H56   H     H_    0.909469 0.021255 0.764360 0.248416
H57   H     H_    0.846266 0.957945 0.869109 0.207624
H58   H     H_    0.965177 0.921527 0.808521 0.256658
O17   O     O_3   0.771666 0.710864 0.610572 -0.577562
C63   C     C_3   0.770314 0.669749 0.697912 0.161361
H59   H     H_    0.742503 0.593539 0.698499 0.158410
H60   H     H_    0.699270 0.686153 0.742084 0.069090
C64   C     C_3   0.906109 0.696322 0.733776 -0.851257
H61   H     H_    0.912439 0.647918 0.792952 0.198336
H62   H     H_    0.980753 0.693419 0.685012 0.259689
H63   H     H_    0.929446 0.767382 0.751545 0.283393
H64   H     H_    0.409271 0.755836 0.495680 0.239845
H65   H     H_    0.068020 0.374473 0.603553 0.172920
O18   O     O_3   0.351005 0.848651 0.389387 -0.635007
C65   C     C_3   0.432198 0.856735 0.314889 0.089372
H66   H     H_    0.533071 0.859112 0.334340 0.151868
H67   H     H_    0.432946 0.919663 0.268098 0.132968
C66   C     C_3   0.382270 0.772647 0.268008 -0.855639
H68   H     H_    0.283865 0.770990 0.244463 0.247173
H69   H     H_    0.447807 0.775831 0.211177 0.205501
H70   H     H_    0.377388 0.708422 0.313243 0.265645
H71   H     H_    0.231175 0.133178 0.318186 0.157992
H72   H     H_    0.907062 0.545913 0.633149 0.203742

loop_
_geom_bond_atom_site_label_1
_geom_bond_atom_site_label_2
_geom_bond_distance
_ccdc_geom_bond_type
C36   C40   1.427880 A    
C8    C12   1.529763 S    
C53   H33   1.114237 S    
C66   H69   1.109842 S    
C57   H43   1.113742 S    
C30   O11   1.384617 S    
C47   H14   1.096025 S    
C18   C19   1.412749 A    
C48   H18   1.110722 S    
C5    O12   1.431225 S    
C33   C34   1.417619 A    
C49   C50   1.521318 S    
C61   C62   1.521212 S    
C54   H36   1.110613 S    
C64   H61   1.109709 S    
C28   C29   1.399666 A    
O14   C57   1.411669 S    
Zn1   O7    2.026081 S    
C5    O9    1.442451 S    
C62   H57   1.110005 S    
C12   H5    1.113468 S    
C52   H27   1.110357 S    
C39   H48   1.082413 S    
O4    C2    1.308708 A    
C15   C19   1.403802 A    
C18   C20   1.409430 A    
C50   H22   1.109936 S    
Zn1   N2    2.042052 S    
C16   H31   1.082977 S    
C57   H44   1.114236 S    
C21   C22   1.427693 A    
O7    C4    1.301958 A    
C7    C11   1.545477 S    
C5    C6    1.554918 S    
C2    C9    1.467764 S    
O13   C55   1.415266 S    
C45   O15   1.392621 S    
C17   C18   1.395255 A    
C24   C25   1.386320 A    
C4    C10   1.456371 S    
O5    C3    1.308773 A    
C44   H71   1.079025 S    
C64   H62   1.107760 S    
C5    C9    1.607335 S    
C46   H11   1.075110 S    
C14   C29   1.397048 A    
C59   H50   1.114218 S    
O18   C65   1.412945 S    
C50   H23   1.109778 S    
N1    C33   1.356190 A    
N2    C46   1.354982 A    
C58   H47   1.110896 S    
O9    C47   1.414368 S    
C60   H53   1.105450 S    
C44   C45   1.404209 A    
C62   H56   1.110961 S    
C37   C38   1.403517 A    
C6    C10   1.549433 S    
C14   C30   1.390717 A    
C8    C9    1.558898 S    
C66   H70   1.109055 S    
C47   H15   1.109126 S    
C63   C64   1.530041 S    
O3    Zn1   2.005119 S    
C56   H41   1.110219 S    
C54   H35   1.111287 S    
C49   H20   1.113619 S    
C58   H46   1.110518 S    
C33   H64   1.071045 S    
C48   H16   1.107515 S    
C11   H7    1.114193 S    
C22   O13   1.384045 S    
C62   H58   1.110757 S    
C29   H8    1.082317 S    
C40   O18   1.378965 S    
C13   C17   1.390965 A    
C19   C23   1.394574 A    
C31   O16   1.386351 S    
C10   C11   1.542227 S    
O3    C2    1.289864 A    
C25   H30   1.083630 S    
C22   C23   1.397370 A    
C7    O10   1.422323 S    
C6    H1    1.108985 S    
C61   H55   1.114513 S    
C59   C60   1.531460 S    
C36   C37   1.438316 A    
C31   C32   1.400092 A    
C49   H19   1.109679 S    
C55   C56   1.524315 S    
C38   C39   1.371705 A    
O1    C1    1.303157 A    
C42   C44   1.389004 A    
C1    C13   1.465033 S    
C26   C27   1.421611 A    
C21   C27   1.417351 A    
C20   C21   1.407820 A    
C65   C66   1.518321 S    
C51   H26   1.107916 S    
C41   H12   1.085336 S    
Zn2   O8    2.005119 S    
C43   C46   1.419081 A    
C40   C41   1.389269 A    
C17   H32   1.075483 S    
C50   H21   1.110620 S    
C26   C28   1.409993 A    
Zn2   N1    2.041712 S    
N2    C45   1.365339 A    
Zn2   O6    1.968014 S    
C65   H67   1.115470 S    
C53   C54   1.520032 S    
C8    H4    1.111862 S    
O15   C59   1.417509 S    
C8    H72   1.108844 S    
C63   H60   1.112470 S    
C57   C58   1.520593 S    
C34   C35   1.419991 A    
C7    C9    1.567070 S    
C24   H10   1.072180 S    
C64   H63   1.105006 S    
C58   H45   1.109964 S    
C51   C52   1.527649 S    
C60   H51   1.107463 S    
C53   H34   1.109608 S    
Zn1   O5    1.941047 S    
C31   C35   1.405457 A    
C13   C16   1.403463 A    
O1    Zn1   1.968014 S    
C3    C14   1.451584 S    
O2    Zn2   1.941047 S    
C10   C12   1.557608 S    
C48   H17   1.109776 S    
O10   C49   1.414979 S    
O6    C3    1.299250 A    
O4    Zn2   2.026080 S    
C27   C30   1.398687 A    
C35   C39   1.393258 A    
C61   H54   1.109048 S    
C52   H29   1.109840 S    
C56   H40   1.108564 S    
C12   H6    1.113718 S    
C38   H13   1.072061 S    
N1    C32   1.366586 A    
C15   C16   1.397031 A    
C23   H24   1.084143 S    
C55   H39   1.116085 S    
O2    C1    1.311267 A    
O8    C4    1.292822 A    
O17   C63   1.412279 S    
C42   C43   1.406067 A    
C28   O14   1.383883 S    
C51   H25   1.112113 S    
O16   C61   1.419962 S    
C59   H49   1.102539 S    
O12   C53   1.415835 S    
C47   C48   1.520262 S    
C34   C36   1.437616 A    
H2    C7    1.109211 S    
C56   H42   1.109645 S    
C20   C24   1.410147 A    
H3    C11   1.107142 S    
C15   H9    1.083598 S    
C41   C42   1.388088 A    
C32   O17   1.381912 S    
C65   H66   1.113483 S    
C52   H28   1.110403 S    
C25   C26   1.394124 A    
C66   H68   1.109869 S    
C63   H59   1.107884 S    
C6    H65   1.113705 S    
O11   C51   1.417793 S    
C55   H38   1.109504 S    
C54   H37   1.110723 S    
C37   C43   1.423013 A    
C60   H52   1.110122 S    
