data_mof_unit_27866.cif
_audit_creation_date              2012-12-11T15:29:36-0500
_audit_creation_method            fapswitch 2.2
_symmetry_space_group_name_H-M    P1
_symmetry_Int_Tables_number       1
_space_group_crystal_system       triclinic
_cell_length_a                    21.477319
_cell_length_b                    7.308141
_cell_length_c                    14.585501
_cell_angle_alpha                 90.000019
_cell_angle_beta                  74.859855
_cell_angle_gamma                 90.0
_cell_volume                      2209.86673592

loop_
_atom_site_label
_atom_site_type_symbol
_atom_type_description
_atom_site_fract_x
_atom_site_fract_y
_atom_site_fract_z
_atom_type_partial_charge
O1    O     O_R   0.464160 0.506670 0.130070 -0.534325
O2    O     O_R   0.535840 0.006670 0.869930 -0.534325
O3    O     O_R   0.589710 0.179080 0.006710 -0.535551
O4    O     O_R   0.410290 0.679080 0.993290 -0.535551
C1    C     C_R   0.615473 0.343273 0.005787 0.677607
C2    C     C_R   0.384527 0.843273 0.994213 0.677608
O5    O     O_R   0.467940 0.177220 0.138010 -0.535460
O6    O     O_R   0.532060 0.677220 0.861990 -0.535460
O7    O     O_R   0.413200 0.002810 0.002170 -0.541764
O8    O     O_R   0.586800 0.502810 0.997830 -0.541764
C3    C     C_R   0.456549 0.345119 0.174727 0.689779
C4    C     C_R   0.543450 0.845119 0.825273 0.689779
O9    O     O_3   0.482180 0.337850 0.955280 -0.377491
O10   O     O_3   0.517820 0.837850 0.044720 -0.377491
V1    V     V_3+5 0.503310 0.064600 0.008300 1.386098
V2    V     V_3+5 0.496690 0.564600 0.991700 1.386099
C5    C     C_R   0.571071 0.849422 0.722230 -0.066324
C6    C     C_R   0.428929 0.349422 0.277769 -0.066324
C7    C     C_R   0.928643 0.867294 0.277768 -0.069092
C8    C     C_R   0.071357 0.367294 0.722232 -0.069092
C9    C     C_R   0.559344 0.804036 0.562713 0.171327
C10   C     C_R   0.440656 0.304036 0.437287 0.171327
C11   C     C_R   0.532163 0.818257 0.660862 -0.174636
C12   C     C_R   0.467837 0.318258 0.339138 -0.174636
C13   C     C_R   0.637637 0.866058 0.686501 -0.221147
C14   C     C_R   0.362363 0.366057 0.313498 -0.221147
C15   C     C_R   0.667641 0.848035 0.588205 0.050174
C16   C     C_R   0.332359 0.348035 0.411795 0.050174
C17   C     C_R   0.627370 0.817730 0.525985 0.128558
C18   C     C_R   0.372630 0.317730 0.474015 0.128558
C19   C     C_R   0.736305 0.857427 0.550227 0.075756
C20   C     C_R   0.263695 0.357427 0.449773 0.075756
C21   C     C_R   0.763915 0.839643 0.450270 0.076739
C22   C     C_R   0.236084 0.339643 0.549730 0.076739
C23   C     C_R   0.722023 0.808828 0.391663 -0.200561
C24   C     C_R   0.277977 0.308828 0.608337 -0.200561
C25   C     C_R   0.655808 0.798989 0.428480 -0.206582
C26   C     C_R   0.344192 0.298989 0.571520 -0.206582
C27   C     C_R   0.778325 0.882635 0.609133 -0.202166
C28   C     C_R   0.221675 0.382635 0.390867 -0.202166
C29   C     C_R   0.844402 0.896484 0.572225 -0.207389
C30   C     C_R   0.155597 0.396484 0.427775 -0.207389
C31   C     C_R   0.872630 0.885790 0.474390 0.128919
C32   C     C_R   0.127370 0.385790 0.525610 0.128919
C33   C     C_R   0.832461 0.854336 0.412105 0.051642
C34   C     C_R   0.167539 0.354336 0.587895 0.051641
C35   C     C_R   0.940344 0.907974 0.437508 0.170925
C36   C     C_R   0.059656 0.407973 0.562492 0.170925
C37   C     C_R   0.967340 0.900378 0.339183 -0.173618
C38   C     C_R   0.032660 0.400377 0.660817 -0.173619
C39   C     C_R   0.862380 0.842639 0.313537 -0.221853
C40   C     C_R   0.137620 0.342639 0.686463 -0.221852
H1    H     H_    0.835743 0.819758 0.261523 0.101955
H2    H     H_    0.164257 0.319759 0.738477 0.101955
H3    H     H_    0.873094 0.917282 0.622257 0.136879
H4    H     H_    0.126906 0.417282 0.377743 0.136879
H5    H     H_    0.480539 0.803205 0.690020 0.102298
H6    H     H_    0.519461 0.303206 0.309980 0.102298
H7    H     H_    0.762104 0.892271 0.685155 0.120641
H8    H     H_    0.237896 0.392272 0.314845 0.120641
C41   C     C_3   0.220731 0.692571 0.935343 0.030787
C42   C     C_3   0.779269 0.192571 0.064657 0.030788
H9    H     H_    0.195918 0.570406 0.974088 0.152079
H10   H     H_    0.804081 0.070406 0.025912 0.152078
C43   C     C_3   0.294196 0.683642 0.932005 0.040284
C44   C     C_3   0.705804 0.183642 0.067995 0.040284
H11   H     H_    0.322748 0.702019 0.857382 0.148853
H12   H     H_    0.677252 0.202019 0.142618 0.148853
H13   H     H_    0.172191 0.717949 0.127620 0.151805
H14   H     H_    0.827809 0.217949 0.872380 0.151805
C45   C     C_3   0.195740 0.846665 0.095166 -0.395982
C46   C     C_3   0.804260 0.346665 0.904834 -0.395982
C47   C     C_3   0.224863 0.038826 0.947461 -0.330570
C48   C     C_3   0.775137 0.538826 0.052539 -0.330571
C49   C     C_3   0.188052 0.863352 0.992778 0.036989
C50   C     C_3   0.811948 0.363352 0.007222 0.036989
H15   H     H_    0.204407 0.159634 0.991567 0.132314
H16   H     H_    0.795593 0.659634 0.008433 0.132314
H17   H     H_    0.216717 0.064220 0.876357 0.157927
H18   H     H_    0.783282 0.564221 0.123643 0.157927
C51   C     C_3   0.313479 0.845387 0.991637 0.065063
C52   C     C_3   0.686521 0.345387 0.008363 0.065063
C53   C     C_3   0.267982 0.852390 0.096135 0.004232
C54   C     C_3   0.732018 0.352390 0.903864 0.004232
C55   C     C_3   0.298496 0.025444 0.942239 -0.055234
C56   C     C_3   0.701504 0.525444 0.057761 -0.055234
H19   H     H_    0.169618 0.960603 0.139749 0.128399
H20   H     H_    0.830382 0.460603 0.860251 0.128399
O11   O     O_R   0.913210 0.208550 0.002110 -0.542320
O12   O     O_R   0.086790 0.708550 0.997890 -0.542320
O13   O     O_R   0.032060 0.539960 0.861980 -0.539394
O14   O     O_R   0.967940 0.039960 0.138020 -0.539394
C57   C     C_R   0.043697 0.372888 0.825169 0.698048
C58   C     C_R   0.956302 0.872888 0.174830 0.698048
O15   O     O_R   0.910290 0.538020 0.993280 -0.544134
O16   O     O_R   0.089710 0.038020 0.006720 -0.544134
O17   O     O_R   0.964160 0.712340 0.130090 -0.533036
O18   O     O_R   0.035840 0.212340 0.869910 -0.533036
C59   C     C_R   0.883763 0.370762 0.001831 0.676625
C60   C     C_R   0.116237 0.870762 0.998169 0.676624
O19   O     O_3   0.017820 0.379210 0.044690 -0.377866
O20   O     O_3   0.982180 0.879210 0.955310 -0.377866
V3    V     V_3+5 0.996690 0.652500 0.991710 1.385414
V4    V     V_3+5 0.003310 0.152500 0.008290 1.385414
H21   H     H_    0.627162 0.775295 0.378651 0.140163
H22   H     H_    0.372838 0.275295 0.621349 0.140163
C61   C     C_3   0.984346 0.944192 0.501182 -0.825497
H23   H     H_    0.035465 0.960259 0.460114 0.216249
H24   H     H_    0.969317 0.071526 0.542375 0.222215
H25   H     H_    0.981756 0.829080 0.551615 0.218437
C62   C     C_3   0.015654 0.444191 0.498818 -0.825497
H26   H     H_    0.964535 0.460258 0.539886 0.216249
H27   H     H_    0.030683 0.571526 0.457626 0.222215
H28   H     H_    0.018244 0.329080 0.448385 0.218438
C63   C     C_3   0.211230 0.679896 0.833950 -0.837924
H29   H     H_    0.233002 0.797964 0.789472 0.216723
H30   H     H_    0.234520 0.553473 0.798873 0.205807
H31   H     H_    0.159552 0.672596 0.834954 0.230688
C64   C     C_3   0.788770 0.179896 0.166050 -0.837924
H32   H     H_    0.766998 0.297964 0.210528 0.216722
H33   H     H_    0.765480 0.053473 0.201127 0.205807
H34   H     H_    0.840448 0.172596 0.165046 0.230688
C65   C     C_3   0.312217 0.488255 0.952968 -0.813133
H35   H     H_    0.303813 0.458841 0.029086 0.221152
H36   H     H_    0.282598 0.393427 0.923254 0.194697
H37   H     H_    0.362975 0.455632 0.915598 0.236106
C66   C     C_3   0.687783 0.988255 0.047032 -0.813133
H38   H     H_    0.696187 0.958841 0.970914 0.221152
H39   H     H_    0.717402 0.893427 0.076746 0.194697
H40   H     H_    0.637025 0.955632 0.084402 0.236106
C67   C     C_3   0.281526 0.714197 0.168583 -0.789693
H41   H     H_    0.260204 0.578282 0.162912 0.199349
H42   H     H_    0.333753 0.699984 0.162852 0.220189
H43   H     H_    0.258490 0.763934 0.241572 0.211807
C68   C     C_3   0.718474 0.214197 0.831417 -0.789693
H44   H     H_    0.739796 0.078281 0.837087 0.199349
H45   H     H_    0.666247 0.199984 0.837148 0.220190
H46   H     H_    0.741511 0.263933 0.758428 0.211807
C69   C     C_3   0.340614 0.054365 0.839141 -0.825528
H47   H     H_    0.326006 0.964396 0.787384 0.209991
H48   H     H_    0.335689 0.195942 0.815006 0.211220
H49   H     H_    0.392469 0.031281 0.833763 0.210814
C70   C     C_3   0.659385 0.554366 0.160859 -0.825529
H50   H     H_    0.673994 0.464397 0.212616 0.209991
H51   H     H_    0.664311 0.695942 0.184994 0.211220
H52   H     H_    0.607531 0.531282 0.166237 0.210814
H53   H     H_    0.310280 0.139330 0.984705 0.153788
H54   H     H_    0.689720 0.639330 0.015295 0.153788
H55   H     H_    0.276264 0.988157 0.125808 0.122162
H56   H     H_    0.723736 0.488157 0.874192 0.122162
H57   H     H_    0.018693 0.921230 0.309967 0.102464
H58   H     H_    0.981307 0.421228 0.690033 0.102464
C71   C     C_3   0.515138 0.770665 0.499045 -0.824589
H59   H     H_    0.463737 0.761737 0.539901 0.216373
H60   H     H_    0.519800 0.883671 0.446890 0.218722
H61   H     H_    0.528291 0.640554 0.459691 0.223288
C72   C     C_3   0.484862 0.270666 0.500955 -0.824589
H62   H     H_    0.536262 0.261738 0.460099 0.216373
H63   H     H_    0.480200 0.383671 0.553110 0.218723
H64   H     H_    0.471709 0.140554 0.540308 0.223288
H65   H     H_    0.664355 0.888322 0.738443 0.104458
H66   H     H_    0.335645 0.388321 0.261557 0.104458
H67   H     H_    0.738497 0.790149 0.316069 0.117881
H68   H     H_    0.261503 0.290149 0.683931 0.117881

loop_
_geom_bond_atom_site_label_1
_geom_bond_atom_site_label_2
_ccdc_geom_bond_type
C70   H52   S    
C44   H12   S    
C8    C57   S    
C54   C68   S    
O4    V2    S    
C72   H62   S    
C28   H8    S    
C68   H46   S    
C21   C33   A    
C62   H26   S    
O1    C3    A    
C46   C50   S    
C67   H43   S    
O2    C4    A    
C2    O7    A    
C68   H44   S    
C3    C6    S    
C67   H42   S    
C41   C49   S    
C50   C59   S    
O5    C3    A    
C5    C11   A    
C48   C50   S    
O11   C59   A    
C6    C12   A    
C23   C25   A    
C43   C65   S    
C69   H49   S    
O15   C59   A    
C65   H36   S    
C15   C17   A    
C33   C39   A    
C70   H50   S    
C34   C40   A    
C44   C66   S    
C18   C26   A    
C41   H9    S    
O6    V2    S    
H13   C45   S    
C29   H3    S    
C42   H10   S    
C46   H20   S    
C68   H45   S    
C40   H2    S    
C63   H30   S    
C6    C14   A    
C4    C5    S    
C41   C63   S    
C8    C38   A    
C61   H23   S    
C19   C21   A    
C22   C34   A    
C71   H60   S    
C55   C69   S    
C65   H35   S    
C30   H4    S    
C36   C38   A    
C72   H63   S    
C2    C51   S    
C48   H18   S    
C29   C31   A    
C42   C50   S    
O20   V3    S    
C30   C32   A    
O12   C60   A    
C51   C53   S    
O15   V3    S    
C56   C70   S    
C45   C53   S    
C64   H33   S    
C37   H57   S    
C15   C19   A    
C16   C20   A    
C27   C29   A    
C13   H65   S    
C42   C44   S    
C65   H37   S    
C32   C34   A    
C58   O17   A    
C43   H11   S    
C52   C56   S    
C9    C17   A    
C14   H66   S    
C23   H67   S    
C39   H1    S    
C20   C22   A    
C26   H22   S    
C66   H39   S    
C25   H21   S    
C41   C43   S    
O13   C57   A    
C7    C37   A    
C43   C51   S    
O6    C4    A    
C63   H31   S    
C27   H7    S    
C11   H5    S    
O14   C58   A    
C47   H17   S    
C62   H27   S    
O1    V2    S    
C46   C54   S    
C48   C56   S    
C71   H61   S    
O2    V1    S    
C31   C33   A    
C47   C55   S    
C42   C64   S    
O17   V3    S    
C7    C58   S    
C45   H19   S    
O4    C2    A    
O19   V4    S    
C52   C54   S    
C9    C11   A    
O11   V4    S    
C61   H25   S    
C10   C12   A    
C13   C15   A    
C47   C49   S    
C66   H38   S    
O3    V1    S    
C64   H34   S    
C70   H51   S    
O16   V4    S    
C47   H15   S    
C10   C18   A    
C14   C16   A    
C55   H53   S    
O13   V3    S    
C28   C30   A    
O3    C1    A    
C56   H54   S    
C69   H47   S    
C10   C72   S    
C72   H64   S    
C35   C37   A    
C35   C61   S    
C5    C13   A    
C16   C18   A    
C53   C67   S    
O7    V1    S    
C66   H40   S    
C1    O8    A    
C8    C40   A    
C32   C36   A    
O8    V2    S    
C24   C26   A    
C45   C49   S    
C1    C52   S    
C69   H48   S    
C63   H29   S    
C61   H24   S    
C7    C39   A    
O18   V4    S    
O16   C60   A    
O5    V1    S    
C49   C60   S    
C21   C23   A    
C19   C27   A    
C62   H28   S    
C22   C24   A    
C20   C28   A    
C67   H41   S    
O12   V3    S    
O14   V4    S    
C38   H58   S    
C36   C62   S    
C12   H6    S    
C64   H32   S    
C48   H16   S    
O9    V2    S    
C17   C25   A    
C24   H68   S    
C9    C71   S    
O10   V1    S    
H14   C46   S    
C71   H59   S    
C31   C35   A    
C57   O18   A    
C51   C55   S    
C44   C52   S    
C53   H55   S    
C54   H56   S    
