data_mof_unit_21082.cif
_audit_creation_date              2012-12-10T18:50:00-0500
_audit_creation_method            fapswitch 2.2
_symmetry_space_group_name_H-M    P1
_symmetry_Int_Tables_number       1
_space_group_crystal_system       triclinic
_cell_length_a                    10.657502
_cell_length_b                    9.908834
_cell_length_c                    10.639629
_cell_angle_alpha                 89.97499
_cell_angle_beta                  91.205225
_cell_angle_gamma                 90.009455
_cell_volume                      1123.3324994

loop_
_atom_site_label
_atom_site_type_symbol
_atom_type_description
_atom_site_fract_x
_atom_site_fract_y
_atom_site_fract_z
_atom_type_partial_charge
C1    C     C_R   0.260434 0.499984 0.499832 0.913881
C2    C     C_R   0.565928 0.928272 0.589600 -0.151209
C3    C     C_R   0.434314 0.928919 0.409427 0.486202
C4    C     C_R   0.434394 0.071181 0.409377 0.478543
C5    C     C_R   0.502391 0.500299 0.257960 0.878612
C6    C     C_R   0.739734 0.500007 0.500183 0.979161
C7    C     C_R   0.502700 0.500189 0.742162 0.925940
C8    C     C_3   0.528691 0.646846 0.073054 -0.441137
C9    C     C_3   0.374478 0.452202 0.070797 -0.466014
C10   C     C_3   0.531651 0.646843 0.929428 0.223640
C11   C     C_3   0.372219 0.457428 0.925888 0.220386
C12   C     C_3   0.606876 0.403091 0.930616 -0.418363
C13   C     C_3   0.608781 0.406653 0.074796 -0.413233
C14   C     C_3   0.503700 0.501445 0.121684 0.054992
C15   C     C_3   0.504204 0.500956 0.878704 -0.006825
C16   C     C_R   0.067285 0.408534 0.576701 -0.276587
C17   C     C_R   0.063996 0.591338 0.423143 -0.302277
C18   C     C_R   0.937620 0.408629 0.578625 0.382533
C19   C     C_R   0.934262 0.591287 0.421419 0.388609
C20   C     C_R   0.872609 0.500002 0.500101 -0.127414
C21   C     C_R   0.128340 0.499940 0.499878 -0.101795
C22   C     C_R   0.565890 0.071695 0.589637 -0.146810
H1    H     H_    0.452851 0.716213 0.103446 0.202037
H2    H     H_    0.114741 0.660065 0.363250 0.157654
H3    H     H_    0.618755 0.125547 0.661601 0.191306
H4    H     H_    0.618860 0.874414 0.661499 0.213190
H5    H     H_    0.618474 0.686241 0.114088 0.224005
H6    H     H_    0.355823 0.347977 0.104794 0.227693
H7    H     H_    0.343634 0.775128 0.345294 0.363920
H8    H     H_    0.343285 0.224754 0.345390 0.369843
H9    H     H_    0.716273 0.653209 0.928701 0.347801
H10   H     H_    0.382594 0.260416 0.908634 0.357121
H11   H     H_    0.933472 0.267226 0.706093 0.341765
H12   H     H_    0.298422 0.517594 0.107263 0.146715
H13   H     H_    0.924684 0.732494 0.293772 0.341358
H14   H     H_    0.455499 0.715574 0.895291 0.145909
H15   H     H_    0.302903 0.535749 0.895815 0.122099
H16   H     H_    0.702016 0.442732 0.110003 0.183583
H17   H     H_    0.595487 0.302258 0.110894 0.214657
H18   H     H_    0.700809 0.430399 0.894910 0.196552
H19   H     H_    0.589442 0.298039 0.898152 0.198118
H20   H     H_    0.120621 0.339786 0.636508 0.186581
N1    N     N_R   0.499970 0.857200 0.499970 -0.171835
N2    N     N_R   0.499970 0.142800 0.499970 -0.172369
O1    O     O_R   0.316750 0.614620 0.499990 -0.654123
O2    O     O_3   0.364505 0.133906 0.316273 -0.736382
O3    O     O_3   0.645462 0.699868 0.885198 -0.750622
O4    O     O_3   0.330232 0.334466 0.873268 -0.743986
O5    O     O_3   0.872794 0.323697 0.657558 -0.768928
O6    O     O_3   0.866072 0.676145 0.342484 -0.758682
O7    O     O_R   0.316750 0.385380 0.499990 -0.639224
O8    O     O_R   0.499970 0.614670 0.314790 -0.626616
O9    O     O_R   0.499970 0.385330 0.314790 -0.639065
O10   O     O_R   0.683220 0.614710 0.500010 -0.571547
O11   O     O_R   0.683220 0.385290 0.500010 -0.586552
O12   O     O_R   0.500010 0.614660 0.685200 -0.615245
O13   O     O_R   0.500010 0.385340 0.685200 -0.592911
O14   O     O_3   0.364043 0.866353 0.316562 -0.746305
Zn1   Zn    Zn3+2 0.499980 0.653120 0.500000 0.981805
Zn2   Zn    Zn3+2 0.499980 0.346880 0.500000 0.979847

loop_
_geom_bond_atom_site_label_1
_geom_bond_atom_site_label_2
_ccdc_geom_bond_type
C2    C22   A    
C10   H14   S    
C9    C14   S    
C12   C15   S    
C5    O8    A    
C1    C21   S    
C16   C21   A    
O8    Zn1   S    
C1    O7    A    
C6    O11   A    
C19   C20   A    
O12   Zn1   S    
N1    Zn1   S    
C2    N1    A    
C10   C15   S    
C3    N1    A    
H13   O6    S    
C7    C15   S    
C13   H16   S    
C2    H4    S    
H9    O3    S    
C13   C14   S    
H7    O14   S    
H10   O4    S    
C19   O6    S    
C1    O1    A    
C11   O4    S    
C12   H19   S    
C11   C15   S    
C7    O12   A    
N2    Zn2   S    
C16   C18   A    
C17   C19   A    
O9    Zn2   S    
C6    O10   A    
C18   C20   A    
O10   Zn1   S    
C9    C11   S    
C9    H12   S    
C4    O2    S    
C7    O13   A    
C13   H17   S    
C17   H2    S    
H11   O5    S    
C3    C4    A    
C3    O14   S    
C16   H20   S    
C8    H1    S    
C6    C20   S    
C12   C13   S    
C18   O5    S    
C8    C10   S    
C5    O9    A    
C10   O3    S    
C11   H15   S    
C8    H5    S    
C22   N2    A    
O1    Zn1   S    
O13   Zn2   S    
C8    C14   S    
O7    Zn2   S    
C4    N2    A    
O11   Zn2   S    
C5    C14   S    
H8    O2    S    
C17   C21   A    
C9    H6    S    
C22   H3    S    
C12   H18   S    
