data_mof_unit_23543.cif
_audit_creation_date              2012-10-26T19:52:28-0400
_audit_creation_method            fapswitch 2.2
_symmetry_space_group_name_H-M    P1
_symmetry_Int_Tables_number       1
_space_group_crystal_system       triclinic
_cell_length_a                    9.571586
_cell_length_b                    10.794747
_cell_length_c                    13.41878
_cell_angle_alpha                 90.544871
_cell_angle_beta                  72.407061
_cell_angle_gamma                 90.075343
_cell_volume                      1321.55713367

loop_
_atom_site_label
_atom_site_type_symbol
_atom_type_description
_atom_site_fract_x
_atom_site_fract_y
_atom_site_fract_z
_atom_type_partial_charge
C1    C     C_R   0.499900 0.737418 0.500246 0.540308
C2    C     C_R   0.373853 0.512602 0.815164 -0.013203
C3    C     C_R   0.370351 0.936648 0.537531 0.011754
C4    C     C_R   0.421480 0.506331 0.700117 0.528386
C5    C     C_R   0.500581 0.870541 0.495958 0.008278
C6    C     C_R   0.629138 0.934452 0.443229 -0.163012
C7    C     C_R   0.628823 0.063667 0.441716 -0.166020
C8    C     C_R   0.500374 0.129122 0.493612 0.008119
C9    C     C_R   0.370166 0.064155 0.535575 -0.005554
C10   C     C_3   0.261066 0.074560 0.641852 -0.251806
C11   C     C_3   0.258721 0.933288 0.643941 -0.130154
C12   C     C_R   0.433019 0.523250 0.980211 0.033246
C13   C     C_R   0.917708 0.394071 0.519418 0.154940
C14   C     C_R   0.931177 0.606793 0.487925 -0.026415
C15   C     C_R   0.079084 0.606920 0.488578 -0.022478
C16   C     C_R   0.500109 0.262487 0.499193 0.547477
C17   C     C_R   0.066166 0.393238 0.515866 0.157472
C18   C     C_3   0.093169 0.275095 0.452056 -0.145727
C19   C     C_3   0.931200 0.275187 0.460370 -0.257223
C20   C     C_R   0.578601 0.502201 0.300005 0.540121
C21   C     C_R   0.786299 0.607885 0.029576 -0.140942
C22   C     C_R   0.622740 0.519926 0.186811 -0.003468
C23   C     C_R   0.470653 0.549535 0.872038 0.019547
C24   C     C_R   0.232365 0.471298 0.869273 -0.144510
C25   C     C_R   0.188814 0.461053 0.977246 -0.158994
C26   C     C_R   0.287959 0.484634 0.032346 -0.134852
C27   C     C_3   0.313455 0.877585 0.730713 -0.249698
C28   C     C_3   0.200607 0.898302 0.838471 -0.306451
C29   C     C_3   0.252698 0.843891 0.925586 -0.450651
C30   C     C_3   0.193398 0.286312 0.338564 -0.238849
C31   C     C_3   0.199375 0.163451 0.278872 -0.324380
C32   C     C_3   0.301134 0.172066 0.167069 -0.455437
C33   C     C_R   0.541366 0.538350 0.032155 0.032466
C34   C     C_R   0.678351 0.592985 0.979133 0.049874
C35   C     C_R   0.704870 0.634357 0.877150 -0.144702
C36   C     C_R   0.602006 0.614423 0.824726 -0.126537
C37   C     C_R   0.518579 0.498599 0.134866 -0.135982
C38   C     C_R   0.758267 0.572206 0.133304 -0.144296
Cu1   Cu    Cu3+1 0.359330 0.500020 0.500010 0.913925
Cu2   Cu    Cu3+1 0.640670 0.499980 0.499990 0.917690
H1    H     H_    0.840063 0.589655 0.172577 0.124776
H2    H     H_    0.806074 0.681687 0.837367 0.100585
H3    H     H_    0.869918 0.199520 0.510556 0.113424
H4    H     H_    0.891019 0.649760 0.989528 0.107520
H5    H     H_    0.419679 0.451063 0.176873 0.109967
H6    H     H_    0.155442 0.445067 0.827933 0.135240
H7    H     H_    0.246480 0.474964 0.115982 0.097750
H8    H     H_    0.078561 0.431170 0.018362 0.120736
H9    H     H_    0.625747 0.653905 0.747771 0.142876
H10   H     H_    0.729784 0.884920 0.405124 0.118838
H11   H     H_    0.261452 0.741815 0.917044 0.172889
H12   H     H_    0.728886 0.111920 0.401884 0.112965
H13   H     H_    0.360860 0.883026 0.923738 0.154665
H14   H     H_    0.172273 0.866299 0.002523 0.139294
H15   H     H_    0.181095 0.999121 0.853947 0.164356
H16   H     H_    0.094891 0.854140 0.840090 0.155003
H17   H     H_    0.330426 0.776434 0.716168 0.156531
H18   H     H_    0.420186 0.919647 0.729481 0.150920
H19   H     H_    0.258652 0.241189 0.122828 0.157400
H20   H     H_    0.413284 0.198907 0.166845 0.153578
H21   H     H_    0.306962 0.080655 0.127360 0.146697
H22   H     H_    0.239909 0.088820 0.319677 0.166592
H23   H     H_    0.308732 0.119716 0.699031 0.136171
H24   H     H_    0.088009 0.137750 0.276402 0.158150
H25   H     H_    0.154963 0.362188 0.297684 0.143103
H26   H     H_    0.305808 0.308322 0.339158 0.204404
H27   H     H_    0.154890 0.114622 0.640839 0.110068
H28   H     H_    0.152986 0.893397 0.640486 0.128288
H29   H     H_    0.882197 0.693294 0.476203 0.115113
H30   H     H_    0.137816 0.693627 0.477757 0.121732
H31   H     H_    0.123369 0.197113 0.494534 0.131261
H32   H     H_    0.906499 0.286278 0.385066 0.146466
N1    N     N_R   0.852320 0.499070 0.499340 -0.231647
N2    N     N_R   0.148230 0.499110 0.499340 -0.233921
O1    O     O_R   0.381190 0.680360 0.500000 -0.508068
O2    O     O_R   0.618780 0.680320 0.499990 -0.522144
O3    O     O_R   0.323230 0.500000 0.650990 -0.500446
O4    O     O_R   0.560820 0.499960 0.650980 -0.494803
O5    O     O_R   0.381220 0.319680 0.500010 -0.509787
O6    O     O_R   0.618810 0.319640 0.500000 -0.503702
O7    O     O_R   0.439180 0.500040 0.349020 -0.515251
O8    O     O_R   0.676770 0.500000 0.349010 -0.499854

loop_
_geom_bond_atom_site_label_1
_geom_bond_atom_site_label_2
_ccdc_geom_bond_type
C20   O8    A    
C35   C36   A    
C28   H16   S    
C7    C8    A    
C10   H27   S    
C12   C23   A    
C1    C5    S    
Cu1   O3    S    
C28   C29   S    
C7    H12   S    
C18   C19   S    
C5    C6    A    
C29   H14   S    
C22   C38   A    
Cu2   N1    S    
C34   C35   A    
Cu1   N2    S    
C35   H2    S    
C21   C38   A    
C10   H23   S    
C8    C9    A    
Cu2   O6    S    
C18   C30   S    
Cu1   O1    S    
C9    C10   S    
C8    C16   S    
C20   O7    A    
C31   H22   S    
C19   H32   S    
C28   H15   S    
C19   H3    S    
C17   C18   S    
C13   C19   S    
C1    O1    A    
C14   N1    A    
Cu2   O8    S    
C24   C25   A    
Cu1   O7    S    
C38   H1    S    
C27   H17   S    
Cu1   Cu2   S    
C21   C34   A    
C25   C26   A    
C22   C37   A    
C33   C37   A    
Cu2   O2    S    
C12   C26   A    
C16   O6    A    
Cu1   O5    S    
C2    C4    S    
C4    O4    A    
C3    C9    A    
C21   H4    S    
C31   C32   S    
C11   C27   S    
C33   C34   A    
C6    H10   S    
C25   H8    S    
C30   H26   S    
C26   H7    S    
C13   N1    A    
C2    C24   A    
C17   N2    A    
C14   H29   S    
Cu2   O4    S    
C32   H20   S    
C37   H5    S    
C2    C23   A    
C11   H28   S    
C29   H11   S    
C18   H31   S    
C15   H30   S    
C1    O2    A    
C31   H24   S    
C20   C22   S    
C3    C5    A    
C27   H18   S    
C32   H21   S    
C6    C7    A    
C13   C17   A    
C16   O5    A    
C24   H6    S    
C4    O3    A    
C30   C31   S    
C29   H13   S    
C30   H25   S    
C3    C11   S    
C10   C11   S    
C15   N2    A    
C23   C36   A    
C27   C28   S    
C14   C15   A    
C32   H19   S    
C12   C33   A    
C36   H9    S    
