data_mof_unit_61653.cif
_audit_creation_date              2012-12-10T17:11:48-0500
_audit_creation_method            fapswitch 2.2
_symmetry_space_group_name_H-M    P1
_symmetry_Int_Tables_number       1
_space_group_crystal_system       triclinic
_cell_length_a                    21.645407
_cell_length_b                    21.673434
_cell_length_c                    21.898939
_cell_angle_alpha                 60.072699
_cell_angle_beta                  118.594206
_cell_angle_gamma                 90.516374
_cell_volume                      7452.75142552

loop_
_atom_site_label
_atom_site_type_symbol
_atom_type_description
_atom_site_fract_x
_atom_site_fract_y
_atom_site_fract_z
_atom_type_partial_charge
Br1   Br    Br    0.966544 0.340894 0.714511 -0.544911
Br2   Br    Br    0.389972 0.349949 0.646155 -0.477194
Br3   Br    Br    0.833237 0.958715 0.321689 -0.471257
Br4   Br    Br    0.692778 0.893957 0.323259 -0.426465
Br5   Br    Br    0.159779 0.915242 0.933241 -0.517279
Br6   Br    Br    0.011544 0.252014 0.355597 -0.497935
C1    C     C_R   0.618863 0.501437 0.497868 0.852391
C2    C     C_R   0.819065 0.445193 0.721584 -0.195646
C3    C     C_R   0.884703 0.417801 0.734477 -0.151052
C4    C     C_R   0.418662 0.581272 0.337482 0.874655
C5    C     C_R   0.885762 0.420012 0.670076 0.286519
C6    C     C_R   0.820609 0.460108 0.586315 0.036594
C7    C     C_R   0.753137 0.478137 0.577787 0.060622
C8    C     C_R   0.686807 0.499716 0.502449 -0.061128
C9    C     C_R   0.685518 0.511784 0.433318 -0.202501
C10   C     C_R   0.750075 0.507112 0.435990 -0.194051
C11   C     C_R   0.817492 0.484106 0.510267 -0.120283
C12   C     C_3   0.287983 0.709568 0.082426 0.140807
C13   C     C_3   0.715003 0.213147 0.030574 -0.132430
C14   C     C_3   0.693604 0.299298 0.973826 -0.160266
C15   C     C_1   0.626907 0.374340 0.751589 -0.151692
C16   C     C_R   0.379264 0.500524 0.498404 0.915996
C17   C     C_1   0.876877 0.127972 0.248261 -0.099158
C18   C     C_3   0.732536 0.206732 0.972878 -0.143057
C19   C     C_3   0.711916 0.292116 0.917682 0.181953
C20   C     C_3   0.813384 0.203734 0.025923 -0.153325
C21   C     C_3   0.795029 0.210947 0.082030 0.177020
C22   C     C_3   0.791947 0.289955 0.969071 -0.163539
C23   C     C_3   0.196995 0.717409 0.973853 -0.200250
C24   C     C_3   0.774430 0.296332 0.026847 -0.158669
C25   C     C_1   0.665459 0.337087 0.826698 -0.050067
C26   C     C_1   0.840271 0.165712 0.173073 -0.026256
C27   C     C_R   0.251335 0.631320 0.364422 -0.148940
C28   C     C_R   0.581320 0.418748 0.662533 0.917472
C29   C     C_R   0.193275 0.697589 0.307106 -0.125559
C30   C     C_R   0.133955 0.703097 0.315082 -0.132494
C31   C     C_R   0.131079 0.641461 0.378379 -0.159225
C32   C     C_R   0.187873 0.572535 0.434833 0.100852
C33   C     C_R   0.250643 0.568826 0.430892 0.057489
C34   C     C_3   0.205008 0.791732 0.917810 0.130712
C35   C     C_R   0.311050 0.502622 0.493737 -0.183188
C36   C     C_R   0.308002 0.439770 0.556365 0.255549
C37   C     C_R   0.244664 0.442256 0.556430 -0.214016
C38   C     C_R   0.184955 0.507346 0.496507 -0.174739
C39   C     C_R   0.996130 0.883250 0.492835 0.904605
C40   C     C_3   0.289180 0.758168 0.969635 -0.203054
C41   C     C_R   0.080486 0.918728 0.662553 0.881423
C42   C     C_R   0.000785 0.119486 0.500905 0.901991
C43   C     C_R   0.919592 0.082717 0.337443 0.955585
C44   C     C_R   0.000147 0.619956 0.500307 0.851395
C45   C     C_3   0.203809 0.743043 0.030888 -0.190459
C46   C     C_R   0.880527 0.494693 0.502535 0.861587
C47   C     C_R   0.997378 0.379638 0.500018 0.887512
C48   C     C_R   0.119807 0.503691 0.498898 0.887993
C49   C     C_R   0.852211 0.854725 0.399410 0.222066
C50   C     C_R   0.790242 0.828546 0.386025 0.311073
C51   C     C_R   0.798055 0.753692 0.415434 -0.224379
C52   C     C_3   0.296123 0.783903 0.026573 -0.179073
C53   C     C_R   0.865922 0.705930 0.453001 -0.225060
C54   C     C_R   0.928882 0.730889 0.468862 0.065473
C55   C     C_R   0.924036 0.803297 0.451365 -0.014417
C56   C     C_3   0.211476 0.817497 0.973546 0.320734
C57   C     C_R   0.991385 0.820680 0.484258 -0.081758
C58   C     C_R   0.058621 0.771948 0.519673 -0.190387
C59   C     C_R   0.060844 0.705656 0.525768 -0.221662
C60   C     C_R   0.996670 0.685349 0.500785 -0.049375
C61   C     C_R   0.996409 0.118874 0.631197 -0.133446
C62   C     C_R   0.982018 0.122724 0.685007 -0.110843
C63   C     C_R   0.965883 0.190930 0.673780 -0.096198
C64   C     C_1   0.373020 0.625901 0.248458 -0.171070
C65   C     C_R   0.967729 0.254665 0.611397 -0.124952
C66   C     C_R   0.986306 0.251033 0.559434 0.082757
C67   C     C_1   0.334426 0.663752 0.173372 -0.036652
C68   C     C_R   0.995431 0.183797 0.565269 0.053357
C69   C     C_R   0.002918 0.183640 0.504655 -0.171735
C70   C     C_R   0.006229 0.247468 0.442949 0.257907
C71   C     C_R   0.003233 0.311290 0.442211 -0.214343
C72   C     C_R   0.994211 0.313234 0.500164 -0.168235
C73   C     C_1   0.123282 0.874421 0.751642 -0.154489
C74   C     C_3   0.281930 0.683068 0.027109 -0.143811
C75   C     C_1   0.159883 0.837036 0.826794 -0.005899
C76   C     C_R   0.753353 0.471471 0.645571 -0.187236
H1    H     H_    0.337159 0.810666 0.049529 0.169419
H2    H     H_    0.323380 0.764981 0.943079 0.159900
H3    H     H_    0.296224 0.629613 0.355666 0.144021
H4    H     H_    0.194818 0.745119 0.257035 0.150867
H5    H     H_    0.089828 0.755231 0.271869 0.148053
H6    H     H_    0.084736 0.649276 0.383135 0.154393
H7    H     H_    0.242094 0.392736 0.603868 0.198772
H8    H     H_    0.110207 0.784464 0.544113 0.171824
H9    H     H_    0.750480 0.733395 0.404668 0.188475
H10   H     H_    0.868968 0.649167 0.470481 0.159980
H11   H     H_    0.112837 0.669785 0.550523 0.147392
H12   H     H_    0.934151 0.388976 0.797289 0.174970
H13   H     H_    0.008549 0.064713 0.642140 0.150690
H14   H     H_    0.982106 0.072911 0.734549 0.169726
H15   H     H_    0.952183 0.194395 0.713687 0.180695
H16   H     H_    0.952615 0.307058 0.602500 0.180707
H17   H     H_    0.008205 0.359720 0.396170 0.192367
H18   H     H_    0.169617 0.736487 0.057410 0.160565
H19   H     H_    0.155735 0.690888 0.950754 0.158054
H20   H     H_    0.311778 0.626888 0.050785 0.150271
H21   H     H_    0.633903 0.527522 0.376055 0.145329
H22   H     H_    0.703120 0.486601 0.640848 0.163607
H23   H     H_    0.747079 0.522153 0.379226 0.173027
H24   H     H_    0.818466 0.440856 0.772735 0.155434
H25   H     H_    0.643682 0.339232 0.950882 0.152932
H26   H     H_    0.684279 0.180855 0.057399 0.169608
H27   H     H_    0.792433 0.332247 0.050585 0.155203
H28   H     H_    0.822611 0.322257 0.942146 0.141464
H29   H     H_    0.863308 0.163778 0.048906 0.151627
H30   H     H_    0.714542 0.170794 0.949171 0.156837
O1    O     O_R   0.591660 0.448290 0.500000 -0.613734
O2    O     O_R   0.034730 0.556800 0.569600 -0.612390
O3    O     O_R   0.873600 0.534810 0.430420 -0.626860
O4    O     O_R   0.591590 0.551700 0.500020 -0.626425
O5    O     O_R   0.943150 0.465220 0.569550 -0.586653
O6    O     O_R   0.965270 0.443220 0.430400 -0.620496
O7    O     O_R   0.034830 0.373630 0.569530 -0.596494
O8    O     O_R   0.056850 0.534790 0.430450 -0.626447
O9    O     O_R   0.126400 0.465210 0.569580 -0.612329
O10   O     O_R   0.438430 0.509910 0.376770 -0.616351
O11   O     O_R   0.438360 0.613320 0.376790 -0.618525
O12   O     O_R   0.948250 0.908380 0.499990 -0.593720
O13   O     O_R   0.408410 0.448300 0.499980 -0.579334
O14   O     O_R   0.408340 0.551710 0.500000 -0.625603
O15   O     O_R   0.561640 0.386680 0.623210 -0.589527
O16   O     O_R   0.561570 0.490090 0.623230 -0.625876
O17   O     O_R   0.051700 0.908270 0.500000 -0.632424
O18   O     O_R   0.113330 0.938270 0.623230 -0.614043
O19   O     O_R   0.009880 0.938380 0.623210 -0.622633
O20   O     O_R   0.051750 0.091470 0.500010 -0.578890
O21   O     O_R   0.948300 0.091580 0.500000 -0.633348
O22   O     O_R   0.990120 0.061470 0.376790 -0.606880
O23   O     O_R   0.886670 0.061580 0.376770 -0.577532
O24   O     O_R   0.965170 0.626380 0.430470 -0.621734
Zn1   Zn    Zn3+2 0.500040 0.430950 0.499990 1.024888
Zn2   Zn    Zn3+2 0.499960 0.569050 0.500010 0.986460
Zn3   Zn    Zn3+2 0.069070 0.999850 0.500010 1.023029
Zn4   Zn    Zn3+2 0.930930 1.000000 0.499990 1.031119
Zn5   Zn    Zn3+2 0.953560 0.546470 0.407100 0.976643
Zn6   Zn    Zn3+2 0.046440 0.453550 0.592900 1.040913

loop_
_geom_bond_atom_site_label_1
_geom_bond_atom_site_label_2
_ccdc_geom_bond_type
C52   C56   S    
C43   O22   A    
O3    Zn5   S    
C39   O17   A    
C48   O8    A    
C35   C36   A    
C31   H6    S    
C29   C30   A    
Br1   C5    S    
C58   H8    S    
C49   C50   A    
O6    Zn5   S    
C33   C35   A    
C14   C24   S    
C71   C72   A    
C19   C22   S    
C34   C40   S    
C15   C25   T    
O11   Zn2   S    
C20   C21   S    
C62   H14   S    
C44   O2    A    
C2    C76   A    
O2    Zn6   S    
C30   C31   A    
C18   C20   S    
C32   C33   A    
C29   H4    S    
C16   O14   A    
C16   C35   S    
C14   C19   S    
C9    C10   A    
C34   C56   S    
C50   C51   A    
C63   C65   A    
C55   C57   A    
O16   Zn2   S    
C66   C72   A    
O19   Zn4   S    
Br3   C49   S    
C12   C52   S    
C1    C8    S    
C13   C14   S    
C62   C63   A    
C18   H30   S    
C6    C11   A    
C71   H17   S    
C41   C73   S    
C13   C21   S    
C14   H25   S    
C13   H26   S    
C59   H11   S    
C43   O23   A    
C54   C60   A    
C53   C54   A    
C30   H5    S    
C7    C8    A    
C40   C52   S    
C21   C24   S    
C61   H13   S    
C20   H29   S    
C42   C69   S    
C45   C56   S    
O18   Zn3   S    
O9    Zn6   S    
C11   C46   S    
C12   C45   S    
O4    Zn2   S    
C39   O12   A    
O23   Zn4   S    
C65   H16   S    
C68   C69   A    
C41   O18   A    
C61   C62   A    
C42   O21   A    
C70   C71   A    
C66   C68   A    
C4    O11   A    
O22   Zn3   S    
C73   C75   T    
C47   O6    A    
C28   O15   A    
C16   O13   A    
C15   C28   S    
C24   H27   S    
O13   Zn1   S    
C7    C76   A    
C39   C57   S    
C74   H20   S    
C54   C55   A    
O20   Zn3   S    
C1    O4    A    
C69   C70   A    
C32   C38   A    
C31   C32   A    
C44   C60   S    
O17   Zn3   S    
C64   C67   T    
C2    C3    A    
C23   H19   S    
C61   C68   A    
C27   C33   A    
C18   C19   S    
C3    C5    A    
C10   H23   S    
C40   H2    S    
C4    C64   S    
C12   C74   S    
C48   O9    A    
C12   C67   S    
C37   C38   A    
O1    Zn1   S    
C36   C37   A    
C19   C25   S    
C23   C45   S    
C46   O3    A    
C45   H18   S    
O14   Zn2   S    
C27   H3    S    
C51   H9    S    
C21   C26   S    
C34   C75   S    
O12   Zn4   S    
O8    Zn5   S    
O10   Zn1   S    
C4    O10   A    
C2    H24   S    
C5    C6    A    
C47   O7    A    
Br6   C70   S    
C17   C43   S    
C20   C22   S    
C22   H28   S    
C17   C26   T    
C1    O1    A    
C22   C24   S    
O5    Zn6   S    
C65   C66   A    
C44   O24   A    
C52   H1    S    
C58   C59   A    
C40   C74   S    
C10   C11   A    
C23   C74   S    
Br2   C36   S    
C49   C55   A    
C23   C34   S    
C27   C29   A    
O24   Zn5   S    
Br5   C56   S    
C13   C18   S    
C53   H10   S    
C37   H7    S    
C51   C53   A    
C47   C72   S    
C57   C58   A    
C38   C48   S    
C6    C7    A    
O21   Zn4   S    
C28   O16   A    
C59   C60   A    
C46   O5    A    
C41   O19   A    
O7    Zn6   S    
C76   H22   S    
C8    C9    A    
C42   O20   A    
O15   Zn1   S    
C9    H21   S    
C3    H12   S    
Br4   C50   S    
C63   H15   S    
