data_mof_unit_25898.cif
_audit_creation_date              2012-12-10T21:00:34-0500
_audit_creation_method            fapswitch 2.2
_symmetry_space_group_name_H-M    P1
_symmetry_Int_Tables_number       1
_space_group_crystal_system       triclinic
_cell_length_a                    18.186074
_cell_length_b                    18.258688
_cell_length_c                    18.323284
_cell_angle_alpha                 120.126214
_cell_angle_beta                  89.689132
_cell_angle_gamma                 119.839913
_cell_volume                      4315.94789052

loop_
_atom_site_label
_atom_site_type_symbol
_atom_type_description
_atom_site_fract_x
_atom_site_fract_y
_atom_site_fract_z
_atom_type_partial_charge
C1    C     C_R   0.109720 0.220040 0.609621 0.862840
C2    C     C_3   0.449215 0.896391 0.946278 -0.188214
C3    C     C_3   0.470888 0.032997 0.071219 -0.389795
C4    C     C_3   0.529052 0.966967 0.928691 -0.389854
C5    C     C_3   0.415901 0.431576 0.449272 0.537367
C6    C     C_3   0.584425 0.568549 0.551144 0.527120
C7    C     C_3   0.484121 0.405133 0.448806 -0.314901
C8    C     C_3   0.516151 0.594962 0.551712 -0.317170
C9    C     C_3   0.551315 0.500180 0.449253 -0.078777
C10   C     C_3   0.448931 0.499826 0.551052 -0.032474
C11   C     C_3   0.481856 0.524995 0.447726 -0.302879
C12   C     C_R   0.890270 0.779956 0.390371 0.862894
C13   C     C_3   0.518384 0.475138 0.552687 -0.228111
C14   C     C_R   0.173449 0.181224 0.827012 -0.193682
C15   C     C_R   0.826224 0.818836 0.173066 -0.193358
C16   C     C_R   0.392445 0.780765 0.888056 0.875711
C17   C     C_R   0.607547 0.219228 0.111918 0.875754
C18   C     C_R   0.147896 0.138334 0.735955 -0.245989
C19   C     C_R   0.851877 0.861646 0.264104 -0.249067
C20   C     C_R   0.062886 0.103171 0.691176 0.047752
C21   C     C_R   0.936923 0.896769 0.308761 0.048539
C22   C     C_R   0.003087 0.112473 0.739611 0.452064
C23   C     C_3   0.923738 0.407417 0.449716 0.380587
C24   C     C_R   0.996629 0.887434 0.260198 0.454852
C25   C     C_R   0.029849 0.155457 0.830883 -0.074567
C26   C     C_R   0.969771 0.844530 0.168946 -0.076495
C27   C     C_R   0.114131 0.189344 0.875014 0.470558
C28   C     C_R   0.885482 0.810776 0.124964 0.471876
C29   C     C_R   0.986953 0.944805 0.537571 0.397130
C30   C     C_R   0.013040 0.055183 0.462388 0.399981
C31   C     C_R   0.947851 0.892418 0.445420 -0.170156
C32   C     C_R   0.052128 0.107568 0.554546 -0.169958
C33   C     C_R   0.963720 0.947668 0.407020 -0.196202
C34   C     C_3   0.076262 0.592587 0.550289 0.380628
C35   C     C_R   0.036232 0.052307 0.592933 -0.194444
C36   C     C_R   0.645114 0.640409 0.814820 -0.207882
C37   C     C_R   0.342851 0.340163 0.168580 -0.228264
C38   C     C_R   0.601480 0.578031 0.844731 -0.264628
C39   C     C_R   0.392296 0.408523 0.145622 -0.245478
C40   C     C_R   0.111687 0.501356 0.890240 0.882686
C41   C     C_R   0.888291 0.498613 0.109742 0.882511
C42   C     C_R   0.591195 0.619703 0.929380 0.065194
C43   C     C_R   0.407591 0.373008 0.063128 0.070329
C44   C     C_R   0.624911 0.726153 0.984267 0.392935
C45   C     C_3   0.415609 0.965778 0.971203 0.422047
C46   C     C_R   0.374654 0.267083 0.004144 0.387281
C47   C     C_R   0.668170 0.787333 0.952967 -0.147453
C48   C     C_R   0.325706 0.199897 0.028566 -0.153486
C49   C     C_R   0.678759 0.745741 0.868951 0.466530
C50   C     C_R   0.308499 0.234927 0.109572 0.451862
C51   C     C_R   0.590835 0.538550 0.004343 0.371285
C52   C     C_R   0.409624 0.460196 0.994260 0.372748
C53   C     C_R   0.550308 0.493036 0.049251 -0.157759
C54   C     C_R   0.449981 0.505707 0.949371 -0.154509
C55   C     C_R   0.458083 0.447263 0.039341 -0.196535
C56   C     C_3   0.584354 0.034185 0.028700 0.422073
C57   C     C_R   0.541988 0.550181 0.958069 -0.193744
C58   C     C_R   0.280571 0.851074 0.095247 -0.156426
C59   C     C_R   0.718747 0.149445 0.905037 -0.156986
C60   C     C_R   0.222260 0.750255 0.070913 -0.163197
C61   C     C_R   0.777420 0.250449 0.929912 -0.162284
C62   C     C_R   0.130763 0.694017 0.026214 0.056127
C63   C     C_R   0.869024 0.305740 0.973565 0.057096
C64   C     C_R   0.392042 0.499780 0.607776 0.815142
C65   C     C_R   0.607992 0.500152 0.392279 0.813397
C66   C     C_R   0.098664 0.738124 0.003439 -0.110260
C67   C     C_3   0.494338 0.036057 0.954800 0.374463
C68   C     C_R   0.900869 0.260419 0.994745 -0.112083
C69   C     C_R   0.156729 0.838819 0.027248 0.517172
C70   C     C_R   0.842456 0.159427 0.970207 0.517559
C71   C     C_R   0.247858 0.895946 0.075004 -0.165021
C72   C     C_R   0.751195 0.103376 0.923612 -0.165291
C73   C     C_R   0.011937 0.592712 0.068851 0.395929
C74   C     C_R   0.988040 0.407212 0.931133 0.395211
C75   C     C_R   0.944879 0.497952 0.053234 -0.139869
C76   C     C_R   0.055104 0.501972 0.946761 -0.139560
C77   C     C_R   0.934005 0.405159 0.986162 -0.178193
C78   C     C_3   0.505620 0.963920 0.045123 0.375397
C79   C     C_R   0.065997 0.594741 0.013857 -0.178744
C80   C     C_R   0.393856 0.502274 0.890835 0.882609
C81   C     C_R   0.606215 0.497332 0.108757 0.881352
C82   C     C_R   0.109038 0.500021 0.607780 0.896782
C83   C     C_R   0.890962 0.499979 0.392220 0.899783
C84   C     C_3   0.017038 0.431568 0.448402 0.417254
C85   C     C_3   0.982962 0.568436 0.551602 0.417603
C86   C     C_3   0.043828 0.525520 0.446937 -0.449306
C87   C     C_3   0.956172 0.474485 0.553068 -0.448496
C88   C     C_3   0.948986 0.500680 0.448898 -0.137868
C89   C     C_3   0.550750 0.103589 0.053649 -0.188734
C90   C     C_3   0.051014 0.499324 0.551106 -0.137060
H1    H     H_    0.293074 0.975170 0.096805 0.142005
H2    H     H_    0.760479 0.792645 0.140312 0.187820
H3    H     H_    0.194058 0.131511 0.699840 0.171603
H4    H     H_    0.805774 0.868468 0.300308 0.169911
H5    H     H_    0.908815 0.056290 0.638059 0.340675
H6    H     H_    0.090956 0.943426 0.361591 0.342187
H7    H     H_    0.984222 0.161934 0.867858 0.189123
H8    H     H_    0.015340 0.838049 0.131877 0.188540
H9    H     H_    0.025962 0.930270 0.626523 0.347484
H10   H     H_    0.974084 0.069741 0.373425 0.346977
H11   H     H_    0.725025 0.769438 0.781812 0.375199
H12   H     H_    0.705690 0.024035 0.901392 0.141823
H13   H     H_    0.246110 0.199317 0.184794 0.347353
H14   H     H_    0.652525 0.606595 0.749499 0.178798
H15   H     H_    0.331009 0.369223 0.232036 0.158923
H16   H     H_    0.575302 0.496865 0.801818 0.164127
H17   H     H_    0.417939 0.489236 0.191692 0.161268
H18   H     H_    0.586785 0.723658 0.083496 0.337951
H19   H     H_    0.422080 0.279386 0.911804 0.339026
H20   H     H_    0.003990 0.328043 0.332445 0.361402
H21   H     H_    0.996014 0.671966 0.667559 0.362148
H22   H     H_    0.693951 0.868396 0.994603 0.167558
H23   H     H_    0.448837 0.060645 0.130074 0.177919
H24   H     H_    0.299610 0.118986 0.983312 0.174665
H25   H     H_    0.688406 0.570271 0.953626 0.346071
H26   H     H_    0.313066 0.430046 0.046164 0.344582
H27   H     H_    0.350775 0.895309 0.131713 0.196441
H28   H     H_    0.648450 0.105973 0.869368 0.197587
H29   H     H_    0.247570 0.717485 0.089785 0.146353
H30   H     H_    0.752265 0.284097 0.912223 0.145692
H31   H     H_    0.027815 0.695252 0.969672 0.174804
H32   H     H_    0.971789 0.302500 0.027636 0.175229
H33   H     H_    0.171793 0.950752 0.025486 0.368777
H34   H     H_    0.550900 0.939155 0.869718 0.178967
H35   H     H_    0.827070 0.045667 0.968921 0.360340
H36   H     H_    0.085125 0.742985 0.159003 0.356494
H37   H     H_    0.914492 0.257094 0.840530 0.356129
H38   H     H_    0.846480 0.266428 0.410355 0.353292
H39   H     H_    0.153515 0.733581 0.589660 0.353489
H40   H     H_    0.463935 0.115464 0.939871 0.353650
H41   H     H_    0.535967 0.884482 0.060064 0.354756
H42   H     H_    0.326087 0.991383 0.967158 0.323254
H43   H     H_    0.673823 0.008515 0.032925 0.323733
H44   H     H_    0.470415 0.327240 0.405047 0.170960
H45   H     H_    0.079608 0.546231 0.404043 0.194981
H46   H     H_    0.529862 0.672849 0.595541 0.172940
H47   H     H_    0.324722 0.314837 0.336740 0.320713
H48   H     H_    0.697352 0.697434 0.597496 0.348088
H49   H     H_    0.466255 0.543136 0.402936 0.164915
H50   H     H_    0.533488 0.456314 0.597070 0.152778
H51   H     H_    0.920393 0.453774 0.595962 0.195203
H52   H     H_    0.196013 0.245642 0.984926 0.336888
H53   H     H_    0.803646 0.755033 0.015264 0.336347
H54   H     H_    0.239171 0.207449 0.859850 0.188924
O1    O     O_3   0.251620 0.500000 0.748430 -0.538980
O2    O     O_R   0.570330 0.268390 0.136490 -0.659680
O3    O     O_R   0.134680 0.268390 0.572240 -0.562798
O4    O     O_R   0.865320 0.731610 0.427760 -0.568692
O5    O     O_R   0.306670 0.731630 0.863510 -0.578296
O6    O     O_R   0.693330 0.268370 0.136490 -0.577836
O7    O     O_R   0.135450 0.439270 0.865360 -0.578441
O8    O     O_R   0.864550 0.560730 0.134640 -0.578012
O9    O     O_R   0.429670 0.560710 0.692610 -0.652344
O10   O     O_R   0.570330 0.439290 0.307390 -0.647740
O11   O     O_R   0.308540 0.439240 0.865360 -0.581972
O12   O     O_3   0.748380 0.500000 0.251570 -0.535255
O13   O     O_R   0.691460 0.560760 0.134640 -0.582154
O14   O     O_R   0.133580 0.439310 0.571150 -0.588871
O15   O     O_R   0.866420 0.560690 0.428850 -0.588037
O16   O     O_R   0.430770 0.560690 0.864590 -0.655682
O17   O     O_R   0.569230 0.439310 0.135410 -0.656065
O18   O     O_R   0.133580 0.560760 0.692610 -0.625791
O19   O     O_R   0.866420 0.439240 0.307390 -0.625473
O20   O     O_3   0.136114 0.229192 0.964571 -0.723511
O21   O     O_3   0.863437 0.771142 0.035454 -0.723557
O22   O     O_3   0.918447 0.080451 0.701214 -0.756068
O23   O     O_R   0.134680 0.560740 0.864590 -0.654598
O24   O     O_3   0.081278 0.919371 0.298459 -0.752130
O25   O     O_3   0.975005 0.888813 0.572216 -0.703443
O26   O     O_3   0.025013 0.111191 0.427754 -0.697603
O27   O     O_3   0.722062 0.809900 0.841844 -0.763230
O28   O     O_3   0.257606 0.164382 0.128641 -0.771450
O29   O     O_3   0.616430 0.773455 0.067660 -0.774767
O30   O     O_3   0.387971 0.225521 0.922537 -0.772243
O31   O     O_3   0.033806 0.357697 0.394684 -0.690042
O32   O     O_3   0.966193 0.642307 0.605320 -0.689982
O33   O     O_3   0.678323 0.570745 0.006872 -0.735246
O34   O     O_R   0.865320 0.439260 0.135410 -0.654347
O35   O     O_3   0.322311 0.428308 0.992264 -0.735927
O36   O     O_3   0.122229 0.879828 0.004864 -0.720539
O37   O     O_3   0.876729 0.117013 0.990618 -0.723237
O38   O     O_3   0.024128 0.682130 0.140230 -0.741834
O39   O     O_3   0.975727 0.317788 0.859635 -0.742212
O40   O     O_3   0.843486 0.309527 0.394365 -0.714406
O41   O     O_3   0.156514 0.690477 0.605641 -0.714517
O42   O     O_3   0.486989 0.073448 0.906739 -0.729530
O43   O     O_3   0.512925 0.926516 0.093188 -0.730212
O44   O     O_3   0.326888 0.929218 0.937751 -0.699388
O45   O     O_R   0.306670 0.439270 0.571150 -0.579675
O46   O     O_3   0.673098 0.070724 0.062046 -0.698433
O47   O     O_3   0.325396 0.359632 0.397269 -0.713084
O48   O     O_3   0.674585 0.640200 0.604467 -0.746229
O49   O     O_R   0.693330 0.560730 0.428850 -0.608276
O50   O     O_R   0.135450 0.268370 0.694460 -0.652058
O51   O     O_R   0.864550 0.731630 0.305540 -0.650977
O52   O     O_R   0.429670 0.731610 0.863510 -0.658638
Zn1   Zn    Zn3+2 0.207400 0.586780 0.791530 1.027580
Zn2   Zn    Zn3+2 0.792600 0.413220 0.208470 1.029412
Zn3   Zn    Zn3+2 0.208510 0.413230 0.792630 1.014047
Zn4   Zn    Zn3+2 0.791490 0.586770 0.207370 1.014343
Zn5   Zn    Zn3+2 0.383150 0.586740 0.791530 0.964212
Zn6   Zn    Zn3+2 0.616850 0.413260 0.208470 0.961967
Zn7   Zn    Zn3+2 0.207400 0.413250 0.618010 1.070749
Zn8   Zn    Zn3+2 0.792600 0.586750 0.381990 1.053531

loop_
_geom_bond_atom_site_label_1
_geom_bond_atom_site_label_2
_ccdc_geom_bond_type
O1    Zn5   S    
C8    C10   S    
C37   C50   A    
H39   O41   S    
C8    H46   S    
H37   O39   S    
C14   C18   A    
C17   O6    A    
H38   O40   S    
C76   C79   A    
O12   Zn6   S    
H42   O44   S    
C6    C9    S    
C34   C90   S    
C64   O45   A    
O15   Zn8   S    
C47   C49   A    
C41   O8    A    
H20   O31   S    
O45   Zn7   S    
C15   C19   A    
O18   Zn1   S    
C4    H34   S    
O49   Zn8   S    
C74   C76   A    
C16   O52   A    
C60   C62   A    
C24   O24   S    
C84   C86   S    
O1    Zn3   S    
C69   O36   S    
H52   O20   S    
C82   O14   A    
C86   C88   S    
C58   C71   A    
C80   O16   A    
C66   C69   A    
C21   C33   S    
C58   C60   A    
C47   H22   S    
C67   C89   S    
C85   O32   S    
C56   C78   S    
O8    Zn4   S    
C60   H29   S    
C53   C81   S    
C34   C86   S    
C43   C55   S    
C69   C71   A    
C1    O3    A    
C11   H49   S    
C30   O26   S    
C40   O23   A    
C15   H2    S    
H47   O47   S    
C20   C35   S    
H53   O21   S    
O19   Zn2   S    
C74   C77   A    
C50   O28   S    
C45   C67   S    
H6    O24   S    
C16   O5    A    
C51   C57   A    
C23   O40   S    
C14   C27   A    
C84   O31   S    
C2    C16   S    
O9    Zn5   S    
C12   C31   S    
C67   O42   S    
C59   C72   A    
C48   C50   A    
C83   C88   S    
O34   Zn2   S    
C23   C87   S    
C4    C56   S    
C61   H30   S    
O14   Zn7   S    
C73   C75   A    
O12   Zn4   S    
C42   C44   A    
C42   C57   S    
C26   C28   A    
O10   Zn6   S    
C52   C54   A    
H43   O46   S    
C65   O49   A    
C53   C55   A    
C2    C45   S    
C73   C79   A    
C37   C39   A    
C14   H54   S    
C59   C61   A    
C81   O13   A    
C23   C84   S    
C62   C66   A    
C85   C87   S    
H35   O37   S    
H21   O32   S    
C32   C35   A    
O7    Zn3   S    
O17   Zn6   S    
C17   C89   S    
C44   O29   S    
C5    O47   S    
C7    H44   S    
C85   C88   S    
C3    H23   S    
C68   H32   S    
O16   Zn5   S    
O1    Zn7   S    
H19   O30   S    
C39   C43   A    
C74   O39   S    
C82   O18   A    
H10   O26   S    
C64   O9    A    
C3    C45   S    
C58   H27   S    
C40   C76   S    
C40   O7    A    
C51   C53   A    
C34   C85   S    
C38   H16   S    
C34   O41   S    
C2    C4    S    
C13   H50   S    
C37   H15   S    
C65   O10   A    
C2    C78   S    
C27   O20   S    
C41   C75   S    
C9    C11   S    
H40   O42   S    
C62   C79   S    
C70   O37   S    
O50   Zn3   S    
C29   C31   A    
H18   O29   S    
C46   O30   S    
O23   Zn1   S    
C66   H31   S    
C83   O15   A    
C56   O46   S    
C87   H51   S    
C75   C77   A    
H25   O33   S    
C19   H4    S    
C44   C47   A    
C26   H8    S    
C28   O21   S    
C25   H7    S    
C56   C89   S    
C22   C25   A    
C20   C22   A    
C59   H28   S    
C23   C88   S    
C54   C80   S    
H13   O28   S    
C12   O51   A    
H26   O35   S    
O1    Zn1   S    
C21   C24   A    
O12   Zn8   S    
H5    O22   S    
O11   Zn3   S    
O4    Zn8   S    
C80   O11   A    
C48   H24   S    
O51   Zn4   S    
C63   C77   S    
C84   C90   S    
O12   Zn2   S    
C7    C9    S    
C83   O19   A    
C63   C68   A    
C31   C33   A    
C30   C33   A    
C19   C21   A    
C81   O17   A    
C46   C48   A    
C61   C63   A    
H48   O48   S    
C24   C26   A    
H33   O36   S    
C10   C13   S    
C39   H17   S    
C4    C67   S    
C6    C8    S    
C52   C55   A    
C45   O44   S    
C5    C11   S    
H9    O25   S    
C41   O34   A    
C25   C27   A    
C29   C35   A    
C10   C64   S    
C82   C90   S    
C36   H14   S    
C3    C89   S    
O13   Zn4   S    
C12   O4    A    
O3    Zn7   S    
C1    O50   A    
C52   O35   S    
C5    C7    S    
C5    C10   S    
O2    Zn6   S    
C6    C13   S    
C30   C32   A    
C73   O38   S    
C15   C28   A    
C72   H12   S    
C8    C11   S    
C36   C38   A    
H11   O27   S    
C18   C20   A    
C1    C32   S    
C43   C46   A    
C9    C65   S    
H36   O38   S    
C49   O27   S    
C17   O2    A    
C22   O22   S    
C38   C42   A    
C86   H45   S    
C7    C13   S    
C71   H1    S    
C68   C70   A    
C87   C90   S    
C6    O48   S    
C18   H3    S    
C70   C72   A    
C78   O43   S    
C29   O25   S    
O52   Zn5   S    
C51   O33   S    
C3    C78   S    
O6    Zn2   S    
C36   C49   A    
O5    Zn1   S    
C54   C57   A    
H41   O43   S    
