data_mof_unit_56291.cif
_audit_creation_date              2012-12-10T16:38:01-0500
_audit_creation_method            fapswitch 2.2
_symmetry_space_group_name_H-M    P1
_symmetry_Int_Tables_number       1
_space_group_crystal_system       triclinic
_cell_length_a                    28.205353
_cell_length_b                    18.46654
_cell_length_c                    16.986135
_cell_angle_alpha                 90.249906
_cell_angle_beta                  61.009941
_cell_angle_gamma                 90.551016
_cell_volume                      7738.42452195

loop_
_atom_site_label
_atom_site_type_symbol
_atom_type_description
_atom_site_fract_x
_atom_site_fract_y
_atom_site_fract_z
_atom_type_partial_charge
C1    C     C_R   0.704381 0.273405 0.675132 0.899580
C2    C     C_R   0.294280 0.723364 0.326430 0.899308
C3    C     C_R   0.295240 0.274570 0.325194 0.900101
C4    C     C_R   0.700916 0.733897 0.677174 0.899764
C5    C     C_R   0.201054 0.766108 0.676894 0.891690
C6    C     C_R   0.798994 0.233949 0.323255 0.888772
C7    C     C_R   0.793663 0.777938 0.327183 0.905453
C8    C     C_R   0.200630 0.234823 0.676924 0.898557
C9    C     C_R   0.920191 0.501455 0.436329 0.069249
C10   C     C_R   0.098189 0.500526 0.501279 0.064012
C11   C     C_R   0.402396 0.999431 0.496610 0.068149
C12   C     C_R   0.580277 0.998495 0.561843 0.069056
C13   C     C_R   0.117643 0.377194 0.445138 -0.244381
C14   C     C_R   0.922326 0.632578 0.438401 -0.237107
C15   C     C_R   0.929698 0.372011 0.408946 -0.248258
C16   C     C_R   0.079680 0.626297 0.548083 -0.240412
C17   C     C_R   0.578118 0.867386 0.559602 -0.245256
C18   C     C_R   0.382827 0.122604 0.553299 -0.235441
C19   C     C_R   0.420838 0.873679 0.449684 -0.232128
C20   C     C_R   0.570727 0.127919 0.589251 -0.237876
C21   C     C_R   0.714419 0.259717 0.963070 0.012596
C22   C     C_R   0.276134 0.718719 0.047770 0.011347
C23   C     C_R   0.281339 0.269822 0.040945 0.009824
C24   C     C_R   0.709396 0.755324 0.965520 0.011064
C25   C     C_R   0.218534 0.757266 0.956516 0.012962
C26   C     C_R   0.770818 0.222036 0.056606 0.012169
C27   C     C_R   0.770678 0.786347 0.054050 0.011008
C28   C     C_R   0.224795 0.231937 0.947738 0.012847
C29   C     C_R   0.761956 0.217979 0.921388 0.060030
C30   C     C_R   0.223922 0.748593 0.095280 0.054218
C31   C     C_R   0.232007 0.231459 0.084335 0.060994
C32   C     C_R   0.760639 0.790021 0.918991 0.054079
C33   C     C_R   0.265241 0.713764 0.913415 0.055321
C34   C     C_R   0.727542 0.271785 0.094669 0.053716
C35   C     C_R   0.715442 0.764927 0.104675 0.054481
C36   C     C_R   0.268655 0.281523 0.908986 0.056327
C37   C     C_R   0.783872 0.188607 0.973820 -0.008176
C38   C     C_R   0.200088 0.779605 0.046399 -0.005482
C39   C     C_R   0.210100 0.200983 0.032357 -0.008213
C40   C     C_R   0.794534 0.795990 0.959691 -0.008037
C41   C     C_R   0.298962 0.704995 0.954250 -0.010808
C42   C     C_R   0.693756 0.280928 0.053974 -0.009765
C43   C     C_R   0.686671 0.740468 0.058992 -0.007789
C44   C     C_R   0.302598 0.290433 0.949517 -0.013249
C45   C     C_R   0.637655 0.315854 0.956670 0.052515
C46   C     C_R   0.358739 0.677664 0.047406 0.054522
C47   C     C_R   0.361294 0.317875 0.044533 0.049259
C48   C     C_R   0.633350 0.693464 0.959446 0.050961
C49   C     C_R   0.150253 0.832620 0.945832 0.053989
C50   C     C_R   0.840515 0.150674 0.067783 0.046241
C51   C     C_R   0.856283 0.822487 0.049899 0.051216
C52   C     C_R   0.157171 0.156129 0.934749 0.045709
C53   C     C_R   0.614081 0.342181 0.904016 -0.123467
C54   C     C_R   0.385157 0.656037 0.097284 -0.126998
C55   C     C_R   0.386434 0.341601 0.095769 -0.127309
C56   C     C_R   0.611227 0.663065 0.906047 -0.127287
C57   C     C_R   0.121949 0.852670 0.897610 -0.115024
C58   C     C_R   0.874104 0.139815 0.108578 -0.125435
C59   C     C_R   0.884211 0.843684 0.097876 -0.128615
C60   C     C_R   0.124870 0.142139 0.892378 -0.125945
C61   C     C_R   0.635976 0.324022 0.814634 -0.310466
C62   C     C_R   0.364078 0.674791 0.186348 -0.303009
C63   C     C_R   0.364983 0.323033 0.184926 -0.301496
C64   C     C_R   0.631845 0.683015 0.817217 -0.303766
C65   C     C_R   0.136455 0.823515 0.814374 -0.313808
C66   C     C_R   0.863211 0.175104 0.186959 -0.304614
C67   C     C_R   0.863744 0.824912 0.186567 -0.302535
C68   C     C_R   0.136159 0.176007 0.813190 -0.304635
C69   C     C_R   0.684750 0.288636 0.770780 -0.115044
C70   C     C_R   0.312776 0.703034 0.232875 -0.116105
C71   C     C_R   0.314549 0.291173 0.230231 -0.119304
C72   C     C_R   0.676679 0.727659 0.775713 -0.123239
C73   C     C_R   0.178894 0.776049 0.774362 -0.122694
C74   C     C_R   0.820205 0.221692 0.226825 -0.123229
C75   C     C_R   0.811599 0.798956 0.234548 -0.117690
C76   C     C_R   0.178846 0.223855 0.773535 -0.124419
C77   C     C_R   0.713441 0.269568 0.818807 0.078514
C78   C     C_R   0.280598 0.711270 0.189015 0.071055
C79   C     C_R   0.284013 0.276531 0.183981 0.080578
C80   C     C_R   0.701364 0.756592 0.826552 0.076707
C81   C     C_R   0.204451 0.748927 0.824088 0.079597
C82   C     C_R   0.792120 0.243755 0.179329 0.079759
C83   C     C_R   0.777900 0.793447 0.193031 0.069476
C84   C     C_R   0.205999 0.248651 0.821862 0.078417
C85   C     C_R   0.690959 0.129534 0.536294 0.909604
C86   C     C_R   0.308504 0.870844 0.466641 0.914685
C87   C     C_R   0.303622 0.127932 0.482042 0.925055
C88   C     C_R   0.691643 0.870727 0.534072 0.884726
C89   C     C_R   0.191561 0.629084 0.533004 0.876743
C90   C     C_R   0.809072 0.370436 0.463580 0.882407
C91   C     C_R   0.808400 0.629286 0.465738 0.924900
C92   C     C_R   0.196450 0.372047 0.517661 0.892965
C93   C     C_R   0.688166 0.281019 0.913008 0.070605
C94   C     C_R   0.305327 0.703022 0.094515 0.073003
C95   C     C_R   0.309103 0.287525 0.089696 0.072160
C96   C     C_R   0.681296 0.735126 0.917269 0.074723
C97   C     C_R   0.190572 0.778997 0.909245 0.069427
C98   C     C_R   0.801421 0.205895 0.100892 0.072536
C99   C     C_R   0.801760 0.799927 0.098716 0.073563
C100  C     C_R   0.195600 0.212817 0.901892 0.072127
C101  C     C_R   0.612439 0.322430 0.051408 -0.219079
C102  C     C_R   0.383811 0.674899 0.952573 -0.217898
C103  C     C_R   0.386274 0.324434 0.949947 -0.217851
C104  C     C_R   0.609705 0.682993 0.053118 -0.229811
C105  C     C_R   0.141318 0.864997 0.027847 -0.236823
C106  C     C_R   0.842906 0.106806 0.997571 -0.225482
C107  C     C_R   0.881150 0.822487 0.955466 -0.224896
C108  C     C_R   0.153882 0.114339 0.006827 -0.226867
C109  C     C_R   0.640157 0.307961 0.099375 -0.011763
C110  C     C_R   0.354789 0.686947 0.906212 -0.009894
C111  C     C_R   0.357157 0.315140 0.903311 0.000981
C112  C     C_R   0.636488 0.701715 0.101363 -0.007077
C113  C     C_R   0.162173 0.836326 0.080351 -0.021832
C114  C     C_R   0.816959 0.126429 0.948769 -0.017139
C115  C     C_R   0.851551 0.808773 0.910357 -0.007766
C116  C     C_R   0.177197 0.138127 0.058273 -0.019390
C117  C     C_R   0.766897 0.241724 0.777373 -0.184217
C118  C     C_R   0.224367 0.724509 0.235624 -0.179153
C119  C     C_R   0.229086 0.253590 0.227322 -0.189367
C120  C     C_R   0.744285 0.807790 0.792132 -0.181943
C121  C     C_R   0.243228 0.692832 0.792767 -0.181379
C122  C     C_R   0.755072 0.301740 0.207017 -0.175599
C123  C     C_R   0.721146 0.785854 0.242180 -0.184583
C124  C     C_R   0.243132 0.307373 0.793603 -0.189620
C125  C     C_R   0.789146 0.213205 0.827579 -0.210337
C126  C     C_R   0.196907 0.744121 0.189651 -0.199388
C127  C     C_R   0.204586 0.228677 0.178418 -0.202888
C128  C     C_R   0.774254 0.822139 0.835857 -0.193003
C129  C     C_R   0.274467 0.677938 0.834190 -0.200927
C130  C     C_R   0.722449 0.314020 0.167413 -0.197164
C131  C     C_R   0.690694 0.772778 0.198935 -0.198553
C132  C     C_R   0.274826 0.322114 0.834642 -0.208653
C133  C     C_R   0.078480 0.093635 0.930033 0.927857
C134  C     C_R   0.928159 0.896848 0.063211 0.906225
C135  C     C_R   0.921142 0.092805 0.070423 0.937595
C136  C     C_R   0.077138 0.903881 0.931762 0.898228
C137  C     C_R   0.571724 0.603297 0.936823 0.905322
C138  C     C_R   0.428690 0.396667 0.062810 0.905976
C139  C     C_R   0.428339 0.602884 0.063336 0.903042
C140  C     C_R   0.571991 0.397344 0.936467 0.902528
C141  C     C_R   0.522426 0.126972 0.584255 0.099899
C142  C     C_R   0.460030 0.871099 0.477256 0.101815
C143  C     C_R   0.428778 0.124432 0.564373 0.091712
C144  C     C_R   0.538476 0.867721 0.533415 0.095967
C145  C     C_R   0.040733 0.628917 0.520017 0.098094
C146  C     C_R   0.978375 0.373083 0.412905 0.109494
C147  C     C_R   0.962252 0.632290 0.463962 0.098237
C148  C     C_R   0.072138 0.375579 0.432683 0.107160
C149  C     C_R   0.490818 0.189344 0.601754 -0.184374
C150  C     C_R   0.484940 0.805594 0.476846 -0.187626
C151  C     C_R   0.443740 0.187628 0.593538 -0.179551
C152  C     C_R   0.522322 0.803413 0.508419 -0.187701
C153  C     C_R   0.015896 0.694442 0.520269 -0.188569
C154  C     C_R   0.010388 0.310942 0.394234 -0.202286
C155  C     C_R   0.978497 0.696618 0.488743 -0.187981
C156  C     C_R   0.057587 0.312648 0.402166 -0.204970
C157  C     C_R   0.460266 0.062182 0.546163 0.035103
C158  C     C_R   0.515391 0.933592 0.530550 0.033078
C159  C     C_R   0.505723 0.062669 0.559882 0.032998
C160  C     C_R   0.473714 0.934591 0.507798 0.030296
C161  C     C_R   0.985408 0.566424 0.466705 0.031807
C162  C     C_R   0.040604 0.437829 0.450967 0.032311
C163  C     C_R   0.027110 0.565428 0.489396 0.030231
C164  C     C_R   0.995101 0.437354 0.437310 0.031208
C165  C     C_R   0.967234 0.501740 0.445791 -0.051045
C166  C     C_R   0.054997 0.501054 0.481430 -0.050044
C167  C     C_R   0.445777 0.998934 0.515944 -0.048029
C168  C     C_R   0.533474 0.998254 0.551711 -0.048817
C169  C     C_R   0.897628 0.435120 0.428059 0.057655
C170  C     C_R   0.112084 0.564153 0.532407 0.059093
C171  C     C_R   0.128650 0.437147 0.487077 0.053905
C172  C     C_R   0.895008 0.567523 0.438241 0.055651
C173  C     C_R   0.388367 0.935809 0.465726 0.061855
C174  C     C_R   0.602687 0.064792 0.570615 0.057571
C175  C     C_R   0.605327 0.932429 0.560286 0.053579
C176  C     C_R   0.371747 0.062716 0.511443 0.052276
C177  C     C_R   0.844008 0.435168 0.439352 -0.113790
C178  C     C_R   0.159543 0.563939 0.542475 -0.110789
C179  C     C_R   0.169042 0.436873 0.515120 -0.098659
C180  C     C_R   0.842953 0.565623 0.443314 -0.118337
C181  C     C_R   0.340647 0.935986 0.456456 -0.120987
C182  C     C_R   0.656093 0.064760 0.560162 -0.121722
C183  C     C_R   0.657150 0.934346 0.556112 -0.107191
C184  C     C_R   0.331118 0.063034 0.484042 -0.109752
C185  C     C_R   0.819392 0.500124 0.441335 -0.298811
C186  C     C_R   0.183567 0.499663 0.542207 -0.308778
C187  C     C_R   0.316497 0.000268 0.457051 -0.299569
C188  C     C_R   0.680601 0.999818 0.558545 -0.298195
H1    H     H_    0.081750 0.264106 0.387167 0.134504
H2    H     H_    0.960519 0.747929 0.487595 0.145407
H3    H     H_    0.998908 0.261096 0.373756 0.141391
H4    H     H_    0.026555 0.744190 0.542252 0.147518
H5    H     H_    0.540275 0.752096 0.509626 0.146770
H6    H     H_    0.419937 0.236287 0.607016 0.164057
H7    H     H_    0.474274 0.755845 0.454878 0.147204
H8    H     H_    0.502565 0.239345 0.621465 0.156163
H9    H     H_    0.778996 0.499637 0.448740 0.198011
H10   H     H_    0.216648 0.499409 0.557680 0.192401
H11   H     H_    0.283207 0.000526 0.442100 0.196924
H12   H     H_    0.720841 0.000308 0.551790 0.198218
H13   H     H_    0.144131 0.331406 0.419535 0.167541
H14   H     H_    0.913765 0.684476 0.419753 0.181394
H15   H     H_    0.918221 0.322234 0.388680 0.171111
H16   H     H_    0.083719 0.673297 0.582515 0.176323
H17   H     H_    0.586400 0.815459 0.578594 0.185387
H18   H     H_    0.355960 0.168064 0.580254 0.183791
H19   H     H_    0.416518 0.826620 0.415612 0.172639
H20   H     H_    0.581951 0.177641 0.610021 0.171131
H21   H     H_    0.615983 0.341389 0.777229 0.191834
H22   H     H_    0.386784 0.663234 0.221193 0.190260
H23   H     H_    0.386532 0.337843 0.221044 0.193290
H24   H     H_    0.614622 0.659565 0.777928 0.192746
H25   H     H_    0.116111 0.841355 0.777717 0.192563
H26   H     H_    0.886661 0.162802 0.220318 0.190043
H27   H     H_    0.887581 0.834983 0.220058 0.190938
H28   H     H_    0.113415 0.161489 0.778987 0.194426
H29   H     H_    0.570149 0.336644 0.090175 0.170488
H30   H     H_    0.427028 0.666290 0.912971 0.165780
H31   H     H_    0.429241 0.335768 0.910529 0.166907
H32   H     H_    0.569434 0.660470 0.091599 0.174136
H33   H     H_    0.120432 0.915169 0.052788 0.185109
H34   H     H_    0.862923 0.055067 0.981520 0.185812
H35   H     H_    0.924651 0.829578 0.915633 0.167224
H36   H     H_    0.135226 0.061300 0.022682 0.174612
H37   H     H_    0.794547 0.243371 0.706378 0.189976
H38   H     H_    0.200167 0.718255 0.307566 0.181845
H39   H     H_    0.202801 0.255549 0.298752 0.168204
H40   H     H_    0.755050 0.839491 0.732666 0.179898
H41   H     H_    0.249646 0.658302 0.737144 0.172172
H42   H     H_    0.751703 0.339945 0.257764 0.170522
H43   H     H_    0.699027 0.793146 0.314295 0.178560
H44   H     H_    0.247465 0.343907 0.740985 0.172491
H45   H     H_    0.829941 0.192274 0.791626 0.156428
H46   H     H_    0.153764 0.753188 0.228701 0.157418
H47   H     H_    0.162772 0.210633 0.215138 0.149677
H48   H     H_    0.806665 0.861700 0.805720 0.166715
H49   H     H_    0.303785 0.634936 0.806296 0.155137
H50   H     H_    0.695578 0.359901 0.190985 0.159033
H51   H     H_    0.647268 0.772870 0.240680 0.161841
H52   H     H_    0.301820 0.368410 0.810658 0.159613
O1    O     O_R   0.746490 0.236330 0.638080 -0.646748
O2    O     O_R   0.253510 0.763670 0.361920 -0.636130
O3    O     O_R   0.253510 0.236330 0.361920 -0.649035
O4    O     O_R   0.746490 0.763670 0.638080 -0.637718
O5    O     O_R   0.246490 0.736330 0.638080 -0.634142
O6    O     O_R   0.753510 0.263670 0.361920 -0.631759
O7    O     O_R   0.753510 0.736330 0.361920 -0.636022
O8    O     O_R   0.246490 0.263670 0.638080 -0.649610
O9    O     O_R   0.674170 0.186160 0.516270 -0.626533
O10   O     O_R   0.325830 0.813840 0.483730 -0.632351
O11   O     O_R   0.325830 0.186160 0.483730 -0.637956
O12   O     O_R   0.674170 0.813840 0.516270 -0.658590
O13   O     O_R   0.174170 0.686160 0.516270 -0.650823
O14   O     O_R   0.825830 0.313840 0.483730 -0.640393
O15   O     O_R   0.825830 0.686160 0.483730 -0.638085
O16   O     O_R   0.174170 0.313840 0.516270 -0.648553
O17   O     O_R   0.739960 0.127620 0.525000 -0.620394
O18   O     O_R   0.260040 0.872380 0.475000 -0.614216
O19   O     O_R   0.260040 0.127620 0.475000 -0.620652
O20   O     O_R   0.739960 0.872380 0.525000 -0.634713
O21   O     O_R   0.239960 0.627620 0.525000 -0.630608
O22   O     O_R   0.760040 0.372380 0.475000 -0.630270
O23   O     O_R   0.760040 0.627620 0.475000 -0.620265
O24   O     O_R   0.239960 0.372380 0.525000 -0.636780
O25   O     O_R   0.680700 0.294870 0.629350 -0.628745
O26   O     O_R   0.319300 0.705130 0.370650 -0.629362
O27   O     O_R   0.319300 0.294870 0.370650 -0.618723
O28   O     O_R   0.680700 0.705130 0.629350 -0.625289
O29   O     O_R   0.180700 0.794870 0.629350 -0.623854
O30   O     O_R   0.819300 0.205130 0.370650 -0.625977
O31   O     O_R   0.819300 0.794870 0.370650 -0.632120
O32   O     O_R   0.180700 0.205130 0.629350 -0.619655
O33   O     O_R   0.062020 0.072840 0.007170 -0.635178
O34   O     O_R   0.937980 0.927160 0.992830 -0.633674
O35   O     O_R   0.937980 0.072840 0.992830 -0.627819
O36   O     O_R   0.062020 0.927160 0.007170 -0.649473
O37   O     O_R   0.562020 0.572840 0.007170 -0.622694
O38   O     O_R   0.437980 0.427160 0.992830 -0.620769
O39   O     O_R   0.437980 0.572840 0.992830 -0.620244
O40   O     O_R   0.562020 0.427160 0.007170 -0.621729
O41   O     O_R   0.947860 0.073950 0.109290 -0.613157
O42   O     O_R   0.052140 0.926050 0.890710 -0.624722
O43   O     O_R   0.052140 0.073950 0.890710 -0.614879
O44   O     O_R   0.947860 0.926050 0.109290 -0.614489
O45   O     O_R   0.447860 0.573950 0.109290 -0.618774
O46   O     O_R   0.552140 0.426050 0.890710 -0.620143
O47   O     O_R   0.552140 0.573950 0.890710 -0.619510
O48   O     O_R   0.447860 0.426050 0.109290 -0.618317
Zn1   Zn    Zn3+2 0.792340 0.208750 0.507670 0.942199
Zn2   Zn    Zn3+2 0.207660 0.791250 0.492330 0.952261
Zn3   Zn    Zn3+2 0.207660 0.208750 0.492330 0.948476
Zn4   Zn    Zn3+2 0.792340 0.791250 0.507670 0.942193
Zn5   Zn    Zn3+2 0.292340 0.708750 0.507670 0.947821
Zn6   Zn    Zn3+2 0.707660 0.291250 0.492330 0.955797
Zn7   Zn    Zn3+2 0.707660 0.708750 0.492330 0.946771
Zn8   Zn    Zn3+2 0.292340 0.291250 0.507670 0.945532
Zn9   Zn    Zn3+2 0.505960 0.500000 0.080520 0.949255
Zn10  Zn    Zn3+2 0.494040 0.500000 0.919480 0.946292
Zn11  Zn    Zn3+2 0.005960 0.000000 0.080520 0.936489
Zn12  Zn    Zn3+2 0.994040 0.000000 0.919480 0.943672
C189  C     C_1   0.609380 0.312301 0.196410 0.151858
N1    N     N_1   0.584553 0.315667 0.274092 -0.202561
C190  C     C_1   0.385836 0.689772 0.809088 0.148767
N2    N     N_1   0.410899 0.692213 0.731362 -0.210897
C191  C     C_1   0.387044 0.324899 0.806948 0.138801
N3    N     N_1   0.411300 0.333446 0.729882 -0.245630
C192  C     C_1   0.613576 0.670775 0.190592 0.143030
N4    N     N_1   0.595016 0.645530 0.261788 -0.222236
C193  C     C_1   0.148437 0.873248 0.163980 0.155768
N5    N     N_1   0.137097 0.902252 0.231269 -0.193786
C194  C     C_1   0.819401 0.075931 0.881526 0.154180
N6    N     N_1   0.821337 0.035314 0.827970 -0.220239
C195  C     C_1   0.882771 0.799306 0.813893 0.151585
N7    N     N_1   0.907960 0.791556 0.736751 -0.215275
C196  C     C_1   0.172555 0.091406 0.129761 0.147110
N8    N     N_1   0.169034 0.054493 0.187212 -0.185904

loop_
_geom_bond_atom_site_label_1
_geom_bond_atom_site_label_2
_ccdc_geom_bond_type
C128  H48   S    
C154  H3    S    
C85   C182  S    
C6    O30   A    
C9    C169  A    
C34   C42   A    
C181  C187  A    
C189  N1    T    
O9    Zn6   S    
C27   C99   A    
O39   Zn10  S    
C170  C178  A    
C139  O39   A    
C42   C109  A    
C24   C96   A    
C149  H8    S    
C108  H36   S    
O1    Zn1   S    
C137  O47   A    
C62   C70   A    
C147  C155  A    
C88   O12   A    
C123  C131  A    
C143  C151  A    
C90   C177  S    
C11   C167  A    
C82   C98   A    
C76   C84   A    
C73   C81   A    
C161  C163  A    
C162  C164  A    
O3    Zn3   S    
C84   C100  A    
C121  H41   S    
C87   O19   A    
C37   C114  A    
C27   C35   A    
C10   C171  A    
C133  O43   A    
C21   C29   A    
O6    Zn6   S    
C113  C193  S    
C81   C121  A    
C23   C31   A    
C24   C32   A    
C65   H25   S    
C190  N2    T    
C146  C154  A    
C92   O24   A    
C63   C71   A    
C36   C44   A    
C89   O21   A    
O36   Zn11  S    
C91   O23   A    
C12   C174  A    
C176  C184  A    
C48   C96   A    
C129  H49   S    
C6    O6    A    
C15   H15   S    
O44   Zn11  S    
C127  H47   S    
C60   C68   A    
C148  C162  A    
C183  C188  A    
C108  C116  A    
O38   Zn10  S    
C21   C93   A    
C78   C94   A    
C7    O31   A    
C23   C95   A    
C135  O35   A    
C49   C97   A    
C21   C42   A    
C22   C41   A    
C51   C107  A    
C24   C43   A    
C64   H24   S    
C185  H9    S    
C16   H16   S    
C82   C122  A    
C161  C165  A    
C17   C175  A    
C18   C176  A    
O20   Zn4   S    
C85   O9    A    
O47   Zn10  S    
C29   C125  A    
C140  O40   A    
C69   C77   A    
C31   C127  A    
C45   C93   A    
C174  C182  A    
O30   Zn1   S    
C71   C79   A    
O17   Zn1   S    
C179  C186  A    
C118  H38   S    
C87   O11   A    
C137  O37   A    
C11   C176  A    
C91   O15   A    
C17   C144  A    
O11   Zn8   S    
C151  H6    S    
C105  C113  A    
C18   C143  A    
C78   C118  A    
C149  C151  A    
C188  H12   S    
C66   C74   A    
C7    O7    A    
C8    C76   S    
C49   C57   A    
C124  C132  A    
C52   C60   A    
C59   C67   A    
C53   C61   A    
C141  C159  A    
C20   C174  A    
C55   C63   A    
C86   C181  S    
C56   C64   A    
C35   C43   A    
C156  H1    S    
C90   O14   A    
C45   C53   A    
O10   Zn5   S    
C110  C190  S    
C138  O38   A    
C22   C94   A    
C171  C179  A    
C169  C177  A    
C50   C98   A    
C133  O33   A    
C104  C112  A    
C3    O3    A    
C145  C163  A    
C146  C164  A    
C14   C147  A    
C52   C100  A    
C134  O44   A    
C16   C145  A    
C178  C186  A    
C25   C38   A    
C54   C139  S    
C46   C94   A    
C27   C40   A    
C10   C166  A    
C57   C65   A    
C91   C180  S    
C62   H22   S    
C182  C188  A    
C89   C178  S    
C2    O2    A    
C8    O8    A    
C25   C97   A    
C191  N3    T    
C67   C75   A    
C136  O42   A    
C111  C191  S    
C121  C129  A    
C22   C30   A    
C20   C141  A    
C63   H23   S    
C15   C146  A    
C58   C135  S    
C68   C76   A    
O24   Zn8   S    
C141  C149  A    
C59   C134  S    
C184  C187  A    
C85   O17   A    
C32   C128  A    
C17   H17   S    
C132  H52   S    
C72   C80   A    
C56   C137  S    
O18   Zn2   S    
C105  H33   S    
C14   H14   S    
C5    C73   S    
C126  H46   S    
C150  H7    S    
C102  H30   S    
C13   C171  A    
C31   C39   A    
O23   Zn7   S    
C140  O46   A    
C117  C125  A    
C4    O4    A    
O16   Zn3   S    
C25   C33   A    
C119  C127  A    
O12   Zn7   S    
O13   Zn2   S    
C157  C167  A    
C30   C126  A    
C158  C168  A    
C164  C165  A    
O21   Zn5   S    
O32   Zn3   S    
O2    Zn2   S    
C40   C115  A    
C101  C109  A    
C177  C185  A    
C103  C111  A    
C86   O18   A    
C162  C166  A    
C79   C119  A    
O48   Zn9   S    
O22   Zn6   S    
C153  C155  A    
C120  H40   S    
C154  C156  A    
C172  C180  A    
C173  C181  A    
C196  N8    T    
C157  C159  A    
C83   C99   A    
C158  C160  A    
O40   Zn9   S    
C74   C82   A    
C6    C74   S    
C109  C189  S    
C47   C103  A    
O42   Zn12  S    
C192  N4    T    
C50   C58   A    
C163  C166  A    
C3    O27   A    
C147  C161  A    
C38   C113  A    
C49   C105  A    
C54   C62   A    
C28   C39   A    
C1    C69   S    
C23   C44   A    
C187  H11   S    
C66   H26   S    
C3    C71   S    
O33   Zn11  S    
C79   C95   A    
C92   C179  S    
O34   Zn12  S    
C46   C54   A    
O8    Zn8   S    
C61   H21   S    
C45   C101  A    
C92   O16   A    
C19   C142  A    
O26   Zn5   S    
C102  C110  A    
C35   C131  A    
O31   Zn4   S    
C4    C72   S    
O35   Zn12  S    
C58   C66   A    
C33   C129  A    
C36   C132  A    
O45   Zn9   S    
C5    O5    A    
C120  C128  A    
C26   C37   A    
C10   C170  A    
C5    O29   A    
C33   C41   A    
C142  C150  A    
C9    C165  A    
C75   C83   A    
C195  N7    T    
C112  C192  S    
C77   C93   A    
C68   H28   S    
C88   O20   A    
C44   C111  A    
C16   C170  A    
C123  H43   S    
C28   C36   A    
C8    O32   A    
C39   C116  A    
C29   C37   A    
C50   C106  A    
C186  H10   S    
C9    C172  A    
C148  C156  A    
C83   C123  A    
C2    C70   S    
C60   C133  S    
C144  C152  A    
C103  H31   S    
C2    O26   A    
C86   O10   A    
C194  N6    T    
C80   C120  A    
O7    Zn7   S    
C70   C78   A    
C53   C140  S    
C67   H27   S    
C135  O41   A    
O41   Zn11  S    
C139  O45   A    
C19   C173  A    
C119  H39   S    
C193  N5    T    
C46   C102  A    
C117  H37   S    
C55   C138  S    
C152  H5    S    
C106  C114  A    
C155  H2    S    
C77   C117  A    
C116  C196  S    
C48   C104  A    
C138  O48   A    
C65   C73   A    
C159  C168  A    
C15   C169  A    
C160  C167  A    
C104  H32   S    
O43   Zn12  S    
O4    Zn4   S    
C131  H51   S    
C57   C136  S    
C80   C96   A    
O14   Zn1   S    
C145  C153  A    
C28   C100  A    
C32   C40   A    
C52   C108  A    
C89   O13   A    
C19   H19   S    
C136  O36   A    
C90   O22   A    
C26   C34   A    
C143  C157  A    
C107  H35   S    
C51   C99   A    
C122  H42   S    
C11   C173  A    
C114  C194  S    
C14   C172  A    
O5    Zn5   S    
C87   C184  S    
C88   C183  S    
C7    C75   S    
O15   Zn4   S    
O19   Zn3   S    
C124  H44   S    
C107  C115  A    
C1    O1    A    
C26   C98   A    
C12   C175  A    
O37   Zn9   S    
C41   C110  A    
C134  O34   A    
C150  C152  A    
C51   C59   A    
C43   C112  A    
C20   H20   S    
C144  C158  A    
C47   C55   A    
C61   C69   A    
C48   C56   A    
C130  H50   S    
C175  C183  A    
C4    O28   A    
C142  C160  A    
C12   C168  A    
C84   C124  A    
C13   C148  A    
C18   H18   S    
O28   Zn7   S    
O29   Zn2   S    
C106  H34   S    
C81   C97   A    
O25   Zn6   S    
C13   H13   S    
C64   C72   A    
O27   Zn8   S    
C115  C195  S    
C125  H45   S    
C180  C185  A    
C101  H29   S    
C1    O25   A    
C34   C130  A    
C47   C95   A    
O46   Zn10  S    
C118  C126  A    
C30   C38   A    
C122  C130  A    
C153  H4    S    
