data_mof_unit_45226.cif
_audit_creation_date              2012-12-11T17:36:21-0500
_audit_creation_method            fapswitch 2.2
_symmetry_space_group_name_H-M    P1
_symmetry_Int_Tables_number       1
_space_group_crystal_system       triclinic
_cell_length_a                    25.851288
_cell_length_b                    6.904377
_cell_length_c                    21.697733
_cell_angle_alpha                 90.000135
_cell_angle_beta                  96.069855
_cell_angle_gamma                 89.999793
_cell_volume                      3851.05228207

loop_
_atom_site_label
_atom_site_type_symbol
_atom_type_description
_atom_site_fract_x
_atom_site_fract_y
_atom_site_fract_z
_atom_type_partial_charge
O1    O     O_R   0.208650 0.594520 0.175450 -0.533777
O2    O     O_R   0.791350 0.405480 0.824550 -0.533777
O3    O     O_R   0.291350 0.094520 0.324550 -0.533778
O4    O     O_R   0.708650 0.905480 0.675450 -0.533778
O5    O     O_R   0.192980 0.260780 0.300160 -0.537653
O6    O     O_R   0.807020 0.739220 0.699840 -0.537653
O7    O     O_R   0.307020 0.760780 0.199840 -0.537651
O8    O     O_R   0.692980 0.239220 0.800160 -0.537651
C1    C     C_R   0.178933 0.432608 0.318529 0.694157
C2    C     C_R   0.821067 0.567392 0.681471 0.694157
C3    C     C_R   0.321067 0.932608 0.181471 0.694159
C4    C     C_R   0.678933 0.067392 0.818529 0.694158
O9    O     O_R   0.202550 0.264660 0.174420 -0.538884
O10   O     O_R   0.797450 0.735340 0.825580 -0.538884
O11   O     O_R   0.297450 0.764660 0.325580 -0.538884
O12   O     O_R   0.702550 0.235340 0.674420 -0.538884
O13   O     O_R   0.300990 0.096480 0.197920 -0.540074
O14   O     O_R   0.699010 0.903520 0.802080 -0.540073
O15   O     O_R   0.199010 0.596480 0.302080 -0.540073
O16   O     O_R   0.800990 0.403520 0.697920 -0.540073
C5    C     C_R   0.191088 0.434032 0.151105 0.705568
C6    C     C_R   0.808912 0.565968 0.848895 0.705567
C7    C     C_R   0.308911 0.934032 0.348895 0.705569
C8    C     C_R   0.691088 0.065968 0.651105 0.705570
O17   O     O_3   0.282290 0.427760 0.257860 -0.366147
O18   O     O_3   0.717710 0.572240 0.742140 -0.366146
O19   O     O_3   0.217710 0.927760 0.242140 -0.366147
O20   O     O_3   0.782290 0.072240 0.757860 -0.366147
V1    V     V_3+5 0.244010 0.152080 0.248540 1.439423
V2    V     V_3+5 0.755990 0.847920 0.751460 1.439423
V3    V     V_3+5 0.255990 0.652080 0.251460 1.439428
V4    V     V_3+5 0.744010 0.347920 0.748540 1.439428
C9    C     C_R   0.658255 0.053292 0.591098 -0.092550
C10   C     C_R   0.341744 0.946708 0.408902 -0.092550
C11   C     C_R   0.841744 0.553288 0.908902 -0.092551
C12   C     C_R   0.158256 0.446712 0.091098 -0.092550
C13   C     C_R   0.649796 0.003704 0.479922 -0.188660
C14   C     C_R   0.350203 0.996311 0.520078 -0.188661
C15   C     C_R   0.850203 0.503628 0.020074 -0.188664
C16   C     C_R   0.149797 0.496372 0.979925 -0.188664
C17   C     C_R   0.681185 0.027617 0.535778 -0.043499
C18   C     C_R   0.318814 0.972395 0.464222 -0.043499
C19   C     C_R   0.818814 0.527565 0.964220 -0.043498
C20   C     C_R   0.181186 0.472435 0.035780 -0.043498
C21   C     C_R   0.603665 0.052032 0.589644 -0.223028
C22   C     C_R   0.396334 0.947962 0.410356 -0.223028
C23   C     C_R   0.896334 0.552053 0.910358 -0.223032
C24   C     C_R   0.103666 0.447947 0.089642 -0.223032
C25   C     C_R   0.570923 0.023797 0.533221 0.090360
C26   C     C_R   0.429076 0.976203 0.466779 0.090359
C27   C     C_R   0.929076 0.523793 0.966779 0.090361
C28   C     C_R   0.070923 0.476207 0.033221 0.090361
C29   C     C_R   0.595389 0.000553 0.478203 0.123833
C30   C     C_R   0.404610 0.999455 0.521797 0.123833
C31   C     C_R   0.904610 0.500500 0.021794 0.123832
C32   C     C_R   0.095390 0.499500 0.978206 0.123832
C33   C     C_R   0.515049 0.015479 0.529405 0.059067
C34   C     C_R   0.484951 0.984522 0.470596 0.059066
C35   C     C_R   0.984951 0.515493 0.970597 0.059068
C36   C     C_R   0.015049 0.484507 0.029403 0.059069
C37   C     C_R   0.511739 0.963646 0.417612 -0.184987
C38   C     C_R   0.488261 0.036360 0.582388 -0.184987
C39   C     C_R   0.988261 0.463582 0.082384 -0.184990
C40   C     C_R   0.011739 0.536418 0.917616 -0.184990
C41   C     C_R   0.565624 0.971760 0.421520 -0.186657
C42   C     C_R   0.434376 0.028252 0.578480 -0.186657
C43   C     C_R   0.934376 0.471677 0.078476 -0.186659
C44   C     C_R   0.065624 0.528323 0.921524 -0.186659
H1    H     H_    0.584299 0.954074 0.379414 0.130685
H2    H     H_    0.415700 0.045945 0.620585 0.130685
H3    H     H_    0.915700 0.453951 0.120579 0.130687
H4    H     H_    0.084300 0.546049 0.879421 0.130687
H5    H     H_    0.411728 0.930508 0.366466 0.098024
H6    H     H_    0.588272 0.069474 0.633535 0.098024
H7    H     H_    0.088272 0.430468 0.133531 0.098026
H8    H     H_    0.911727 0.569531 0.866469 0.098026
H9    H     H_    0.667994 0.984302 0.437500 0.125192
H10   H     H_    0.332005 0.015721 0.562500 0.125192
H11   H     H_    0.832005 0.484189 0.062495 0.125192
H12   H     H_    0.167995 0.515812 0.937505 0.125192
H13   H     H_    0.492201 0.940152 0.371931 0.125539
H14   H     H_    0.507798 0.059860 0.628069 0.125539
H15   H     H_    0.007799 0.440059 0.128064 0.125540
H16   H     H_    0.992201 0.559941 0.871936 0.125540
C45   C     C_R   0.435746 0.798765 0.091655 -0.010882
C46   C     C_R   0.564254 0.201235 0.908345 -0.010882
C47   C     C_R   0.064254 0.298766 0.408345 -0.010881
C48   C     C_R   0.935746 0.701234 0.591656 -0.010881
C49   C     C_R   0.395882 0.785181 0.131049 -0.184516
C50   C     C_R   0.604118 0.214819 0.868950 -0.184516
C51   C     C_R   0.104118 0.285181 0.368950 -0.184522
C52   C     C_R   0.895882 0.714819 0.631050 -0.184526
H17   H     H_    0.391033 0.651439 0.155980 0.126511
H18   H     H_    0.608967 0.348561 0.844020 0.126511
H19   H     H_    0.108968 0.151439 0.344020 0.126511
H20   H     H_    0.891032 0.848562 0.655980 0.126512
C53   C     C_R   0.363073 0.944079 0.139248 -0.068039
C54   C     C_R   0.636926 0.055921 0.860752 -0.068040
C55   C     C_R   0.136926 0.444080 0.360752 -0.068045
C56   C     C_R   0.863074 0.555920 0.639249 -0.068046
C57   C     C_R   0.370677 0.115987 0.106469 -0.157306
C58   C     C_R   0.629323 0.884012 0.893531 -0.157306
C59   C     C_R   0.129322 0.615989 0.393530 -0.157301
C60   C     C_R   0.870679 0.384010 0.606471 -0.157299
H21   H     H_    0.346243 0.241076 0.111465 0.152943
H22   H     H_    0.653756 0.758924 0.888535 0.152942
H23   H     H_    0.153755 0.741079 0.388533 0.152947
H24   H     H_    0.846246 0.258920 0.611468 0.152949
C61   C     C_R   0.409473 0.128615 0.066235 -0.104720
C62   C     C_R   0.590526 0.871385 0.933765 -0.104720
C63   C     C_R   0.090526 0.628617 0.433765 -0.104716
C64   C     C_R   0.909475 0.371383 0.566236 -0.104715
H25   H     H_    0.413703 0.262001 0.040987 0.151080
H26   H     H_    0.586296 0.737998 0.959013 0.151080
H27   H     H_    0.086295 0.762003 0.459013 0.151082
H28   H     H_    0.913705 0.237996 0.540988 0.151082
C65   C     C_R   0.442546 0.971612 0.058660 0.067569
C66   C     C_R   0.557454 0.028388 0.941340 0.067569
C67   C     C_R   0.057454 0.471613 0.441339 0.067567
C68   C     C_R   0.942546 0.528387 0.558661 0.067567
C69   C     C_1   0.483117 0.991444 0.017249 0.006433
C70   C     C_1   0.516883 0.008556 0.982750 0.006433
C71   C     C_1   0.016883 0.491445 0.482751 0.006433
C72   C     C_1   0.983117 0.508555 0.517250 0.006433
C73   C     C_1   0.262978 0.978552 0.464581 0.286580
N1    N     N_1   0.218272 0.984175 0.464932 -0.370081
C74   C     C_1   0.737021 0.021468 0.535418 0.286580
N2    N     N_1   0.781727 0.015851 0.535066 -0.370082
C75   C     C_1   0.237022 0.478609 0.035422 0.286580
N3    N     N_1   0.281728 0.484245 0.035072 -0.370078
C76   C     C_1   0.762978 0.521391 0.964578 0.286579
N4    N     N_1   0.718272 0.515755 0.964928 -0.370077
C77   C     C_1   0.469782 0.635106 0.086428 0.295611
N5    N     N_1   0.497275 0.504542 0.082281 -0.347116
C78   C     C_1   0.530217 0.364894 0.913572 0.295610
N6    N     N_1   0.502725 0.495458 0.917719 -0.347116
C79   C     C_1   0.030218 0.135107 0.413572 0.295610
N7    N     N_1   0.002725 0.004543 0.417718 -0.347116
C80   C     C_1   0.969782 0.864893 0.586429 0.295609
N8    N     N_1   0.997275 0.995457 0.582282 -0.347116

loop_
_geom_bond_atom_site_label_1
_geom_bond_atom_site_label_2
_ccdc_geom_bond_type
O17   V3    S    
C55   C59   A    
O1    C5    A    
C47   C51   A    
O19   V1    S    
C9    C21   A    
C17   C74   S    
O3    C7    A    
C10   C18   A    
O1    V3    S    
O15   V3    S    
C62   C66   A    
C61   C65   A    
C71   C72   T    
C5    C12   S    
C42   H2    S    
O7    C3    A    
C6    C11   S    
C35   C40   A    
C26   C30   A    
C36   C39   A    
C40   C44   A    
O2    V4    S    
O9    V1    S    
O10   V2    S    
C23   H8    S    
C14   C18   A    
O4    C8    A    
C25   C29   A    
C43   H3    S    
C15   H11   S    
C57   C61   A    
C60   H24   S    
C52   H20   S    
O13   V1    S    
C59   C63   A    
C66   C70   S    
O3    V1    S    
C65   C69   S    
C40   H16   S    
C28   C36   A    
C18   C73   S    
C68   C72   S    
C1    O15   A    
C56   C60   A    
C15   C31   A    
C48   C52   A    
C2    O16   A    
C16   C32   A    
O2    C6    A    
C16   H12   S    
C58   H22   S    
C10   C22   A    
C21   C25   A    
C48   C68   A    
C11   C19   A    
C62   H26   S    
C16   C20   A    
C4    C54   S    
C44   H4    S    
C13   C29   A    
C34   C37   A    
O11   C7    A    
C38   H14   S    
C11   C23   A    
C35   C36   A    
O12   C8    A    
O17   V1    S    
C24   H7    S    
C47   C67   A    
C47   C79   S    
C50   H18   S    
O5    V1    S    
C57   H21   S    
C39   C43   A    
O7    V3    S    
C38   C42   A    
O19   V3    S    
C26   C34   A    
C78   N6    T    
C49   C53   A    
C46   C50   A    
C64   C68   A    
C45   C49   A    
O18   V4    S    
C15   C19   A    
C14   H10   S    
C33   C38   A    
C20   C75   S    
C32   C44   A    
C13   H9    S    
C49   H17   S    
C39   H15   S    
C21   H6    S    
O8    V4    S    
C37   H13   S    
C2    C56   S    
C48   C80   S    
O5    C1    A    
C37   C41   A    
C63   H27   S    
C31   C43   A    
C14   C30   A    
O20   V4    S    
O8    C4    A    
C7    C10   S    
O9    C5    A    
C46   C66   A    
C45   C65   A    
C69   C70   T    
O14   V2    S    
C63   C67   A    
O6    V2    S    
O18   V2    S    
C67   C71   S    
C73   N1    T    
C58   C62   A    
C27   C35   A    
C76   N4    T    
C64   H28   S    
C29   C41   A    
C52   C56   A    
C60   C64   A    
C75   N3    T    
O16   V4    S    
C3    O13   A    
O6    C2    A    
C25   C33   A    
C23   C27   A    
C80   N8    T    
O11   V3    S    
C30   C42   A    
C61   H25   S    
O12   V4    S    
C79   N7    T    
C22   C26   A    
C8    C9    S    
C3    C53   S    
C9    C17   A    
O10   C6    A    
C19   C76   S    
C54   C58   A    
C33   C34   A    
C77   N5    T    
C41   H1    S    
O20   V2    S    
C12   C24   A    
C27   C31   A    
C13   C17   A    
O4    V2    S    
C12   C20   A    
C51   H19   S    
C28   C32   A    
C46   C78   S    
C24   C28   A    
C1    C55   S    
C4    O14   A    
C59   H23   S    
C51   C55   A    
C50   C54   A    
C22   H5    S    
C53   C57   A    
C74   N2    T    
C45   C77   S    
