data_mof_unit_13566.cif
_audit_creation_date              2012-12-10T17:03:53-0500
_audit_creation_method            fapswitch 2.2
_symmetry_space_group_name_H-M    P1
_symmetry_Int_Tables_number       1
_space_group_crystal_system       triclinic
_cell_length_a                    9.8232
_cell_length_b                    11.063877
_cell_length_c                    15.584507
_cell_angle_alpha                 95.16939
_cell_angle_beta                  78.939582
_cell_angle_gamma                 112.3196
_cell_volume                      1537.48745931

loop_
_atom_site_label
_atom_site_type_symbol
_atom_type_description
_atom_site_fract_x
_atom_site_fract_y
_atom_site_fract_z
_atom_type_partial_charge
C1    C     C_R   0.558516 0.746399 0.505430 0.801708
C2    C     C_R   0.441401 0.253626 0.494724 0.812658
C3    C     C_R   0.312031 0.332188 0.069742 -0.024273
C4    C     C_R   0.668052 0.439504 0.912446 -0.050864
C5    C     C_R   0.208882 0.308537 0.013579 -0.162119
C6    C     C_R   0.771879 0.469373 0.968798 -0.169746
C7    C     C_2   0.597444 0.888040 0.505368 -0.193792
C8    C     C_2   0.402161 0.112041 0.495248 -0.188295
C9    C     C_2   0.486651 0.931721 0.507556 -0.171512
C10   C     C_2   0.512904 0.068156 0.492611 -0.161612
C11   C     C_2   0.922743 0.489533 0.492362 -0.042362
C12   C     C_2   0.076945 0.509979 0.507927 -0.049921
C13   C     C_R   0.410209 0.483214 0.663573 0.818921
C14   C     C_R   0.588797 0.512004 0.336177 0.824903
C15   C     C_R   0.351646 0.449348 0.756370 -0.087081
C16   C     C_R   0.640790 0.507667 0.240919 -0.092050
C17   C     C_R   0.150094 0.322450 0.868487 -0.012958
C18   C     C_R   0.838051 0.520904 0.116350 0.007266
C19   C     C_R   0.200512 0.375500 0.784402 -0.184820
C20   C     C_R   0.790077 0.528147 0.206807 -0.202937
C21   C     C_R   0.452725 0.471713 0.813382 -0.170560
C22   C     C_R   0.537782 0.475807 0.184025 -0.158232
C23   C     C_R   0.408984 0.411268 0.894868 0.095231
C24   C     C_R   0.577040 0.450275 0.094649 0.095762
C25   C     C_R   0.254434 0.346833 0.926087 0.045797
C26   C     C_R   0.730775 0.482290 0.059361 0.041952
C27   C     C_R   0.515848 0.419105 0.947495 -0.012668
C28   C     C_R   0.467462 0.400798 0.038835 -0.005592
Cu1   Cu    Cu3+1 0.362980 0.479380 0.485080 0.994292
Cu2   Cu    Cu3+1 0.637020 0.520620 0.514920 0.999849
H1    H     H_    0.870756 0.554176 0.250590 0.187936
H2    H     H_    0.122945 0.352858 0.738942 0.193935
H3    H     H_    0.627331 0.137216 0.481083 0.201016
H4    H     H_    0.372316 0.862468 0.518474 0.202897
H5    H     H_    0.110682 0.383623 0.414845 0.209294
H6    H     H_    0.889500 0.616634 0.584986 0.208364
N1    N     N_2   0.842890 0.551600 0.537350 -0.279381
N2    N     N_2   0.157110 0.448400 0.462650 -0.274763
O1    O     O_R   0.426810 0.668300 0.492040 -0.574853
O2    O     O_R   0.573190 0.331700 0.507960 -0.571046
O3    O     O_R   0.658240 0.703130 0.517240 -0.545439
O4    O     O_R   0.341760 0.296870 0.482760 -0.547010
O5    O     O_R   0.319390 0.472820 0.610170 -0.579648
O6    O     O_R   0.680610 0.527180 0.389830 -0.576544
O7    O     O_R   0.550820 0.507640 0.635370 -0.557494
O8    O     O_R   0.449180 0.492360 0.364630 -0.563283
H7    H     H_    0.091745 0.260739 0.039784 0.215274
H8    H     H_    0.884896 0.479094 0.940866 0.215218
H9    H     H_    0.426016 0.471450 0.210228 0.163662
H10   H     H_    0.567329 0.535835 0.792888 0.148325
C29   C     C_2   0.991849 0.231419 0.889518 0.830948
O9    O     O_2   0.894754 0.251444 0.861217 -0.579954
O10   O     O_R   0.954663 0.118035 0.936410 -0.743837
H11   H     H_    0.843829 0.063279 0.944961 0.354119
C30   C     C_2   0.000769 0.555442 0.084921 0.820849
O11   O     O_2   0.072778 0.517967 0.124795 -0.577329
O12   O     O_R   0.073361 0.635648 0.012664 -0.745375
H12   H     H_    0.183936 0.651845 0.998193 0.346103
C31   C     C_2   0.253432 0.263661 0.154540 0.851704
O13   O     O_2   0.324809 0.210523 0.182138 -0.567507
O14   O     O_R   0.114038 0.256176 0.201411 -0.737478
H13   H     H_    0.086007 0.206629 0.257807 0.341965
C32   C     C_2   0.719816 0.410034 0.819692 0.908643
O15   O     O_2   0.638660 0.318455 0.780514 -0.541531
O16   O     O_R   0.863901 0.484215 0.778214 -0.755556
H14   H     H_    0.887125 0.453521 0.715781 0.333498
C33   C     C_2   0.242529 0.023956 0.500735 0.883286
O17   O     O_2   0.145817 0.051763 0.550517 -0.568149
O18   O     O_R   0.202507 0.912159 0.446971 -0.742344
H15   H     H_    0.090906 0.860347 0.457134 0.359163
C34   C     C_2   0.756727 0.976535 0.501107 0.877551
O19   O     O_2   0.854558 0.949368 0.452012 -0.571379
O20   O     O_R   0.795069 0.088094 0.555204 -0.734302
H16   H     H_    0.906596 0.140192 0.545966 0.356465
H17   H     H_    0.122759 0.578791 0.558754 0.162558
H18   H     H_    0.876730 0.420424 0.441718 0.164487

loop_
_geom_bond_atom_site_label_1
_geom_bond_atom_site_label_2
_ccdc_geom_bond_type
C30   O11   D    
C32   O16   S    
Cu1   O4    S    
O20   H16   S    
Cu2   O7    S    
C18   C26   A    
C17   C29   S    
C14   O8    A    
O10   H11   S    
C15   C19   A    
C5    H7    S    
C4    C32   S    
C6    H8    S    
H6    N1    S    
C24   C26   A    
C11   H18   S    
C7    C34   S    
C11   N1    D    
Cu1   N2    S    
Cu2   O3    S    
C14   C16   S    
C23   C27   A    
C9    C10   S    
C31   O13   D    
Cu1   O5    S    
Cu2   O6    S    
O14   H13   S    
C19   H2    S    
C21   H10   S    
C21   C23   A    
C31   O14   S    
C33   O17   D    
H5    N2    S    
C4    C6    A    
C34   O20   S    
C29   O9    D    
Cu2   N1    S    
C29   O10   S    
Cu1   Cu2   S    
C16   C20   A    
Cu1   O1    S    
Cu2   O2    S    
C18   C30   S    
C22   H9    S    
C5    C25   A    
C1    O3    A    
C13   C15   S    
C9    H4    S    
C22   C24   A    
C13   O5    A    
C4    C27   A    
C14   O6    A    
C7    C9    D    
C3    C28   A    
C16   C22   A    
C1    C7    S    
C2    C8    S    
C24   C28   A    
C3    C5    A    
C11   C12   S    
Cu1   O8    S    
C17   C25   A    
C30   O12   S    
C34   O19   D    
C13   O7    A    
O12   H12   S    
C6    C26   A    
C2    O4    A    
C17   C19   A    
C10   H3    S    
C18   C20   A    
C23   C25   A    
C12   N2    D    
O18   H15   S    
C1    O1    A    
C32   O15   D    
C2    O2    A    
C15   C21   A    
C8    C33   S    
C8    C10   D    
O16   H14   S    
C12   H17   S    
C27   C28   A    
C33   O18   S    
C20   H1    S    
C3    C31   S    
