data_mof_unit_13670.cif
_audit_creation_date              2012-12-11T17:41:25-0500
_audit_creation_method            fapswitch 2.2
_symmetry_space_group_name_H-M    P1
_symmetry_Int_Tables_number       1
_space_group_crystal_system       triclinic
_cell_length_a                    15.537761
_cell_length_b                    15.10047
_cell_length_c                    14.950746
_cell_angle_alpha                 109.246818
_cell_angle_beta                  120.012995
_cell_angle_gamma                 58.455063
_cell_volume                      2577.64648615

loop_
_atom_site_label
_atom_site_type_symbol
_atom_type_description
_atom_site_fract_x
_atom_site_fract_y
_atom_site_fract_z
_atom_type_partial_charge
C1    C     C_R   0.792644 0.951832 0.778914 0.314253
C2    C     C_R   0.195411 0.069011 0.233287 0.281989
C3    C     C_R   0.204813 0.299294 0.564095 0.086040
C4    C     C_R   0.862279 0.724603 0.512536 0.086890
C5    C     C_R   0.504275 0.301993 0.445778 0.028056
C6    C     C_R   0.497589 0.677360 0.457124 0.014014
C7    C     C_R   0.498064 0.920873 0.791971 0.068784
C8    C     C_R   0.498795 0.969785 0.172238 0.052436
C9    C     C_R   0.797150 0.579141 0.877454 0.382866
C10   C     C_R   0.208314 0.268412 0.011955 0.377880
C11   C     C_R   0.697089 0.661044 0.880371 -0.184583
C12   C     C_R   0.303238 0.173638 0.018359 -0.172247
C13   C     C_R   0.695297 0.752392 0.946278 0.062252
C14   C     C_R   0.295477 0.078524 0.983618 0.061481
C15   C     C_R   0.794748 0.761555 0.009395 -0.187802
C16   C     C_R   0.191797 0.078910 0.941844 -0.187706
C17   C     C_R   0.894090 0.681194 0.004822 -0.154869
C18   C     C_R   0.097702 0.173027 0.937452 -0.176877
C19   C     C_R   0.895405 0.590176 0.939324 -0.140730
C20   C     C_R   0.105993 0.267264 0.972597 -0.120015
C21   C     C_R   0.588095 0.857138 0.052676 -0.236042
C22   C     C_R   0.394035 0.944378 0.882046 -0.243035
C23   C     C_R   0.239075 0.289826 0.489773 -0.185707
C24   C     C_R   0.802088 0.725888 0.557398 -0.153216
C25   C     C_R   0.492970 0.935873 0.066965 0.057158
C26   C     C_R   0.494477 0.888447 0.872004 0.042184
C27   C     C_R   0.393709 0.980221 0.979433 0.048109
C28   C     C_R   0.591199 0.834131 0.955855 0.051365
C29   C     C_2   0.138215 0.398850 0.609378 0.275730
C30   C     C_2   0.976102 0.647156 0.524875 0.262997
C31   C     C_2   0.135278 0.487774 0.603355 -0.154336
C32   C     C_2   0.041725 0.589235 0.606610 -0.154061
C33   C     C_2   0.933630 0.019943 0.872638 -0.237324
C34   C     C_2   0.035402 0.026943 0.148240 -0.213934
C35   C     C_R   0.224475 0.808413 0.581667 -0.210529
C36   C     C_R   0.726085 0.157926 0.261320 -0.204117
C37   C     C_R   0.318854 0.725210 0.568809 0.307272
C38   C     C_R   0.641507 0.244449 0.287085 0.311339
C39   C     C_R   0.310452 0.672853 0.469074 -0.037395
C40   C     C_R   0.667167 0.297501 0.387704 -0.026291
C41   C     C_R   0.205396 0.703309 0.383146 0.201896
C42   C     C_R   0.779183 0.262115 0.461830 0.205975
C43   C     C_R   0.110973 0.787100 0.398567 0.352896
C44   C     C_R   0.863486 0.175283 0.433094 0.357794
C45   C     C_R   0.594653 0.218659 0.497605 -0.198858
C46   C     C_R   0.408009 0.772386 0.439600 -0.185292
C47   C     C_R   0.122005 0.838689 0.497831 -0.269684
C48   C     C_R   0.835545 0.124454 0.332977 -0.269275
C49   C     C_R   0.422174 0.486178 0.462146 -0.240162
C50   C     C_R   0.569699 0.490297 0.411468 -0.246162
C51   C     C_R   0.502838 0.394207 0.438157 0.074780
C52   C     C_R   0.488059 0.582506 0.435822 0.065881
C53   C     C_R   0.578068 0.394384 0.412037 0.084651
C54   C     C_R   0.409184 0.580521 0.455615 0.095039
C55   C     C_2   0.932385 0.031338 0.963955 -0.088406
C56   C     C_2   0.031257 0.018421 0.055013 -0.126912
C57   C     C_R   0.407607 0.979494 0.711322 -0.119519
C58   C     C_R   0.592301 0.957198 0.266057 -0.116167
C59   C     C_R   0.410923 0.289858 0.415227 0.308557
C60   C     C_R   0.590954 0.693451 0.528106 0.326948
C61   C     C_R   0.589691 0.908001 0.786464 -0.136948
C62   C     C_R   0.408218 0.022801 0.195637 -0.133361
C63   C     C_R   0.239584 0.198438 0.581739 -0.113400
C64   C     C_R   0.799640 0.815109 0.463411 -0.132906
C65   C     C_R   0.789529 0.048935 0.690102 -0.207666
C66   C     C_R   0.197334 0.971748 0.319176 -0.225549
C67   C     C_R   0.842772 0.007440 0.783194 0.114616
C68   C     C_R   0.135912 0.026393 0.233744 0.137904
H1    H     H_    0.972970 0.527937 0.937342 0.126840
H2    H     H_    0.032655 0.339620 0.968505 0.126478
H3    H     H_    0.795095 0.831069 0.061682 0.128933
H4    H     H_    0.184235 0.006379 0.912570 0.117192
H5    H     H_    0.229754 0.849796 0.657404 0.142931
H6    H     H_    0.707589 0.116570 0.184611 0.143619
H7    H     H_    0.227762 0.175732 0.634645 0.107115
H8    H     H_    0.828036 0.846710 0.433950 0.104640
H9    H     H_    0.103125 0.003670 0.045746 0.144109
H10   H     H_    0.860058 0.043657 0.970483 0.142149
N1    N     N_R   0.705410 0.966550 0.689210 -0.060394
N2    N     N_R   0.294590 0.033450 0.310790 -0.058953
N3    N     N_R   0.294590 0.188320 0.465660 -0.032697
N4    N     N_R   0.705410 0.811680 0.534340 -0.037387
N5    N     N_R   0.556610 0.157790 0.497330 -0.052315
N6    N     N_R   0.443390 0.842210 0.502670 -0.053475
N7    N     N_R   0.443390 0.997080 0.657540 -0.043336
N8    N     N_R   0.556610 0.002920 0.342460 -0.039657
N9    N     N_R   0.443390 0.203250 0.451380 -0.052780
N10   N     N_R   0.556610 0.796750 0.548620 -0.056847
N11   N     N_R   0.556610 0.951620 0.703500 -0.042220
N12   N     N_R   0.443390 0.048380 0.296500 -0.038434
N13   N     N_R   0.294590 0.131500 0.522480 -0.039767
N14   N     N_R   0.705410 0.868500 0.477520 -0.042008
N15   N     N_R   0.705410 0.023370 0.632390 -0.054096
N16   N     N_R   0.294590 0.976630 0.367610 -0.052191
Ni1   Ni    Ni4+2 0.629830 0.882720 0.617850 0.205499
Ni2   Ni    Ni4+2 0.370170 0.117280 0.382150 0.210702
Ni3   Ni    Ni4+2 0.629830 0.013030 0.487540 0.208795
Ni4   Ni    Ni4+2 0.370170 0.986970 0.512460 0.210986
C69   C     C_3   0.848014 0.861275 0.840052 -1.053667
H11   H     H_    0.939122 0.825929 0.866730 0.263656
H12   H     H_    0.828212 0.887838 0.908874 0.246338
H13   H     H_    0.820999 0.799683 0.790717 0.247555
C70   C     C_3   0.142021 0.173355 0.194227 -1.027125
H14   H     H_    0.066126 0.184428 0.121895 0.264292
H15   H     H_    0.118335 0.235973 0.253787 0.255355
H16   H     H_    0.198694 0.182913 0.178364 0.252419
H17   H     H_    0.968461 0.033847 0.160007 0.132862
H18   H     H_    0.002815 0.012358 0.864408 0.128259
C71   C     C_3   0.800387 0.478912 0.811666 -1.087344
H19   H     H_    0.844297 0.458583 0.762569 0.274253
H20   H     H_    0.844643 0.415396 0.862044 0.257633
H21   H     H_    0.715848 0.484899 0.760685 0.258789
C72   C     C_3   0.213830 0.371016 0.042299 -1.090262
H22   H     H_    0.177770 0.418333 0.100212 0.263893
H23   H     H_    0.300013 0.360333 0.075796 0.270869
H24   H     H_    0.166138 0.414292 0.972616 0.256493
H25   H     H_    0.621638 0.651873 0.835185 0.138723
H26   H     H_    0.382420 0.173573 0.046893 0.127850
H27   H     H_    0.970308 0.688991 0.052949 0.142382
H28   H     H_    0.017907 0.173415 0.905942 0.135335
H29   H     H_    0.661809 0.816852 0.117729 0.132915
H30   H     H_    0.317476 0.980079 0.817075 0.127624
H31   H     H_    0.015869 0.607070 0.668220 0.122434
H32   H     H_    0.190461 0.484745 0.577018 0.120444
C73   C     C_3   0.011867 0.626060 0.439588 -0.979769
H33   H     H_    0.946235 0.678051 0.376726 0.246308
H34   H     H_    0.086712 0.638784 0.471960 0.253798
H35   H     H_    0.030568 0.544419 0.404158 0.247789
C74   C     C_3   0.064990 0.401542 0.650098 -1.002473
H36   H     H_    0.076913 0.322648 0.650142 0.241584
H37   H     H_    0.084274 0.438157 0.731185 0.250459
H38   H     H_    0.976593 0.447108 0.601063 0.249017
H39   H     H_    0.050580 0.902662 0.510846 0.160436
H40   H     H_    0.899021 0.058533 0.309703 0.153432
H41   H     H_    0.223355 0.352348 0.455957 0.123811
H42   H     H_    0.834228 0.676398 0.615003 0.112489
C75   C     C_3   0.427310 0.692219 0.662075 -1.030353
H43   H     H_    0.461538 0.608437 0.670375 0.250759
H44   H     H_    0.486913 0.704785 0.653490 0.263880
H45   H     H_    0.417465 0.737500 0.734496 0.250622
C76   C     C_3   0.524844 0.280384 0.205776 -1.034436
H46   H     H_    0.489210 0.364110 0.196237 0.258656
H47   H     H_    0.521118 0.235753 0.129261 0.245324
H48   H     H_    0.474249 0.269093 0.229302 0.258285
C77   C     C_3   0.192365 0.648154 0.275244 -0.997162
H49   H     H_    0.271222 0.586365 0.270312 0.261526
H50   H     H_    0.137011 0.610949 0.249050 0.258137
H51   H     H_    0.156124 0.705377 0.220405 0.251145
C78   C     C_3   0.810054 0.314734 0.571190 -1.023722
H52   H     H_    0.737458 0.375873 0.587670 0.262588
H53   H     H_    0.856536 0.256472 0.628027 0.256966
H54   H     H_    0.862178 0.351194 0.584543 0.267419
C79   C     C_3   0.997928 0.822218 0.310208 -1.062088
H55   H     H_    0.933019 0.885247 0.337100 0.248068
H56   H     H_    0.997468 0.852279 0.251403 0.249936
H57   H     H_    0.975560 0.756060 0.273384 0.264611
C80   C     C_3   0.983650 0.136291 0.507659 -1.028521
H58   H     H_    0.038171 0.069304 0.471471 0.248544
H59   H     H_    0.009596 0.199438 0.532726 0.261007
H60   H     H_    0.996436 0.110209 0.576406 0.247268
H61   H     H_    0.368492 0.485069 0.487626 0.138273
H62   H     H_    0.628954 0.493216 0.395468 0.153582
H63   H     H_    0.680830 0.198931 0.525020 0.133365
H64   H     H_    0.323454 0.788289 0.388879 0.138067
H65   H     H_    0.322947 0.993024 0.682276 0.097119
H66   H     H_    0.677809 0.918936 0.277076 0.094838
C81   C     C_3   0.301447 0.341205 0.328596 -1.075400
H67   H     H_    0.252978 0.422467 0.353805 0.252717
H68   H     H_    0.314503 0.341512 0.262418 0.272556
H69   H     H_    0.252569 0.297811 0.302049 0.264021
C82   C     C_3   0.696045 0.615571 0.597997 -1.074711
H70   H     H_    0.676898 0.566652 0.619752 0.272616
H71   H     H_    0.751968 0.564378 0.557670 0.254933
H72   H     H_    0.736656 0.655771 0.670921 0.256269
H73   H     H_    0.673624 0.856672 0.828774 0.132532
H74   H     H_    0.324854 0.035165 0.144804 0.127088
H75   H     H_    0.814111 0.088124 0.664749 0.118553
H76   H     H_    0.168543 0.940940 0.349048 0.123881

loop_
_geom_bond_atom_site_label_1
_geom_bond_atom_site_label_2
_ccdc_geom_bond_type
C33   C55   D    
C66   C68   A    
C55   C56   S    
C34   C56   D    
C80   H58   S    
C8    C25   S    
N15   Ni3   S    
C50   H62   S    
C3    C23   A    
C61   H73   S    
C82   H70   S    
C35   C47   A    
C1    C69   S    
C42   C78   S    
C77   H49   S    
C60   N10   A    
C78   H52   S    
C39   C41   A    
C74   H37   S    
C75   H44   S    
C7    C26   S    
C65   H75   S    
C34   H17   S    
C48   H40   S    
C35   C37   A    
C31   H32   S    
N1    N15   A    
C2    C68   A    
C71   H20   S    
C4    C24   A    
C39   C54   S    
C57   H65   S    
N16   Ni4   S    
C49   C54   A    
N4    N14   A    
C3    C29   S    
N8    Ni3   S    
C24   N4    A    
C7    C61   A    
N7    Ni4   S    
C8    C58   A    
C72   H22   S    
C17   H27   S    
C9    C19   A    
C29   C74   S    
C69   H11   S    
C10   C20   A    
C49   C51   A    
C16   H4    S    
C73   H35   S    
C50   C52   A    
C13   C28   S    
C14   C27   S    
C79   H56   S    
C6    C46   A    
C49   H61   S    
C66   N16   A    
C72   H24   S    
C24   H42   S    
C40   C42   A    
N10   Ni1   S    
C80   H59   S    
C38   C40   A    
C46   H64   S    
C47   H39   S    
C44   C80   S    
C41   C43   A    
C32   H31   S    
C20   H2    S    
C45   N5    A    
C33   H18   S    
C42   C44   A    
C58   N8    A    
C77   H50   S    
C61   N11   A    
N14   Ni3   S    
C22   H30   S    
C81   H69   S    
C10   C12   A    
C9    C71   S    
C82   H72   S    
C50   C53   A    
C5    C59   A    
C6    C60   A    
C2    N2    A    
C81   H68   S    
N8    N12   A    
C71   H21   S    
C34   C68   S    
C81   H67   S    
N3    Ni2   S    
N7    N11   A    
C17   C19   A    
C65   C67   A    
C5    C45   A    
C56   H9    S    
C51   C53   A    
C76   H47   S    
N11   Ni1   S    
N1    Ni1   S    
C66   H76   S    
C31   C32   S    
C62   H74   S    
N9    Ni2   S    
C64   H8    S    
C52   C54   A    
C70   H15   S    
C79   H57   S    
C9    C11   A    
C10   C72   S    
C36   H6    S    
C46   N6    A    
C16   C18   A    
C69   H12   S    
C21   C28   A    
C12   C14   A    
C80   H60   S    
C22   C27   A    
C13   C15   A    
N5    Ni3   S    
C73   H33   S    
C1    N1    A    
C38   C76   S    
C14   C16   A    
C78   H54   S    
N2    Ni2   S    
C64   N14   A    
N2    N16   A    
C11   H25   S    
C18   H28   S    
C77   H51   S    
C59   C81   S    
C33   C67   S    
C74   H36   S    
C12   H26   S    
C15   C17   A    
C21   C25   A    
C35   H5    S    
N4    Ni1   S    
C23   N3    A    
C60   C82   S    
N6    N10   A    
N5    N9    A    
N12   Ni2   S    
C76   H48   S    
C3    C63   A    
C82   H71   S    
C15   H3    S    
C75   H43   S    
C4    C64   A    
C26   C28   A    
C23   H41   S    
N6    Ni4   S    
C74   H38   S    
C78   H53   S    
C45   H63   S    
C29   C31   D    
C43   C79   S    
C76   H46   S    
C30   C32   D    
C11   C13   A    
C63   H7    S    
C2    C70   S    
C75   H45   S    
C62   N12   A    
C36   C38   A    
C65   N15   A    
C1    C67   A    
C57   N7    A    
C36   C48   A    
C70   H16   S    
C18   C20   A    
N13   Ni4   S    
C21   H29   S    
C58   H66   S    
C59   N9    A    
C30   C73   S    
C19   H1    S    
C55   H10   S    
N3    N13   A    
C69   H13   S    
C41   C77   S    
C37   C39   A    
C40   C53   S    
C22   C26   A    
C63   N13   A    
C70   H14   S    
C73   H34   S    
C5    C51   S    
C37   C75   S    
C6    C52   S    
C79   H55   S    
C71   H19   S    
C43   C47   A    
C7    C57   A    
C4    C30   S    
C44   C48   A    
C8    C62   A    
C72   H23   S    
C25   C27   A    
