data_mof_unit_34995.cif
_audit_creation_date              2012-12-11T15:14:49-0500
_audit_creation_method            fapswitch 2.2
_symmetry_space_group_name_H-M    P1
_symmetry_Int_Tables_number       1
_space_group_crystal_system       triclinic
_cell_length_a                    22.286898
_cell_length_b                    7.231372
_cell_length_c                    19.243448
_cell_angle_alpha                 90.000467
_cell_angle_beta                  99.088428
_cell_angle_gamma                 89.998897
_cell_volume                      3062.4320082

loop_
_atom_site_label
_atom_site_type_symbol
_atom_type_description
_atom_site_fract_x
_atom_site_fract_y
_atom_site_fract_z
_atom_type_partial_charge
O1    O     O_R   0.448470 0.506130 0.415700 -0.531806
O2    O     O_R   0.551530 0.006130 0.584300 -0.531802
O3    O     O_R   0.436320 0.174490 0.555800 -0.533675
O4    O     O_R   0.563680 0.674490 0.444200 -0.533670
C1    C     C_R   0.421188 0.344388 0.575198 0.703001
C2    C     C_R   0.578812 0.844385 0.424802 0.703016
O5    O     O_R   0.441350 0.176340 0.414480 -0.534139
O6    O     O_R   0.558650 0.676340 0.585520 -0.534135
O7    O     O_R   0.556600 0.007100 0.441970 -0.532952
O8    O     O_R   0.443400 0.507100 0.558030 -0.532954
C3    C     C_R   0.427224 0.344689 0.389035 0.709189
C4    C     C_R   0.572776 0.844687 0.610965 0.709198
O9    O     O_3   0.537810 0.339550 0.509190 -0.373663
O10   O     O_3   0.462190 0.839550 0.490810 -0.373675
V1    V     V_3+5 0.492990 0.064280 0.498300 1.444243
V2    V     V_3+5 0.507010 0.564280 0.501700 1.444259
C5    C     C_R   0.866770 0.983279 0.695435 -0.161228
C6    C     C_R   0.133227 0.483250 0.304567 -0.161206
H1    H     H_    0.954046 0.010621 0.759725 0.115831
H2    H     H_    0.045950 0.510589 0.240277 0.115930
H3    H     H_    0.784221 0.981750 0.580187 0.125086
H4    H     H_    0.215775 0.481712 0.419815 0.125006
H5    H     H_    0.884973 0.013165 0.647647 0.119982
H6    H     H_    0.115023 0.513122 0.352355 0.119986
C7    C     C_R   0.884639 0.942566 0.821838 -0.041479
C8    C     C_R   0.115360 0.442562 0.178163 -0.041523
C9    C     C_R   0.590057 0.813258 0.739832 -0.244914
C10   C     C_R   0.409945 0.313280 0.260167 -0.244949
C11   C     C_R   0.626823 0.809805 0.805302 0.698025
C12   C     C_R   0.373180 0.309835 0.194696 0.698056
C13   C     C_R   0.689116 0.841839 0.811314 -0.249405
C14   C     C_R   0.310886 0.341861 0.188685 -0.249367
C15   C     C_R   0.716573 0.878956 0.751350 -0.010682
C16   C     C_R   0.283428 0.378961 0.248650 -0.010697
C17   C     C_R   0.678219 0.884238 0.684095 0.063658
C18   C     C_R   0.321780 0.384235 0.315905 0.063670
C19   C     C_R   0.780711 0.910672 0.755908 0.111514
C20   C     C_R   0.219289 0.410670 0.244092 0.111515
C21   C     C_R   0.804485 0.948778 0.693080 0.136522
C22   C     C_R   0.195513 0.448759 0.306921 0.136517
C23   C     C_R   0.766096 0.953115 0.628138 -0.198942
C24   C     C_R   0.233901 0.453088 0.371864 -0.198983
C25   C     C_R   0.704113 0.921009 0.623588 -0.155341
C26   C     C_R   0.295885 0.420990 0.376413 -0.155353
C27   C     C_R   0.822338 0.906845 0.820337 -0.207668
C28   C     C_R   0.177663 0.406851 0.179663 -0.207647
C29   C     C_R   0.906292 0.981419 0.759202 -0.161669
C30   C     C_R   0.093706 0.481396 0.240799 -0.161574
C31   C     C_R   0.614684 0.850661 0.678882 -0.169750
C32   C     C_R   0.385317 0.350666 0.321118 -0.169745
H7    H     H_    0.807913 0.879077 0.870177 0.101581
H8    H     H_    0.192089 0.379096 0.129822 0.101616
H9    H     H_    0.541862 0.786146 0.736570 0.144226
H10   H     H_    0.458141 0.286175 0.263429 0.144214
H11   H     H_    0.714547 0.836417 0.863722 0.146654
H12   H     H_    0.285456 0.336445 0.136277 0.146692
H13   H     H_    0.676504 0.925637 0.571994 0.105059
H14   H     H_    0.323494 0.425612 0.428007 0.105034
C33   C     C_3   0.776426 0.931844 0.316875 -0.221145
C34   C     C_3   0.223718 0.433731 0.683225 -0.221502
C35   C     C_3   0.772477 0.066017 0.254009 0.674902
C36   C     C_3   0.227962 0.566538 0.746532 0.674731
H15   H     H_    0.798097 0.962504 0.371642 0.135552
H16   H     H_    0.202173 0.465959 0.628550 0.135492
H17   H     H_    0.667887 0.120822 0.215453 0.145460
H18   H     H_    0.332679 0.618398 0.785379 0.145854
C37   C     C_1   0.875156 0.940142 0.121051 -0.160757
C38   C     C_1   0.124842 0.440128 0.878947 -0.160728
C39   C     C_1   0.624859 0.854134 0.379235 -0.171465
C40   C     C_1   0.375142 0.354148 0.620766 -0.171466
C41   C     C_3   0.795107 0.774712 0.269491 -0.177900
C42   C     C_3   0.204583 0.276036 0.730053 -0.177789
C43   C     C_3   0.791071 0.911427 0.207356 0.044117
C44   C     C_3   0.208923 0.411402 0.792638 0.044570
C45   C     C_3   0.727139 0.724289 0.246421 -0.057087
C46   C     C_3   0.272410 0.223753 0.753025 -0.056635
C47   C     C_3   0.709030 0.881758 0.293021 0.059656
C48   C     C_3   0.290972 0.381779 0.706980 0.059037
C49   C     C_3   0.723642 0.861434 0.183782 -0.204432
C50   C     C_3   0.276210 0.359547 0.816114 -0.204080
C51   C     C_3   0.704789 0.018773 0.230949 -0.195092
C52   C     C_3   0.295517 0.517441 0.769503 -0.195156
C53   C     C_1   0.837143 0.928499 0.159772 0.031312
C54   C     C_1   0.162853 0.428475 0.840225 0.031459
C55   C     C_1   0.662945 0.865455 0.340602 -0.002677
C56   C     C_1   0.337057 0.365477 0.659399 -0.002703
H19   H     H_    0.702059 0.832041 0.128877 0.165973
H20   H     H_    0.297671 0.328585 0.870930 0.166020
H21   H     H_    0.708174 0.582022 0.243502 0.163051
H22   H     H_    0.291016 0.081065 0.755492 0.164498
H23   H     H_    0.832316 0.673724 0.285082 0.176014
H24   H     H_    0.167119 0.176142 0.714086 0.174789
O11   O     O_R   0.056650 0.288730 0.942060 -0.533441
O12   O     O_R   0.943350 0.788730 0.057940 -0.533459
O13   O     O_R   0.058660 0.616870 0.085540 -0.535966
O14   O     O_R   0.941340 0.116870 0.914460 -0.535978
C57   C     C_R   0.072813 0.448771 0.111024 0.684304
C58   C     C_R   0.927187 0.948772 0.888976 0.684250
O15   O     O_R   0.063700 0.618520 0.944220 -0.530838
O16   O     O_R   0.936300 0.118520 0.055780 -0.530865
O17   O     O_R   0.948460 0.787610 0.915680 -0.533246
O18   O     O_R   0.051540 0.287610 0.084320 -0.533226
C59   C     C_R   0.078901 0.450003 0.924666 0.706757
C60   C     C_R   0.921099 0.950007 0.075333 0.706776
O19   O     O_3   0.962230 0.453430 0.990860 -0.372901
O20   O     O_3   0.037770 0.953430 0.009140 -0.372859
V3    V     V_3+5 0.007010 0.728750 0.001700 1.450827
V4    V     V_3+5 0.992990 0.228750 0.998300 1.450789
F1    F     F_    0.601866 0.773848 0.863744 -0.657734
F2    F     F_    0.398139 0.273893 0.136254 -0.657693
F3    F     F_    0.796067 0.243221 0.257703 -0.700951
F4    F     F_    0.204824 0.744277 0.743401 -0.701109

loop_
_geom_bond_atom_site_label_1
_geom_bond_atom_site_label_2
_ccdc_geom_bond_type
O17   V3    S    
C2    C39   S    
O15   C59   A    
C37   C53   T    
C9    C11   A    
O1    C3    A    
C38   C59   S    
C42   C46   S    
O2    C4    A    
C33   C47   S    
C2    O7    A    
C49   H19   S    
C4    C31   S    
O3    V1    S    
C21   C23   A    
O5    C3    A    
C34   C48   S    
C5    H5    S    
C12   F2    S    
C6    H6    S    
C11   F1    S    
C46   C48   S    
O11   V4    S    
C42   H24   S    
H1    C29   S    
O20   V3    S    
C34   C42   S    
C28   H8    S    
O16   C60   A    
C34   C36   S    
C5    C21   A    
C6    C22   A    
C10   C32   A    
C26   H14   S    
O14   C58   A    
C17   C31   A    
C13   C15   A    
O18   V4    S    
C12   C14   A    
C17   C25   A    
C7    C29   A    
C57   O18   A    
C8    C30   A    
C48   C56   S    
O5    V1    S    
C36   C52   S    
O12   C60   A    
O6    V2    S    
C44   C50   S    
C50   H20   S    
C23   C25   A    
O11   C59   A    
C24   C26   A    
C37   C60   S    
O19   V4    S    
O12   V3    S    
O16   V4    S    
C33   C35   S    
C38   C54   T    
C5    C29   A    
C42   C44   S    
C49   C51   S    
C10   H10   S    
C35   C43   S    
C15   C19   A    
C14   C16   A    
O4    V2    S    
C1    C40   S    
C39   C55   T    
H18   C52   S    
C48   C52   S    
H17   C51   S    
C47   C51   S    
O6    C4    A    
C9    H9    S    
C43   C49   S    
C25   H13   S    
C41   H23   S    
O1    V2    S    
O2    V1    S    
C45   C47   S    
H2    C30   S    
O13   V3    S    
H3    C23   S    
C50   C52   S    
C41   C45   S    
C18   C26   A    
O4    C2    A    
C19   C27   A    
C40   C56   T    
C7    C27   A    
C18   C32   A    
C41   C43   S    
C16   C20   A    
C46   C50   S    
C44   C54   S    
O3    C1    A    
C6    C30   A    
O13   C57   A    
C58   O17   A    
O15   V3    S    
C33   H15   S    
C34   H16   S    
C10   C12   A    
O7    V1    S    
C1    O8    A    
C19   C21   A    
C3    C32   S    
O8    V2    S    
C20   C22   A    
H4    C24   S    
C22   C24   A    
C15   C17   A    
C14   H12   S    
C16   C18   A    
O14   V4    S    
C20   C28   A    
C45   H21   S    
C8    C57   S    
C47   C55   S    
C7    C58   S    
C36   F4    S    
C11   C13   A    
O9    V2    S    
C46   H22   S    
C27   H7    S    
O10   V1    S    
C36   C44   S    
C35   C51   S    
C13   H11   S    
C8    C28   A    
C45   C49   S    
C43   C53   S    
C9    C31   A    
C33   C41   S    
C35   F3    S    
