data_mof_unit_57129.cif
_audit_creation_date              2012-12-10T18:59:11-0500
_audit_creation_method            fapswitch 2.2
_symmetry_space_group_name_H-M    P1
_symmetry_Int_Tables_number       1
_space_group_crystal_system       triclinic
_cell_length_a                    9.814849
_cell_length_b                    10.720811
_cell_length_c                    16.927165
_cell_angle_alpha                 89.400683
_cell_angle_beta                  94.355633
_cell_angle_gamma                 89.990662
_cell_volume                      1775.88734606

loop_
_atom_site_label
_atom_site_type_symbol
_atom_type_description
_atom_site_fract_x
_atom_site_fract_y
_atom_site_fract_z
_atom_type_partial_charge
C1    C     C_R   0.499970 0.259791 0.500069 0.869277
C2    C     C_R   0.500032 0.740209 0.499942 0.870050
C3    C     C_R   0.379877 0.935885 0.513951 -0.196129
C4    C     C_R   0.620136 0.064119 0.486095 -0.196020
C5    C     C_R   0.500004 0.872614 0.499942 -0.013306
C6    C     C_R   0.500006 0.127389 0.500095 -0.012691
C7    C     C_R   0.065390 0.576442 0.449510 -0.076983
C8    C     C_R   0.934610 0.423558 0.550492 -0.076844
C9    C     C_R   0.921312 0.576427 0.449540 -0.075872
C10   C     C_R   0.078689 0.423573 0.550462 -0.075406
C11   C     C_R   0.517537 0.495541 0.653200 0.904955
C12   C     C_R   0.482443 0.502882 0.346764 0.905161
C13   C     C_R   0.527090 0.480571 0.738667 -0.090501
C14   C     C_R   0.472708 0.507503 0.260905 -0.089839
C15   C     C_R   0.406923 0.468250 0.777509 -0.236735
C16   C     C_R   0.592760 0.507866 0.221398 -0.237454
C17   C     C_R   0.413765 0.454985 0.858727 -0.243808
C18   C     C_R   0.585541 0.507373 0.139836 -0.244255
C19   C     C_R   0.541489 0.454593 0.902548 0.233073
C20   C     C_R   0.457480 0.506716 0.096333 0.236862
C21   C     C_R   0.662451 0.456613 0.863660 0.473125
C22   C     C_R   0.336949 0.515336 0.135261 0.474620
C23   C     C_R   0.654833 0.473244 0.781538 -0.334029
C24   C     C_R   0.344890 0.511879 0.217981 -0.337812
C25   C     C_R   0.379889 0.063659 0.514051 -0.194830
C26   C     C_R   0.620126 0.936345 0.485997 -0.195154
H1    H     H_    0.692686 0.506653 0.253348 0.176209
H2    H     H_    0.307132 0.470381 0.745418 0.174987
H3    H     H_    0.680263 0.506386 0.110906 0.181725
H4    H     H_    0.319037 0.447988 0.887409 0.179851
H5    H     H_    0.748376 0.481566 0.751802 0.173452
H6    H     H_    0.251563 0.511337 0.248271 0.172271
H7    H     H_    0.286586 0.112115 0.525446 0.153881
H8    H     H_    0.713431 0.887892 0.474604 0.153964
H9    H     H_    0.286556 0.887057 0.525262 0.157772
H10   H     H_    0.713457 0.112946 0.474782 0.157798
H11   H     H_    0.114874 0.637455 0.409202 0.121979
H12   H     H_    0.885125 0.362549 0.590803 0.121656
H13   H     H_    0.861214 0.637462 0.409263 0.121621
H14   H     H_    0.138790 0.362544 0.590743 0.120650
N1    N     N_2   0.551364 0.457381 0.985792 -0.165565
N2    N     N_2   0.446803 0.499607 0.013221 -0.163463
N3    N     N_R   0.857210 0.499970 0.500020 -0.077997
N4    N     N_R   0.142790 0.500030 0.499980 -0.077895
O1    O     O_R   0.614620 0.316750 0.500010 -0.628272
O2    O     O_R   0.385380 0.683250 0.499990 -0.627804
O3    O     O_R   0.385290 0.316780 0.500000 -0.626428
O4    O     O_R   0.614710 0.683220 0.500000 -0.626108
O5    O     O_R   0.627460 0.498830 0.616130 -0.622625
O6    O     O_R   0.372540 0.501170 0.383870 -0.622430
O7    O     O_R   0.398130 0.498850 0.616130 -0.625826
O8    O     O_R   0.601870 0.501150 0.383870 -0.626156
Zn1   Zn    Zn3+2 0.653130 0.499980 0.500000 0.945087
Zn2   Zn    Zn3+2 0.346870 0.500020 0.500000 0.945345
O9    O     O_3   0.787648 0.455179 0.907142 -0.612101
C27   C     C_3   0.851049 0.338784 0.896804 0.054590
H15   H     H_    0.874511 0.326096 0.834038 0.135271
H16   H     H_    0.784787 0.260696 0.914994 0.143347
C28   C     C_3   0.985005 0.332640 0.948188 -0.755680
H17   H     H_    0.965590 0.343737 0.011520 0.268973
H18   H     H_    0.034926 0.240984 0.940769 0.198846
H19   H     H_    0.054903 0.407581 0.930418 0.260126
O10   O     O_3   0.211624 0.515552 0.091788 -0.611768
C29   C     C_3   0.149313 0.633393 0.098631 0.054587
H20   H     H_    0.217885 0.709789 0.080502 0.142764
H21   H     H_    0.122102 0.649284 0.160388 0.136117
C30   C     C_3   0.018305 0.638979 0.044571 -0.751100
H22   H     H_    0.946512 0.565153 0.061708 0.264054
H23   H     H_    0.968617 0.731289 0.049780 0.198831
H24   H     H_    0.041619 0.625754 0.982028 0.266012

loop_
_geom_bond_atom_site_label_1
_geom_bond_atom_site_label_2
_ccdc_geom_bond_type
C20   N2    S    
O9    C27   S    
C24   H6    S    
C7    C9    A    
C11   O5    A    
C14   C16   A    
N1    N2    D    
C9    H13   S    
C4    C26   A    
O2    Zn2   S    
C27   C28   S    
C3    H9    S    
C3    C5    A    
C30   H24   S    
C2    O4    A    
C29   H20   S    
O7    Zn2   S    
C16   H1    S    
C4    H10   S    
C7    H11   S    
O1    Zn1   S    
C28   H17   S    
C18   H3    S    
C7    N4    A    
C2    O2    A    
C17   H4    S    
C11   C13   S    
C1    O1    A    
C15   H2    S    
O6    Zn2   S    
C8    H12   S    
C14   C24   A    
O3    Zn2   S    
O5    Zn1   S    
C8    N3    A    
C10   H14   S    
C30   H22   S    
C12   O8    A    
C27   H16   S    
C18   C20   A    
C13   C15   A    
C21   C23   A    
O4    Zn1   S    
C22   C24   A    
C9    N3    A    
C2    C5    S    
C11   O7    A    
C27   H15   S    
C20   C22   A    
C10   N4    A    
C5    C26   A    
C6    C25   A    
C29   C30   S    
N4    Zn2   S    
C3    C25   A    
O8    Zn1   S    
C13   C23   A    
C16   C18   A    
C4    C6    A    
C28   H18   S    
C25   H7    S    
C1    C6    S    
C15   C17   A    
C17   C19   A    
C21   O9    S    
C29   H21   S    
C28   H19   S    
C19   C21   A    
C22   O10   S    
O10   C29   S    
N3    Zn1   S    
C26   H8    S    
C8    C10   A    
C1    O3    A    
C19   N1    S    
C12   C14   S    
C12   O6    A    
C30   H23   S    
C23   H5    S    
