data_mof_unit_66851.cif
_audit_creation_date              2012-12-11T17:11:28-0500
_audit_creation_method            fapswitch 2.2
_symmetry_space_group_name_H-M    P1
_symmetry_Int_Tables_number       1
_space_group_crystal_system       triclinic
_cell_length_a                    8.68048
_cell_length_b                    16.64871
_cell_length_c                    16.201307
_cell_angle_alpha                 107.712325
_cell_angle_beta                  92.706341
_cell_angle_gamma                 82.060857
_cell_volume                      2208.99092547

loop_
_atom_site_label
_atom_site_type_symbol
_atom_type_description
_atom_site_fract_x
_atom_site_fract_y
_atom_site_fract_z
_atom_type_partial_charge
Ba1   Ba    Ba6+2 0.642070 0.542310 0.469620 1.725276
Ba2   Ba    Ba6+2 0.168110 0.457680 0.530320 1.792338
C1    C     C_3   0.737781 0.763165 0.185588 -0.041144
C2    C     C_3   0.761799 0.710891 0.249193 0.353547
C3    C     C_3   0.945566 0.724267 0.749756 0.319847
C4    C     C_3   0.882415 0.815124 0.807287 0.198004
C5    C     C_3   0.508205 0.220829 0.731140 0.927348
C6    C     C_3   0.511840 0.170915 0.798525 -0.201392
C7    C     C_3   0.063231 0.268208 0.709349 0.502570
C8    C     C_3   0.109745 0.243843 0.793744 0.196184
C9    C     C_2   0.720805 0.244533 0.461209 -0.131432
C10   C     C_R   0.115874 0.746072 0.512094 -0.311030
C11   C     C_2   0.554488 0.135913 0.388896 -0.012682
C12   C     C_3   0.276292 0.752625 0.271183 0.680556
C13   C     C_2   0.573149 0.218852 0.417787 0.012349
C14   C     C_2   0.828908 0.188631 0.484008 0.094721
C15   C     C_3   0.792589 0.098401 0.471980 0.121275
C16   C     C_3   0.685639 0.067729 0.393751 0.052163
C17   C     C_2   0.926122 0.030463 0.477608 -0.046058
C18   C     C_2   0.897408 0.954728 0.484550 -0.049409
C19   C     C_R   0.158849 0.913672 0.539411 0.120621
C20   C     C_R   0.019501 0.888646 0.502183 -0.148616
C21   C     C_R   0.278991 0.858624 0.561385 0.258488
C22   C     C_R   0.256567 0.772439 0.552369 -0.037604
C23   C     C_3   0.342084 0.819143 0.345662 -0.247249
C24   C     C_R   0.000122 0.802117 0.484748 0.013466
C25   C     C_R   0.117556 0.519328 0.271449 -0.238838
C26   C     C_R   0.981944 0.484293 0.238630 -0.033540
C27   C     C_R   0.926421 0.485479 0.156439 -0.169344
C28   C     C_R   0.009929 0.518758 0.104728 0.249297
C29   C     C_R   0.150814 0.549040 0.136779 -0.064634
C30   C     C_R   0.202813 0.550875 0.220509 -0.037687
C31   C     C_R   0.889413 0.504773 0.852590 -0.223115
C32   C     C_R   0.851172 0.491786 0.765887 -0.003359
C33   C     C_R   0.784936 0.492076 0.909871 0.187380
C34   C     C_3   0.518041 0.278745 0.233077 0.375465
C35   C     C_R   0.720073 0.452812 0.731437 -0.262142
C36   C     C_R   0.608263 0.442748 0.786262 0.009736
C37   C     C_R   0.636074 0.469226 0.877782 0.306085
C38   C     C_3   0.580637 0.183694 0.188422 0.304883
C39   C     C_3   0.436771 0.769066 0.779381 0.748078
C40   C     C_3   0.471477 0.852577 0.768565 -0.261660
C41   C     C_3   0.960356 0.267917 0.204883 0.718502
C42   C     C_3   0.102200 0.294929 0.173405 -0.230766
H1    H     H_    0.651897 0.717564 0.283677 0.094359
H2    H     H_    0.592535 0.148291 0.236270 -0.019527
H3    H     H_    0.698318 0.180671 0.164800 0.046895
H4    H     H_    0.362716 0.887862 0.752614 0.110646
H5    H     H_    0.557809 0.840060 0.717932 0.114031
H6    H     H_    0.520622 0.893715 0.828648 0.152826
H7    H     H_    0.870005 0.263551 0.154286 -0.138694
H8    H     H_    0.066340 0.328557 0.125116 -0.052509
H9    H     H_    0.185363 0.239324 0.140785 0.220834
H10   H     H_    0.160326 0.337524 0.227682 0.084202
H11   H     H_    0.786492 0.643095 0.211589 0.019698
H12   H     H_    0.644195 0.739231 0.138968 0.108189
H13   H     H_    0.073696 0.714534 0.752344 0.127221
H14   H     H_    0.906711 0.716257 0.681544 -0.051748
H15   H     H_    0.759738 0.815789 0.821844 0.086834
H16   H     H_    0.846478 0.754183 0.148578 0.166345
H17   H     H_    0.250437 0.872954 0.373167 0.098328
H18   H     H_    0.620071 0.126007 0.795880 0.161073
H19   H     H_    0.503264 0.215585 0.865233 0.126685
H20   H     H_    0.420566 0.128858 0.788141 0.088037
H21   H     H_    0.961108 0.316698 0.719765 0.012985
H22   H     H_    0.155397 0.300975 0.694596 -0.029412
H23   H     H_    0.229222 0.216729 0.784914 0.084488
H24   H     H_    0.178038 0.730195 0.295583 -0.054516
H25   H     H_    0.449245 0.116547 0.354449 0.100675
H26   H     H_    0.740912 0.310248 0.474802 0.048466
H27   H     H_    0.096296 0.680834 0.501080 0.089942
H28   H     H_    0.045105 0.043756 0.478603 0.129508
H29   H     H_    0.777304 0.943930 0.481828 0.163468
H30   H     H_    0.994759 0.532419 0.876575 0.174904
H31   H     H_    0.219667 0.571596 0.096721 0.183805
H32   H     H_    0.820852 0.459020 0.132349 0.129860
H33   H     H_    0.160114 0.519370 0.335348 0.068728
H34   H     H_    0.694202 0.440674 0.662998 0.094152
H35   H     H_    0.386811 0.789763 0.396318 0.093946
H36   H     H_    0.438871 0.844199 0.323180 0.168117
H37   H     H_    0.612161 0.309826 0.273887 -0.000041
N1    N     N_2   0.962614 0.517477 0.018774 -0.208729
N2    N     N_2   0.827949 0.499449 0.998099 -0.163576
O1    O     O_2   0.554430 0.712240 0.583340 -0.453247
O2    O     O_3   0.899286 0.321294 0.285055 -0.625554
O3    O     O_3   0.397014 0.687353 0.234589 -0.629120
O4    O     O_2   0.255890 0.287710 0.416620 -0.382017
O5    O     O_3   0.472550 0.396030 0.437270 -0.499572
O6    O     O_3   0.997190 0.341000 0.573500 -0.517628
O7    O     O_3   0.387142 0.285515 0.283969 -0.608440
O8    O     O_3   0.856110 0.544300 0.605450 -0.480876
O9    O     O_3   0.397490 0.384750 0.623120 -0.484944
O10   O     O_2   0.290096 0.454462 0.778578 -0.429179
O11   O     O_3   0.401888 0.298267 0.759359 -0.661747
O12   O     O_3   0.337760 0.603960 0.562660 -0.473397
O13   O     O_3   0.954190 0.455690 0.394480 -0.449523
O14   O     O_2   0.106750 0.542200 0.705290 -0.443455
O15   O     O_3   0.886519 0.665505 0.781566 -0.658607
O16   O     O_2   0.143649 0.188550 0.483987 -0.446614
O17   O     O_3   0.041581 0.196961 0.637516 -0.521327
O18   O     O_3   0.813110 0.658990 0.426440 -0.459447
O19   O     O_2   0.682798 0.810768 0.424950 -0.465287
O20   O     O_3   0.331789 0.728826 0.716188 -0.679439
O21   O     O_3   0.890455 0.733924 0.303521 -0.630267
O22   O     O_2   0.703570 0.457750 0.294670 -0.466670
O23   O     O_3   0.412810 0.615240 0.376810 -0.496125
O24   O     O_2   0.521512 0.534509 0.217575 -0.433178
P1    P     P_3+3 0.385820 0.698700 0.604730 0.983288
P2    P     P_3+3 0.884390 0.431600 0.301750 0.974553
P3    P     P_3+3 0.381459 0.595986 0.264421 0.969095
P4    P     P_3+3 0.424480 0.301290 0.395200 1.048897
P5    P     P_3+3 0.432100 0.392590 0.734131 1.106696
P6    P     P_3+3 0.842767 0.754865 0.412779 0.966136
P7    P     P_3+3 0.924757 0.561016 0.712968 0.977419
P8    P     P_3+3 0.002490 0.229675 0.543887 1.082526
S1    S     S_3+6 0.478363 0.123521 0.095834 -0.029209
O25   O     O_2   0.400464 0.177563 0.042805 -0.314443
O26   O     O_2   0.359745 0.079930 0.124056 -0.185436
O27   O     O_3   0.608046 0.048659 0.031943 -0.465310
H38   H     H_    0.671473 0.022299 0.071590 0.324766
N3    N     N_2   0.574933 0.710440 0.775762 -0.431594
H39   H     H_    0.644497 0.704825 0.724292 0.165400
C43   C     C_3   0.548313 0.628481 0.780433 -0.098969
H40   H     H_    0.629087 0.612886 0.829357 0.050514
H41   H     H_    0.560930 0.582565 0.714624 0.025190
H42   H     H_    0.430061 0.626068 0.801346 0.149033
S2    S     S_3+6 0.355350 0.795938 0.887167 -0.056362
O28   O     O_2   0.270227 0.884686 0.914052 -0.240639
O29   O     O_2   0.245809 0.734763 0.890893 -0.335629
O30   O     O_3   0.500965 0.791832 0.958740 -0.506672
H43   H     H_    0.511502 0.733802 0.964490 0.325576
S3    S     S_3+6 0.010193 0.163818 0.217576 -0.037399
O31   O     O_2   0.891101 0.147057 0.272495 -0.385782
O32   O     O_2   0.016286 0.097940 0.130110 -0.245281
O33   O     O_3   0.183425 0.157327 0.267274 -0.466765
H44   H     H_    0.193807 0.102472 0.280418 0.376245
N4    N     N_2   0.694260 0.852675 0.230731 -0.410922
H45   H     H_    0.762255 0.876632 0.284186 0.250301
C44   C     C_3   0.671614 0.907125 0.175462 -0.118219
H46   H     H_    0.784785 0.911098 0.148646 0.131587
H47   H     H_    0.620531 0.971958 0.213646 0.124629
H48   H     H_    0.590750 0.882577 0.121361 0.201533
N5    N     N_2   0.963324 0.840618 0.890122 -0.346996
H49   H     H_    0.962629 0.905616 0.914656 0.258323
C45   C     C_3   0.919200 0.806418 0.956576 -0.058757
H50   H     H_    0.988165 0.830938 0.016243 0.193610
H51   H     H_    0.943347 0.736057 0.935804 0.163162
H52   H     H_    0.794111 0.826804 0.972510 0.094352
N6    N     N_2   0.884355 0.877752 0.761591 -0.441130
H53   H     H_    0.803519 0.872243 0.712686 0.202966
C46   C     C_3   0.033340 0.891176 0.736394 -0.224319
H54   H     H_    0.016114 0.938570 0.700209 0.115667
H55   H     H_    0.093485 0.831249 0.694143 0.068695
H56   H     H_    0.105282 0.915547 0.794272 0.173899
S4    S     S_3+6 0.454364 0.154192 0.628036 -0.012521
O34   O     O_2   0.584107 0.084086 0.593619 -0.211698
O35   O     O_2   0.311353 0.115032 0.633026 -0.281645
O36   O     O_3   0.422814 0.212060 0.560302 -0.523366
H57   H     H_    0.327642 0.250395 0.582810 0.348824
S5    S     S_3+6 0.700512 0.236604 0.725112 -0.124522
O37   O     O_2   0.799745 0.151664 0.698090 -0.276917
O38   O     O_2   0.714603 0.281520 0.659251 -0.430555
O39   O     O_3   0.739729 0.292431 0.827331 -0.598827
H58   H     H_    0.820041 0.327138 0.824155 0.326496
N7    N     N_2   0.100252 0.319421 0.869050 -0.473341
H59   H     H_    0.142191 0.370247 0.858171 0.249096
C47   C     C_3   0.156080 0.305981 0.950153 -0.102190
H60   H     H_    0.161639 0.367972 0.000211 0.145469
H61   H     H_    0.274172 0.269784 0.942424 0.156565
H62   H     H_    0.076532 0.271062 0.973475 0.106024
N8    N     N_2   0.022995 0.180288 0.808056 -0.342038
H63   H     H_    0.944310 0.202254 0.857926 0.267122
C48   C     C_3   0.110980 0.100884 0.810804 -0.158135
H64   H     H_    0.201167 0.112413 0.862538 0.126431
H65   H     H_    0.165148 0.066464 0.747007 0.179173
H66   H     H_    0.031019 0.061235 0.826454 0.126372
S6    S     S_3+6 0.450623 0.907981 0.583260 -0.057487
O40   O     O_2   0.458413 0.949509 0.513421 -0.229941
O41   O     O_2   0.432245 0.975982 0.668914 -0.303834
O42   O     O_3   0.621798 0.848704 0.584125 -0.515045
H67   H     H_    0.699314 0.888538 0.590227 0.340404
S7    S     S_3+6 0.200250 0.801060 0.190621 -0.048801
O43   O     O_2   0.067122 0.868552 0.227865 -0.296303
O44   O     O_2   0.324393 0.841522 0.162387 -0.254431
O45   O     O_3   0.136521 0.727776 0.104422 -0.551512
H68   H     H_    0.223023 0.710605 0.062404 0.377445
S8    S     S_3+6 0.484937 0.478458 0.951197 -0.091807
O46   O     O_2   0.424723 0.394585 0.931848 -0.306500
O47   O     O_2   0.538850 0.504984 0.043699 -0.305294
O48   O     O_3   0.339462 0.551793 0.939084 -0.504184
H69   H     H_    0.388352 0.604360 0.949946 0.322099
N9    N     N_2   0.470328 0.323359 0.169694 -0.409804
H70   H     H_    0.406131 0.381908 0.196351 0.191695
C49   C     C_3   0.584162 0.326453 0.108861 -0.134391
H71   H     H_    0.525784 0.356899 0.062102 0.206757
H72   H     H_    0.637445 0.262095 0.071225 0.134628
H73   H     H_    0.674728 0.364393 0.143099 0.084945

loop_
_geom_bond_atom_site_label_1
_geom_bond_atom_site_label_2
_ccdc_geom_bond_type
C38   H3    S    
C49   H72   S    
N8    H63   S    
O6    P8    S    
O48   H69   S    
S4    O35   D    
C23   H36   S    
O18   P6    S    
C39   C40   S    
C39   S2    S    
C17   C18   D    
C21   S6    S    
C45   H50   S    
C9    H26   S    
O33   H44   S    
C47   H61   S    
C27   H32   S    
C38   S1    S    
C8    H23   S    
Ba1   O1    S    
C38   H2    S    
N4    C44   S    
O10   P5    D    
N7    H59   S    
C30   P3    S    
C11   C16   S    
C26   C27   A    
O3    P3    S    
C35   C36   A    
S3    O33   S    
O2    P2    S    
C8    N7    S    
O16   P8    D    
C3    C4    S    
C44   H48   S    
O15   P7    S    
C49   H73   S    
O4    P4    D    
N5    H49   S    
C32   C35   A    
S1    O25   D    
Ba1   Ba2   S    
C9    C14   D    
C46   H56   S    
C39   N3    S    
S7    O43   D    
S8    O48   S    
Ba1   P2    S    
C7    H22   S    
C4    N6    S    
C9    C13   S    
C42   H9    S    
O39   H58   S    
Ba2   O14   S    
S1    O26   D    
S3    O31   D    
S6    O41   D    
C21   C22   A    
Ba2   O5    S    
O20   P1    S    
C22   P1    S    
O11   P5    S    
C7    C8    S    
Ba1   O23   S    
C37   S8    S    
C1    H16   S    
C42   H8    S    
Ba1   O5    S    
C49   H71   S    
C46   H54   S    
N7    C47   S    
C23   H35   S    
C19   C20   A    
S4    O36   S    
O5    P4    S    
C17   H28   S    
O17   P8    S    
O7    P4    S    
C45   H51   S    
C15   C16   S    
C47   H62   S    
S7    O44   D    
C2    H1    S    
C48   H65   S    
C19   C21   A    
Ba2   P4    S    
N3    C43   S    
C41   O2    S    
S5    O39   S    
C13   P4    S    
C43   H40   S    
C12   O3    S    
C6    H19   S    
C47   H60   S    
C5    C6    S    
C33   N2    S    
O9    P5    S    
C43   H42   S    
C23   H17   S    
C5    S5    S    
C40   H5    S    
C8    N8    S    
C48   H64   S    
C39   O20   S    
C10   C24   A    
S7    O45   S    
S5    O38   D    
C28   N1    S    
Ba2   O6    S    
C33   C37   A    
C41   C42   S    
S2    O29   D    
C27   C28   A    
N8    C48   S    
C1    H12   S    
C29   H31   S    
C29   C30   A    
C34   C38   S    
C34   H37   S    
Ba1   O12   S    
S6    O42   S    
C31   C32   A    
Ba2   O4    S    
C40   H4    S    
O27   H38   S    
Ba2   O9    S    
N3    H39   S    
C12   S7    S    
C6    H20   S    
C1    N4    S    
C3    H14   S    
S3    O32   D    
C10   H27   S    
C40   H6    S    
S6    O40   D    
C7    O17   S    
C11   C13   D    
C2    H11   S    
O36   H57   S    
O24   P3    D    
C36   P5    S    
S2    O28   D    
C14   P8    S    
Ba1   O18   S    
S4    O34   D    
C45   H52   S    
O42   H67   S    
O13   P2    S    
C48   H66   S    
C34   O7    S    
N5    C45   S    
C5    O11   S    
O22   P2    D    
Ba2   O12   S    
C25   C30   A    
C34   N9    S    
C4    H15   S    
C18   C20   S    
C25   H33   S    
C44   H46   S    
O8    P7    S    
C26   P2    S    
C32   P7    S    
N4    H45   S    
C10   C22   A    
S1    O27   S    
C3    H13   S    
S5    O37   D    
N6    C46   S    
O30   H43   S    
O14   P7    D    
S2    O30   S    
S8    O46   D    
O19   P6    D    
N6    H53   S    
N9    H70   S    
C44   H47   S    
C28   C29   A    
C41   H7    S    
O45   H68   S    
C36   C37   A    
C11   H25   S    
Ba1   O13   S    
C2    O21   S    
Ba1   O8    S    
Ba2   O13   S    
C31   C33   A    
C41   S3    S    
C18   H29   S    
C46   H55   S    
C12   C23   S    
Ba2   O8    S    
C7    H21   S    
S8    O47   D    
C43   H41   S    
O12   P1    S    
Ba1   P1    S    
O21   P6    S    
C15   C17   S    
C42   H10   S    
C31   H30   S    
O1    P1    D    
C5    S4    S    
C3    O15   S    
O23   P3    S    
N1    N2    D    
C20   C24   A    
Ba1   O22   S    
C25   C26   A    
C12   H24   S    
C24   P6    S    
C4    N5    S    
C35   H34   S    
C1    C2    S    
C14   C15   S    
C6    H18   S    
N9    C49   S    
