data_mof_unit_51667.cif
_audit_creation_date              2012-12-11T15:55:39-0500
_audit_creation_method            fapswitch 2.2
_symmetry_space_group_name_H-M    P1
_symmetry_Int_Tables_number       1
_space_group_crystal_system       triclinic
_cell_length_a                    6.938094
_cell_length_b                    14.545962
_cell_length_c                    16.094578
_cell_angle_alpha                 90.010583
_cell_angle_beta                  89.924931
_cell_angle_gamma                 90.065289
_cell_volume                      1624.28248101

loop_
_atom_site_label
_atom_site_type_symbol
_atom_type_description
_atom_site_fract_x
_atom_site_fract_y
_atom_site_fract_z
_atom_type_partial_charge
O1    O     O_R   0.505680 0.583900 0.413320 -0.495651
O2    O     O_R   0.176010 0.594950 0.586080 -0.547631
O3    O     O_R   0.005680 0.416100 0.586680 -0.541848
C1    C     C_R   0.345031 0.617137 0.615050 0.669230
O4    O     O_R   0.175960 0.594930 0.413930 -0.537108
O5    O     O_R   0.005640 0.416080 0.413300 -0.542026
C2    C     C_R   0.345390 0.616874 0.384717 0.746803
O6    O     O_R   0.505720 0.583920 0.586700 -0.544457
O7    O     O_3   0.339190 0.441320 0.500000 -0.383030
V1    V     V_3+5 0.064350 0.510890 0.500000 1.449922
O8    O     O_R   0.675920 0.405050 0.413920 -0.542857
C3    C     C_R   0.844987 0.382799 0.384986 0.714250
O9    O     O_R   0.675960 0.405070 0.586070 -0.548478
C4    C     C_R   0.844673 0.382977 0.614875 0.678547
V2    V     V_3+5 0.564340 0.489110 0.500000 1.451638
O10   O     O_3   0.839370 0.558680 0.500000 -0.353152
C5    C     C_R   0.006892 0.317636 0.741636 0.104605
C6    C     C_R   0.852559 0.317522 0.685511 -0.108398
C7    C     C_R   0.701237 0.255105 0.700817 -0.177872
H1    H     H_    0.579000 0.252416 0.659382 0.131691
C8    C     C_R   0.712629 0.190939 0.766269 -0.175829
H2    H     H_    0.598219 0.141023 0.773444 0.126961
C9    C     C_R   0.875964 0.186973 0.818216 -0.111879
C10   C     C_R   0.018602 0.253863 0.806156 0.106083
C11   C     C_3   0.230093 0.242086 0.794370 -0.408305
C12   C     C_3   0.217510 0.311965 0.724471 -0.399989
H3    H     H_    0.266750 0.171761 0.772538 0.166092
H4    H     H_    0.314032 0.267002 0.848685 0.178882
H5    H     H_    0.247879 0.282466 0.662102 0.169162
H6    H     H_    0.293282 0.377517 0.738539 0.169903
C13   C     C_R   0.046792 0.224640 0.217560 -0.154100
H7    H     H_    0.187478 0.206123 0.193702 0.116730
C14   C     C_R   0.035671 0.288192 0.282781 -0.147005
H8    H     H_    0.168350 0.316819 0.306969 0.117577
C15   C     C_R   0.856171 0.314464 0.316139 -0.049012
C16   C     C_R   0.688107 0.275408 0.282355 -0.150534
H9    H     H_    0.547421 0.293928 0.306212 0.114667
C17   C     C_R   0.699228 0.211854 0.217136 -0.149299
H10   H     H_    0.566548 0.183228 0.192947 0.118245
C18   C     C_R   0.878730 0.185571 0.183786 -0.047226
C19   C     C_R   0.188129 0.724431 0.717761 -0.157085
H11   H     H_    0.047470 0.705873 0.693963 0.116175
C20   C     C_R   0.199242 0.787998 0.782958 -0.151625
H12   H     H_    0.066576 0.816603 0.807191 0.118859
C21   C     C_R   0.378720 0.814323 0.816228 -0.046265
C22   C     C_R   0.546765 0.775285 0.782405 -0.157243
H13   H     H_    0.687425 0.793842 0.806202 0.117122
C23   C     C_R   0.535651 0.711718 0.717207 -0.150875
H14   H     H_    0.668317 0.683114 0.692974 0.117962
C24   C     C_R   0.356179 0.685423 0.683915 -0.042746
C25   C     C_R   0.192422 0.732289 0.288882 -0.215504
H15   H     H_    0.054693 0.720628 0.318709 0.209609
C26   C     C_R   0.202525 0.795915 0.223732 -0.148421
H16   H     H_    0.071968 0.831134 0.205280 0.141521
C27   C     C_R   0.378733 0.814406 0.183591 -0.134101
C28   C     C_R   0.544183 0.767257 0.210061 -0.232459
H17   H     H_    0.682004 0.779429 0.180326 0.146493
C29   C     C_R   0.534422 0.703097 0.274735 0.617661
C30   C     C_R   0.357815 0.684921 0.315517 -0.178344
O11   O     O_R   0.229200 0.915950 0.913350 -0.541014
O12   O     O_R   0.559090 0.905000 0.086080 -0.543674
O13   O     O_R   0.729280 0.083880 0.086680 -0.540797
C31   C     C_R   0.389912 0.882790 0.114975 0.722140
O14   O     O_R   0.558920 0.904980 0.913920 -0.544192
O15   O     O_R   0.729110 0.083860 0.913300 -0.539691
C32   C     C_R   0.389883 0.882699 0.885024 0.683836
O16   O     O_R   0.229360 0.915970 0.086730 -0.540433
O17   O     O_3   0.395680 0.058580 0.000030 -0.369850
V3    V     V_3+5 0.670570 0.989070 0.999990 1.400968
O18   O     O_R   0.058820 0.094950 0.913870 -0.540035
C33   C     C_R   0.889823 0.116855 0.884935 0.697416
O19   O     O_R   0.058990 0.094970 0.086020 -0.544146
C34   C     C_R   0.889922 0.117210 0.114959 0.685973
V4    V     V_3+5 0.170560 0.010930 0.999930 1.401440
O20   O     O_3   0.895590 0.941310 0.999960 -0.369421
F1    F     F_    0.698381 0.658275 0.296228 -0.704554

loop_
_geom_bond_atom_site_label_1
_geom_bond_atom_site_label_2
_ccdc_geom_bond_type
C27   C28   A    
C19   H11   S    
C4    C6    S    
C7    H1    S    
C1    O6    A    
C29   F1    S    
C21   C22   A    
C28   H17   S    
C11   H4    S    
C5    C12   S    
C16   H9    S    
C7    C8    A    
O5    C3    A    
C17   H10   S    
O17   V4    S    
V2    O10   S    
C13   C18   A    
C6    C7    A    
O11   V4    S    
O12   C31   A    
O8    V2    S    
C15   C16   A    
O15   C33   A    
O17   V3    S    
C27   C31   S    
O18   V4    S    
C9    C10   A    
C13   C14   A    
O13   C34   A    
O18   C33   A    
O1    V2    S    
O7    V1    S    
C23   C24   A    
O11   C32   A    
C8    H2    S    
C19   C20   A    
C2    C30   S    
C5    C6    A    
C22   C23   A    
C26   C27   A    
C31   O16   A    
C5    C10   A    
V4    O20   S    
C25   H15   S    
C9    C33   S    
C10   C11   S    
O19   V4    S    
O4    C2    A    
C11   C12   S    
C26   H16   S    
O13   V3    S    
C1    C24   S    
C25   C26   A    
O14   C32   A    
O2    C1    A    
C20   H12   S    
C13   H7    S    
C14   H8    S    
O16   V4    S    
O14   V3    S    
C3    C15   S    
C20   C21   A    
O3    C4    A    
C23   H14   S    
C12   H6    S    
O6    V2    S    
O9    V2    S    
C25   C30   A    
O2    V1    S    
C19   C24   A    
O12   V3    S    
C22   H13   S    
O1    C2    A    
O19   C34   A    
O5    V1    S    
O8    C3    A    
C11   H3    S    
C8    C9    A    
C29   C30   A    
O4    V1    S    
O3    V1    S    
V1    O10   S    
C17   C18   A    
O15   V3    S    
C16   C17   A    
C14   C15   A    
C28   C29   A    
V3    O20   S    
O7    V2    S    
C12   H5    S    
C21   C32   S    
C18   C34   S    
O9    C4    A    
