data_mof_unit_25552.cif
_audit_creation_date              2012-12-10T17:35:37-0500
_audit_creation_method            fapswitch 2.2
_symmetry_space_group_name_H-M    P1
_symmetry_Int_Tables_number       1
_space_group_crystal_system       triclinic
_cell_length_a                    10.745413
_cell_length_b                    12.379939
_cell_length_c                    13.217407
_cell_angle_alpha                 116.613079
_cell_angle_beta                  76.601275
_cell_angle_gamma                 101.729102
_cell_volume                      1519.16877684

loop_
_atom_site_label
_atom_site_type_symbol
_atom_type_description
_atom_site_fract_x
_atom_site_fract_y
_atom_site_fract_z
_atom_type_partial_charge
C1    C     C_R   0.511091 0.855092 0.286619 0.776831
C2    C     C_3   0.122697 0.995309 0.494260 -0.152533
C3    C     C_3   0.070083 0.108262 0.598676 -0.552735
C4    C     C_3   0.040846 0.880302 0.505139 0.503231
C5    C     C_R   0.338741 0.276119 0.026645 0.619154
C6    C     C_R   0.457842 0.229208 0.835491 -0.147626
C7    C     C_R   0.592546 0.816441 0.083985 -0.148065
C8    C     C_R   0.617804 0.738121 0.968885 -0.126615
C9    C     C_R   0.574299 0.614886 0.931833 -0.164217
C10   C     C_R   0.499011 0.567619 0.009456 0.120736
C11   C     C_R   0.461123 0.650602 0.124480 0.070362
C12   C     C_R   0.740123 0.998644 0.497876 0.869927
C13   C     C_R   0.459478 0.441004 0.976829 0.003187
C14   C     C_R   0.375530 0.400878 0.056672 0.010492
C15   C     C_R   0.326987 0.485786 0.164347 -0.140724
C16   C     C_R   0.366804 0.608674 0.196781 -0.162374
C17   C     C_R   0.501550 0.352636 0.867448 -0.236083
C18   C     C_R   0.379924 0.191179 0.916695 -0.246160
C19   C     C_R   0.517589 0.773635 0.163492 -0.097356
C20   C     C_R   0.705951 0.351390 0.328582 -0.218589
C21   C     C_R   0.329831 0.757551 0.652287 0.208837
C22   C     C_R   0.290609 0.656882 0.677839 -0.286777
C23   C     C_R   0.481852 0.145237 0.713651 0.854036
C24   C     C_R   0.350308 0.552752 0.616197 -0.183412
C25   C     C_R   0.454702 0.547870 0.529164 0.009088
C26   C     C_R   0.490811 0.651406 0.501404 0.253033
C27   C     C_R   0.526352 0.444867 0.470961 -0.014514
C28   C     C_R   0.631701 0.447430 0.385492 0.113835
C29   C     C_R   0.664601 0.546676 0.357590 -0.244485
C30   C     C_R   0.596322 0.646537 0.414671 -0.175365
C31   C     C_R   0.499987 0.340009 0.495120 0.017118
C32   C     C_R   0.677885 0.250946 0.355130 0.173448
C33   C     C_R   0.260486 0.998204 0.497742 0.839764
C34   C     C_3   0.960358 0.001758 0.383213 0.465185
C35   C     C_3   0.105648 0.001919 0.382606 -0.226304
C36   C     C_3   0.925811 0.108092 0.600589 0.369493
C37   C     C_3   0.899617 0.878537 0.499643 -0.487358
C38   C     C_3   0.878618 0.996955 0.495197 -0.151344
Cu1   Cu    Cu3+1 0.529690 0.098270 0.475420 0.958396
Cu2   Cu    Cu3+1 0.470310 0.901730 0.524580 0.980082
H1    H     H_    0.948777 0.087232 0.379713 0.149491
H2    H     H_    0.045111 0.882844 0.589358 0.147562
H3    H     H_    0.869458 0.103063 0.680746 0.109791
H4    H     H_    0.082934 0.108251 0.679892 0.176057
H5    H     H_    0.346724 0.096512 0.894312 0.178819
H6    H     H_    0.257516 0.457495 0.224223 0.217671
H7    H     H_    0.567588 0.377197 0.804326 0.178280
H8    H     H_    0.634680 0.910336 0.111089 0.158993
H9    H     H_    0.599471 0.559924 0.841494 0.135775
H10   H     H_    0.675230 0.772489 0.908297 0.152277
H11   H     H_    0.320071 0.670079 0.278550 0.223602
H12   H     H_    0.746078 0.548300 0.291905 0.182481
H13   H     H_    0.786554 0.355156 0.262896 0.194942
H14   H     H_    0.421129 0.330788 0.558889 0.128923
H15   H     H_    0.314959 0.479190 0.641564 0.150774
H16   H     H_    0.214323 0.660149 0.748852 0.163933
H17   H     H_    0.631970 0.719181 0.389590 0.215688
H18   H     H_    0.154758 0.091546 0.385712 0.107101
H19   H     H_    0.125365 0.193242 0.595035 0.240851
H20   H     H_    0.838670 0.869190 0.576512 0.143230
H21   H     H_    0.870514 0.797637 0.422932 0.270093
N1    N     N_R   0.574690 0.246280 0.438200 -0.223577
N2    N     N_R   0.426100 0.754320 0.561190 -0.223994
O1    O     O_R   0.537340 0.972510 0.318130 -0.624029
O2    O     O_R   0.487200 0.806530 0.359650 -0.603326
O3    O     O_R   0.707380 0.082980 0.479220 -0.566505
O4    O     O_R   0.657240 0.917000 0.520740 -0.622427
O5    O     O_R   0.512800 0.193470 0.640350 -0.578863
O6    O     O_R   0.462660 0.027490 0.681870 -0.583697
O7    O     O_R   0.342760 0.083000 0.479260 -0.614202
O8    O     O_R   0.292620 0.917020 0.520780 -0.498602
F1    F     F_    0.260009 0.236402 0.102630 -0.653753
F2    F     F_    0.915369 0.906298 0.288161 -0.644544
C39   C     C_2   0.763002 0.152415 0.290048 0.366797
H22   H     H_    0.740586 0.065630 0.293092 0.149845
O9    O     O_2   0.863303 0.167274 0.229159 -0.527695
C40   C     C_2   0.272973 0.868027 0.738600 0.411582
H23   H     H_    0.278363 0.895499 0.827917 0.036850
O10   O     O_2   0.208161 0.921023 0.715238 -0.557861
C41   C     C_2   0.172238 0.908219 0.273227 0.565365
H24   H     H_    0.265781 0.935166 0.233071 0.010770
O11   O     O_2   0.125372 0.802321 0.230869 -0.429377
F3    F     F_    0.906764 0.216146 0.601628 -0.646151
F4    F     F_    0.087436 0.773680 0.421449 -0.622540

loop_
_geom_bond_atom_site_label_1
_geom_bond_atom_site_label_2
_ccdc_geom_bond_type
C2    C35   S    
C1    O1    A    
Cu2   O8    S    
Cu1   O5    S    
C23   O6    A    
C16   H11   S    
C7    C8    A    
C40   H23   S    
C24   H15   S    
Cu1   O1    S    
C11   C19   A    
C29   C30   A    
Cu2   N2    S    
C39   O9    D    
C35   H18   S    
C28   C29   A    
C5    F1    S    
C32   C39   S    
C36   F3    S    
C15   C16   A    
C30   H17   S    
C35   C41   S    
C34   C35   S    
C6    C17   A    
C8    C9    A    
Cu2   O4    S    
C1    O2    A    
C9    C10   A    
C13   C14   A    
C31   N1    A    
C34   H1    S    
C40   O10   D    
C6    C18   A    
C12   O4    A    
C3    H4    S    
C1    C19   S    
Cu2   O6    S    
C27   C31   A    
C9    H9    S    
C24   C25   A    
C41   O11   D    
C39   H22   S    
Cu1   Cu2   S    
C41   H24   S    
C22   H16   S    
C5    C18   A    
C20   C28   A    
C25   C26   A    
C12   O3    A    
C23   O5    A    
C2    C4    S    
C26   N2    A    
C37   C38   S    
C11   C16   A    
C4    F4    S    
C5    C14   A    
C33   O7    A    
C2    C33   S    
C26   C30   A    
C7    C19   A    
Cu2   O2    S    
Cu1   O3    S    
C22   C24   A    
C18   H5    S    
C8    H10   S    
C20   C32   A    
Cu1   N1    S    
C34   C38   S    
C17   H7    S    
C20   H13   S    
C10   C13   A    
C37   H21   S    
C25   C27   A    
C13   C17   A    
C7    H8    S    
C36   C38   S    
C2    C3    S    
C32   N1    A    
C4    H2    S    
C3    C36   S    
C6    C23   S    
Cu1   O7    S    
C31   H14   S    
C12   C38   S    
C21   N2    A    
C37   H20   S    
C10   C11   A    
C33   O8    A    
C34   F2    S    
C4    C37   S    
C21   C40   S    
C27   C28   A    
C14   C15   A    
C36   H3    S    
C15   H6    S    
C21   C22   A    
C29   H12   S    
C3    H19   S    
