data_mof_unit_27427.cif
_audit_creation_date              2012-12-11T15:43:19-0500
_audit_creation_method            fapswitch 2.2
_symmetry_space_group_name_H-M    P1
_symmetry_Int_Tables_number       1
_space_group_crystal_system       triclinic
_cell_length_a                    18.996679
_cell_length_b                    10.998097
_cell_length_c                    18.801267
_cell_angle_alpha                 89.974644
_cell_angle_beta                  89.721463
_cell_angle_gamma                 89.663725
_cell_volume                      3927.98388876

loop_
_atom_site_label
_atom_site_type_symbol
_atom_type_description
_atom_site_fract_x
_atom_site_fract_y
_atom_site_fract_z
_atom_type_partial_charge
C1    C     C_R   0.711706 0.330056 0.138592 0.564006
C2    C     C_R   0.269523 0.376611 0.853919 0.546108
C3    C     C_R   0.211706 0.830056 0.138592 0.564005
C4    C     C_R   0.769523 0.876611 0.853919 0.546108
C5    C     C_R   0.485947 0.395958 0.933280 -0.085465
C6    C     C_R   0.467745 0.373699 0.079713 -0.097991
C7    C     C_R   0.985947 0.895958 0.933280 -0.085465
C8    C     C_R   0.967745 0.873698 0.079713 -0.097991
C9    C     C_R   0.970680 0.998306 0.974428 -0.137952
C10   C     C_R   0.959745 0.986619 0.047192 -0.127956
C11   C     C_R   0.470680 0.498306 0.974428 -0.137952
C12   C     C_R   0.459745 0.486620 0.047192 -0.127957
C13   C     C_R   0.745824 0.923366 0.921950 0.018294
C14   C     C_R   0.222071 0.845512 0.062166 0.014391
C15   C     C_R   0.245824 0.423368 0.921949 0.018294
C16   C     C_R   0.722071 0.345512 0.062166 0.014391
C17   C     C_R   0.697590 0.858648 0.964003 0.003608
C18   C     C_R   0.287343 0.825626 0.029565 0.005600
C19   C     C_R   0.197588 0.358653 0.964002 0.003608
C20   C     C_R   0.787343 0.325625 0.029564 0.005600
C21   C     C_R   0.695659 0.874087 0.037054 0.009683
C22   C     C_R   0.297694 0.852487 0.958410 0.003925
C23   C     C_R   0.195658 0.374092 0.037054 0.009683
C24   C     C_R   0.797693 0.352486 0.958410 0.003925
C25   C     C_R   0.785125 0.027321 0.027057 -0.139744
C26   C     C_R   0.174846 0.903013 0.946834 -0.156239
C27   C     C_R   0.285125 0.527323 0.027056 -0.139745
C28   C     C_R   0.674846 0.403014 0.946834 -0.156239
C29   C     C_R   0.784419 0.016715 0.953609 -0.140904
C30   C     C_R   0.164650 0.876413 0.018897 -0.152696
C31   C     C_R   0.284419 0.516716 0.953608 -0.140903
C32   C     C_R   0.664650 0.376413 0.018897 -0.152696
C33   C     C_3   0.685337 0.724822 0.970452 -0.244861
C34   C     C_3   0.358468 0.870521 0.049808 -0.267885
C35   C     C_3   0.185335 0.224826 0.970452 -0.244862
C36   C     C_3   0.858468 0.370519 0.049808 -0.267885
C37   C     C_3   0.682373 0.742448 0.050354 -0.277290
C38   C     C_3   0.369781 0.900580 0.971848 -0.257564
C39   C     C_3   0.182370 0.242455 0.050353 -0.277291
C40   C     C_3   0.869781 0.400578 0.971847 -0.257565
C41   C     C_R   0.744303 0.949816 0.069964 0.022329
C42   C     C_R   0.243026 0.900695 0.917333 0.008928
C43   C     C_R   0.244302 0.449820 0.069963 0.022329
C44   C     C_R   0.743026 0.400695 0.917333 0.008928
C45   C     C_R   0.532474 0.154772 0.146242 0.531001
C46   C     C_R   0.468824 0.156378 0.852895 0.534991
C47   C     C_R   0.032474 0.654772 0.146242 0.531002
C48   C     C_R   0.968824 0.656378 0.852895 0.534989
C49   C     C_R   0.508466 0.161978 0.580642 0.013424
C50   C     C_R   0.523228 0.163383 0.432196 0.020261
C51   C     C_R   0.008468 0.661973 0.580643 0.013426
C52   C     C_R   0.023228 0.663381 0.432197 0.020260
C53   C     C_R   0.522577 0.054290 0.543272 0.018341
C54   C     C_R   0.528627 0.055751 0.470622 0.030437
C55   C     C_R   0.022572 0.554282 0.543271 0.018337
C56   C     C_R   0.028621 0.555746 0.470621 0.030425
C57   C     C_R   0.524637 0.273483 0.470287 -0.150183
C58   C     C_R   0.518250 0.272479 0.544832 -0.150300
C59   C     C_R   0.024647 0.773480 0.470290 -0.150178
C60   C     C_R   0.018261 0.772474 0.544835 -0.150287
C61   C     C_3   0.483848 0.936229 0.540939 -0.269014
C62   C     C_3   0.489688 0.940027 0.460980 -0.277773
C63   C     C_3   0.983838 0.436225 0.540936 -0.269006
C64   C     C_3   0.989677 0.440026 0.460977 -0.277777
C65   C     C_R   0.758076 0.914061 0.574932 -0.008559
C66   C     C_R   0.243442 0.913878 0.425016 0.000433
C67   C     C_R   0.258075 0.414062 0.574935 -0.008560
C68   C     C_R   0.743436 0.413855 0.425022 0.000434
C69   C     C_R   0.818233 0.936903 0.533914 0.095082
C70   C     C_R   0.187867 0.968601 0.462062 0.055826
C71   C     C_R   0.318230 0.436920 0.533918 0.095075
C72   C     C_R   0.687862 0.468582 0.462067 0.055838
C73   C     C_R   0.815274 0.939401 0.460596 -0.014980
C74   C     C_R   0.189076 0.974603 0.535393 -0.012482
C75   C     C_R   0.315267 0.439435 0.460600 -0.014984
C76   C     C_R   0.689072 0.474589 0.535398 -0.012477
C77   C     C_R   0.690704 0.896822 0.467139 -0.162242
C78   C     C_R   0.298531 0.862972 0.537400 -0.175399
C79   C     C_R   0.190699 0.396842 0.467144 -0.162242
C80   C     C_R   0.798525 0.362951 0.537406 -0.175404
C81   C     C_R   0.694123 0.892322 0.541161 -0.183555
C82   C     C_R   0.298709 0.860372 0.463152 -0.175085
C83   C     C_R   0.194120 0.392334 0.541166 -0.183558
C84   C     C_R   0.798701 0.360341 0.463158 -0.175072
C85   C     C_3   0.862430 0.049095 0.536756 0.013992
C86   C     C_3   0.164667 0.098647 0.454978 0.007225
C87   C     C_3   0.362410 0.549125 0.536770 0.013994
C88   C     C_3   0.664664 0.598627 0.454981 0.007237
C89   C     C_R   0.740233 0.974877 0.145485 0.537798
C90   C     C_R   0.257993 0.967586 0.851953 0.536278
C91   C     C_R   0.240232 0.474878 0.145484 0.537801
C92   C     C_R   0.757992 0.467586 0.851953 0.536276
C93   C     C_3   0.864474 0.044843 0.456462 -0.244950
C94   C     C_3   0.164511 0.103916 0.535041 -0.223557
C95   C     C_3   0.364436 0.544911 0.456475 -0.244968
C96   C     C_3   0.664511 0.603904 0.535043 -0.223564
C97   C     C_R   0.750722 0.925051 0.426167 -0.007780
C98   C     C_R   0.245568 0.925771 0.574129 0.010949
C99   C     C_R   0.250718 0.425067 0.426171 -0.007783
C100  C     C_R   0.745564 0.425759 0.574133 0.010949
C101  C     C_R   0.729549 0.378817 0.352358 0.555424
C102  C     C_R   0.270469 0.379316 0.647884 0.539895
C103  C     C_R   0.229551 0.878822 0.352356 0.555416
C104  C     C_R   0.770469 0.879316 0.647884 0.539894
C105  C     C_R   0.536674 0.156843 0.356174 0.550030
C106  C     C_R   0.469551 0.156449 0.647591 0.548319
C107  C     C_R   0.036673 0.656842 0.356174 0.550028
C108  C     C_R   0.969552 0.656449 0.647591 0.548319
C109  C     C_R   0.741168 0.972499 0.354856 0.551629
C110  C     C_R   0.258243 0.971758 0.645391 0.544971
C111  C     C_R   0.241166 0.472503 0.354858 0.551626
C112  C     C_R   0.758242 0.471755 0.645393 0.544971
C113  C     C_R   0.499864 0.169927 0.923795 -0.004362
C114  C     C_R   0.508343 0.160177 0.072496 -0.004263
C115  C     C_R   0.999864 0.669927 0.923795 -0.004362
C116  C     C_R   0.008343 0.660176 0.072496 -0.004264
C117  C     C_R   0.491075 0.278872 0.964499 0.027536
C118  C     C_R   0.488255 0.270499 0.039672 0.005907
C119  C     C_R   0.991076 0.778871 0.964499 0.027536
C120  C     C_R   0.988256 0.770499 0.039672 0.005906
C121  C     C_R   0.523926 0.057733 0.030436 -0.150974
C122  C     C_R   0.520031 0.062728 0.957631 -0.166148
C123  C     C_R   0.023927 0.557733 0.030435 -0.150973
C124  C     C_R   0.020031 0.562728 0.957631 -0.166148
Cr1   Cr    Cr6+3 0.772010 0.169670 0.250090 0.996846
Cr2   Cr    Cr6+3 0.227990 0.169670 0.749910 0.996474
Cr3   Cr    Cr6+3 0.272010 0.669670 0.250090 0.996844
Cr4   Cr    Cr6+3 0.727990 0.669670 0.749910 0.996475
Cr5   Cr    Cr6+3 0.615000 0.323260 0.249260 0.989363
Cr6   Cr    Cr6+3 0.385000 0.323260 0.750740 1.004873
Cr7   Cr    Cr6+3 0.115000 0.823260 0.249260 0.989371
Cr8   Cr    Cr6+3 0.885000 0.823260 0.750740 1.004869
Cr9   Cr    Cr6+3 0.616710 0.010760 0.250840 0.992236
Cr10  Cr    Cr6+3 0.383290 0.010760 0.749160 0.995911
Cr11  Cr    Cr6+3 0.116710 0.510760 0.250840 0.992227
Cr12  Cr    Cr6+3 0.883290 0.510760 0.749160 0.995910
H1    H     H_    0.540952 0.972273 0.053519 0.151079
H2    H     H_    0.529340 0.979707 0.927895 0.136707
H3    H     H_    0.040954 0.472273 0.053519 0.151079
H4    H     H_    0.029341 0.479707 0.927895 0.136707
H5    H     H_    0.528018 0.358851 0.442459 0.122554
H6    H     H_    0.516050 0.356502 0.573998 0.153132
H7    H     H_    0.028037 0.858849 0.442463 0.122545
H8    H     H_    0.016071 0.856498 0.574003 0.153118
H9    H     H_    0.929118 0.446676 0.559540 0.171768
H10   H     H_    0.022443 0.365377 0.438838 0.154556
H11   H     H_    0.429128 0.946673 0.559542 0.171765
H12   H     H_    0.522455 0.865379 0.438843 0.154544
H13   H     H_    0.514565 0.860919 0.565322 0.126742
H14   H     H_    0.438579 0.954655 0.433784 0.136718
H15   H     H_    0.014554 0.360911 0.565318 0.126741
H16   H     H_    0.938568 0.454659 0.433782 0.136718
H17   H     H_    0.640285 0.885055 0.442253 0.158479
H18   H     H_    0.342170 0.824063 0.566033 0.113335
H19   H     H_    0.140278 0.385087 0.442260 0.158468
H20   H     H_    0.842165 0.324048 0.566040 0.113339
H21   H     H_    0.647571 0.869660 0.571740 0.130624
H22   H     H_    0.342439 0.819181 0.435314 0.117509
H23   H     H_    0.147568 0.369673 0.571744 0.130625
H24   H     H_    0.842430 0.319151 0.435321 0.117510
H25   H     H_    0.831838 0.126391 0.558890 0.129199
H26   H     H_    0.205125 0.157528 0.429666 0.138691
H27   H     H_    0.331814 0.626398 0.558926 0.129213
H28   H     H_    0.705123 0.657504 0.429666 0.138675
H29   H     H_    0.840411 0.126273 0.432866 0.152685
H30   H     H_    0.205833 0.164362 0.555941 0.155822
H31   H     H_    0.340337 0.626318 0.432897 0.152701
H32   H     H_    0.705835 0.664350 0.555939 0.155819
H33   H     H_    0.915645 0.017831 0.432040 0.121554
H34   H     H_    0.111626 0.115040 0.559997 0.139702
H35   H     H_    0.415606 0.517962 0.432035 0.121569
H36   H     H_    0.611626 0.615035 0.560000 0.139696
H37   H     H_    0.497460 0.411707 0.877777 0.131816
H38   H     H_    0.457972 0.368288 0.136323 0.133537
H39   H     H_    0.997460 0.911707 0.877777 0.131814
H40   H     H_    0.957971 0.868287 0.136323 0.133539
H41   H     H_    0.966932 0.086980 0.949653 0.097257
H42   H     H_    0.946315 0.065713 0.078804 0.106092
H43   H     H_    0.466932 0.586981 0.949653 0.097257
H44   H     H_    0.446315 0.565713 0.078804 0.106091
H45   H     H_    0.819519 0.094132 0.050234 0.143114
H46   H     H_    0.130798 0.937016 0.916324 0.132493
H47   H     H_    0.319519 0.594134 0.050233 0.143114
H48   H     H_    0.630798 0.437018 0.916325 0.132493
H49   H     H_    0.820173 0.072388 0.922717 0.137608
H50   H     H_    0.113020 0.888876 0.041982 0.153487
H51   H     H_    0.320174 0.572388 0.922717 0.137608
H52   H     H_    0.613020 0.388878 0.041982 0.153487
H53   H     H_    0.231621 0.169855 0.953207 0.161066
H54   H     H_    0.893325 0.296048 0.069019 0.126956
H55   H     H_    0.731625 0.669852 0.953206 0.161065
H56   H     H_    0.393325 0.796051 0.069019 0.126956
H57   H     H_    0.634108 0.697050 0.947404 0.137929
H58   H     H_    0.356140 0.952335 0.084521 0.151097
H59   H     H_    0.134104 0.197056 0.947403 0.137928
H60   H     H_    0.856140 0.452333 0.084521 0.151097
H61   H     H_    0.629166 0.726534 0.073290 0.139186
H62   H     H_    0.373480 0.999906 0.961549 0.159060
H63   H     H_    0.129162 0.226545 0.073289 0.139185
H64   H     H_    0.873480 0.499904 0.961549 0.159060
H65   H     H_    0.726309 0.696681 0.078925 0.143226
H66   H     H_    0.411373 0.843870 0.946249 0.133175
H67   H     H_    0.226304 0.196686 0.078925 0.143226
H68   H     H_    0.911373 0.343867 0.946248 0.133175
O1    O     O_R   0.787520 0.042810 0.170440 -0.538083
O2    O     O_R   0.212480 0.042810 0.829560 -0.533560
O3    O     O_R   0.287520 0.542810 0.170440 -0.538082
O4    O     O_R   0.712480 0.542810 0.829560 -0.533560
O5    O     O_R   0.556610 0.252880 0.323980 -0.506140
O6    O     O_R   0.443390 0.252880 0.676020 -0.489053
O7    O     O_R   0.056610 0.752880 0.323980 -0.506131
O8    O     O_R   0.943390 0.752880 0.676020 -0.489045
O9    O     O_R   0.545950 0.051210 0.330860 -0.521015
O10   O     O_R   0.454050 0.051210 0.669140 -0.529708
O11   O     O_R   0.045950 0.551210 0.330860 -0.521019
O12   O     O_R   0.954050 0.551210 0.669140 -0.529708
O13   O     O_R   0.681390 0.959480 0.325510 -0.516640
O14   O     O_R   0.318610 0.959480 0.674490 -0.511270
O15   O     O_R   0.181390 0.459480 0.325510 -0.516656
O16   O     O_R   0.818610 0.459480 0.674490 -0.511271
O17   O     O_3   0.667900 0.167900 0.250060 -0.262329
O18   O     O_3   0.332100 0.167900 0.749940 -0.241318
O19   O     O_3   0.167900 0.667900 0.250060 -0.262328
O20   O     O_3   0.832100 0.667900 0.749940 -0.241316
O21   O     O_R   0.765640 0.292100 0.175020 -0.503120
O22   O     O_R   0.234360 0.292100 0.824980 -0.503317
O23   O     O_R   0.265640 0.792100 0.175020 -0.503122
O24   O     O_R   0.734360 0.792100 0.824980 -0.503316
O25   O     O_R   0.670190 0.408840 0.168540 -0.526898
O26   O     O_R   0.329810 0.408840 0.831460 -0.527643
O27   O     O_R   0.170190 0.908840 0.168540 -0.526900
O28   O     O_R   0.829810 0.908840 0.831460 -0.527641
O29   O     O_R   0.556620 0.251410 0.175160 -0.525769
O30   O     O_R   0.443380 0.251410 0.824840 -0.512877
O31   O     O_R   0.056620 0.751410 0.175160 -0.525765
O32   O     O_R   0.943380 0.751410 0.824840 -0.512879
O33   O     O_R   0.545960 0.049620 0.170320 -0.522510
O34   O     O_R   0.454040 0.049620 0.829680 -0.525818
O35   O     O_R   0.045960 0.549620 0.170320 -0.522510
O36   O     O_R   0.954040 0.549620 0.829680 -0.525818
O37   O     O_R   0.681390 0.958010 0.176690 -0.499425
O38   O     O_R   0.318610 0.958010 0.823310 -0.497895
O39   O     O_R   0.181390 0.458010 0.176690 -0.499424
O40   O     O_R   0.818610 0.458010 0.823310 -0.497896
O41   O     O_R   0.787510 0.044390 0.330970 -0.522904
O42   O     O_R   0.212490 0.044390 0.669030 -0.526474
O43   O     O_R   0.287510 0.544390 0.330970 -0.522902
O44   O     O_R   0.712490 0.544390 0.669030 -0.526475
O45   O     O_R   0.765630 0.293570 0.323840 -0.505069
O46   O     O_R   0.234370 0.293570 0.676160 -0.513972
O47   O     O_R   0.265630 0.793570 0.323840 -0.505070
O48   O     O_R   0.734370 0.793570 0.676160 -0.513969
O49   O     O_R   0.670190 0.410420 0.329080 -0.515868
O50   O     O_R   0.329810 0.410420 0.670920 -0.501565
O51   O     O_R   0.170190 0.910420 0.329080 -0.515882
O52   O     O_R   0.829810 0.910420 0.670920 -0.501561
N1    N     N_2   0.930676 0.030427 0.569696 -0.491526
H69   H     H_    0.972657 0.033151 0.534862 0.232021
C125  C     C_3   0.944115 0.104648 0.631664 -0.287873
H70   H     H_    0.993785 0.074212 0.657175 0.128037
H71   H     H_    0.900804 0.097392 0.671123 0.177942
H72   H     H_    0.949392 0.201273 0.615834 0.111398
N2    N     N_2   0.094116 0.114708 0.426703 -0.529061
H73   H     H_    0.056907 0.052005 0.441424 0.243791
C126  C     C_3   0.087429 0.161882 0.355208 -0.293932
H74   H     H_    0.033633 0.199751 0.348120 0.119476
H75   H     H_    0.095185 0.088675 0.315578 0.179889
H76   H     H_    0.125819 0.235619 0.345209 0.157988
N3    N     N_2   0.430666 0.530464 0.569692 -0.491525
H77   H     H_    0.472638 0.533166 0.534845 0.232019
C127  C     C_3   0.444126 0.604703 0.631647 -0.287903
H78   H     H_    0.493845 0.574350 0.657106 0.127983
H79   H     H_    0.400856 0.597360 0.671153 0.177963
H80   H     H_    0.449331 0.701344 0.615812 0.111443
N4    N     N_2   0.594112 0.614691 0.426708 -0.529057
H81   H     H_    0.556897 0.552012 0.441447 0.243770
C128  C     C_3   0.587419 0.661836 0.355208 -0.293858
H82   H     H_    0.533646 0.699830 0.348147 0.119474
H83   H     H_    0.595082 0.588577 0.315584 0.179841
H84   H     H_    0.625866 0.735473 0.345172 0.157979

loop_
_geom_bond_atom_site_label_1
_geom_bond_atom_site_label_2
_ccdc_geom_bond_type
C127  H80   S    
C87   H27   S    
C55   C56   A    
C88   C96   S    
C67   C83   A    
C93   H29   S    
C98   C110  S    
C116  C123  A    
C39   H67   S    
Cr2   O42   S    
C103  O51   A    
Cr9   O33   S    
C14   C18   A    
C35   C39   S    
N4    H81   S    
Cr8   O8    S    
C73   C93   S    
C80   C84   A    
C125  H72   S    
C7    H39   S    
C94   H30   S    
C31   H51   S    
C84   H24   S    
C75   C95   S    
N2    H73   S    
C74   C98   A    
C22   C42   A    
C53   C54   A    
C15   C19   A    
Cr1   O17   S    
Cr11  O39   S    
C8    C120  A    
Cr4   O48   S    
C111  O15   A    
C64   H16   S    
C59   H7    S    
C36   H54   S    
C30   H50   S    
C13   C29   A    
C16   C20   A    
N4    C128  S    
C88   N4    S    
C45   O29   A    
Cr2   O46   S    
C5    C11   A    
Cr7   O19   S    
C6    C12   A    
C82   H22   S    
C65   C69   A    
C107  O7    A    
Cr11  O19   S    
Cr6   O26   S    
C11   H43   S    
Cr7   O27   S    
C127  H78   S    
C22   C38   S    
C123  H3    S    
Cr2   O18   S    
C105  O5    A    
Cr6   O30   S    
C7    C9    A    
N1    H69   S    
C121  H1    S    
C4    C13   S    
Cr3   O3    S    
C85   H25   S    
Cr10  O38   S    
C86   C94   S    
Cr9   O37   S    
C90   O2    A    
C114  C121  A    
C85   C93   S    
C45   C114  S    
C89   O1    A    
C113  C122  A    
C40   H68   S    
C52   C107  S    
Cr11  O35   S    
C51   C108  S    
Cr10  O18   S    
C55   C63   S    
C70   C74   A    
C50   C105  S    
Cr9   O17   S    
C58   H6    S    
C96   H32   S    
C69   C73   A    
C99   C111  S    
C86   H26   S    
C89   O37   A    
C37   H61   S    
Cr8   O20   S    
C126  H74   S    
Cr3   O47   S    
C44   C92   S    
C35   H59   S    
C123  C124  A    
C77   H17   S    
C34   H58   S    
C46   O34   A    
C85   N1    S    
C72   C88   S    
C65   C104  S    
C109  O41   A    
C59   C60   A    
C35   H53   S    
C62   H12   S    
C128  H82   S    
C80   C100  A    
Cr3   O23   S    
Cr10  O34   S    
Cr4   O20   S    
C38   H62   S    
Cr2   O22   S    
C17   C33   S    
C14   C30   A    
C2    O22   A    
Cr1   O21   S    
Cr8   O28   S    
C75   C99   A    
C34   C38   S    
C108  O8    A    
C25   H45   S    
C80   H20   S    
C47   O31   A    
C18   C34   S    
C38   H66   S    
C25   C29   A    
C47   C116  S    
C106  O10   A    
Cr11  O11   S    
C71   C75   A    
C105  O9    A    
C32   H52   S    
C27   C31   A    
C10   H42   S    
C20   C24   A    
C76   C100  A    
C28   C32   A    
Cr6   O18   S    
C81   H21   S    
C68   C101  S    
C122  H2    S    
Cr5   O17   S    
C3    O27   A    
N3    C127  S    
Cr12  O40   S    
C78   H18   S    
C6    H38   S    
C51   C55   A    
Cr7   O31   S    
C42   C90   S    
Cr10  O14   S    
C79   H19   S    
C15   C31   A    
C28   C44   A    
C43   C91   S    
C49   C58   A    
C116  C120  A    
Cr5   O29   S    
C68   C72   A    
N1    C125  S    
C68   C84   A    
C101  O49   A    
C19   C23   A    
C17   C21   A    
C36   H60   S    
C78   C98   A    
C92   O4    A    
C52   C59   A    
C7    C119  A    
C76   C96   S    
C66   C82   A    
C97   C109  S    
Cr1   O45   S    
C78   C82   A    
C65   C81   A    
Cr12  O20   S    
C36   C40   S    
Cr4   O24   S    
Cr3   O43   S    
Cr11  O15   S    
C46   O30   A    
C56   C64   S    
C112  O16   A    
C79   C99   A    
C83   H23   S    
C72   C76   A    
C1    C16   S    
C108  O12   A    
Cr5   O25   S    
C77   C97   A    
C2    C15   S    
C126  H75   S    
C63   H15   S    
C121  C122  A    
C114  C118  A    
Cr4   O44   S    
C40   H64   S    
C4    O28   A    
C48   C115  S    
C21   C41   A    
Cr6   O50   S    
C8    C10   A    
C12   H44   S    
Cr5   O49   S    
C73   C97   A    
C115  C119  A    
C94   H34   S    
C128  H83   S    
C102  O46   A    
Cr7   O7    S    
Cr1   O41   S    
C24   C44   A    
C71   C87   S    
Cr6   O6    S    
C3    C14   S    
C127  H79   S    
Cr5   O5    S    
C125  H70   S    
C70   C86   S    
C3    O23   A    
C86   N2    S    
C26   H46   S    
C9    H41   S    
C26   C42   A    
C33   C37   S    
C9    C10   A    
C113  C117  A    
C1    O21   A    
C104  O48   A    
C112  O44   A    
C27   C43   A    
C39   H63   S    
C87   C95   S    
C93   H33   S    
C115  C124  A    
C62   H14   S    
C46   C113  S    
C64   H10   S    
C41   C89   S    
C18   C22   A    
C23   C43   A    
C5    H37   S    
C66   C103  S    
C69   C85   S    
C101  O45   A    
C124  H4    S    
C91   O39   A    
C63   C64   S    
C125  H71   S    
C107  O11   A    
C95   H31   S    
C91   O3    A    
C119  C120  A    
C8    H40   S    
C100  C112  S    
C49   C106  S    
Cr12  O16   S    
Cr3   O19   S    
C16   C32   A    
C45   O33   A    
C54   C62   S    
C48   O36   A    
C104  O52   A    
C57   H5    S    
C33   H55   S    
Cr9   O9    S    
Cr8   O52   S    
C90   O38   A    
C61   H11   S    
C103  O47   A    
C50   C54   A    
Cr12  O36   S    
C88   H28   S    
C117  C118  A    
C60   H8    S    
C79   C83   A    
C50   C57   A    
Cr8   O32   S    
C110  O42   A    
C57   C58   A    
C66   C70   A    
C61   H13   S    
C34   H56   S    
Cr2   O2    S    
C92   O40   A    
C23   C39   S    
Cr1   O1    S    
C48   O32   A    
C47   O35   A    
C29   H49   S    
Cr7   O51   S    
C67   C71   A    
C53   C61   S    
C4    O24   A    
C28   H48   S    
C61   C62   S    
C110  O14   A    
C126  H76   S    
C27   H47   S    
C24   C40   S    
C49   C53   A    
C109  O13   A    
C2    O26   A    
C33   H57   S    
C13   C17   A    
C20   C36   S    
C1    O25   A    
C21   C37   S    
C67   C102  S    
Cr10  O10   S    
C111  O43   A    
C77   C81   A    
C96   H36   S    
C128  H84   S    
C5    C117  A    
C74   C94   S    
C37   H65   S    
C25   C41   A    
C19   C35   S    
C51   C60   A    
Cr4   O4    S    
N2    C126  S    
C102  O50   A    
N3    H77   S    
C95   H35   S    
C63   H9    S    
C87   N3    S    
C52   C56   A    
C11   C12   A    
C6    C118  A    
Cr9   O13   S    
Cr12  O12   S    
C26   C30   A    
C106  O6    A    
