data_mof_unit_37445.cif
_audit_creation_date              2013-03-05T15:43:42-0500
_audit_creation_method            fapswitch 2.2
_symmetry_space_group_name_H-M    P1
_symmetry_Int_Tables_number       1
_space_group_crystal_system       triclinic
_cell_length_a                    14.874574
_cell_length_b                    10.605857
_cell_length_c                    10.098379
_cell_angle_alpha                 92.80645
_cell_angle_beta                  89.25486
_cell_angle_gamma                 90.898222
_cell_volume                      1590.87040328

loop_
_atom_site_label
_atom_site_type_symbol
_atom_site_description
_atom_site_fract_x
_atom_site_fract_y
_atom_site_fract_z
_atom_type_partial_charge
O1    O     O_R   0.499990 0.319060 0.613040 -0.606204
O2    O     O_R   0.500010 0.319100 0.386900 -0.618812
C1    C     C_R   0.500355 0.262413 0.496196 0.964129
O3    O     O_R   0.367830 0.499950 0.613080 -0.598910
O4    O     O_R   0.367860 0.499990 0.386940 -0.605927
C2    C     C_R   0.327325 0.498858 0.500666 0.949023
Zn1   Zn    Zn3+2 0.499980 0.499970 0.650990 1.001122
Zn2   Zn    Zn3+2 0.500020 0.500030 0.349010 1.020965
O5    O     O_R   0.499990 0.680900 0.613100 -0.578303
O6    O     O_R   0.500010 0.680940 0.386960 -0.604984
O7    O     O_R   0.632140 0.500010 0.613060 -0.646385
O8    O     O_R   0.632170 0.500050 0.386920 -0.548540
C3    C     C_R   0.506867 0.737856 0.503468 0.846980
C4    C     C_R   0.672524 0.500198 0.499196 0.874838
C5    C     C_R   0.813650 0.615179 0.499003 -0.170482
C6    C     C_R   0.767499 0.500415 0.497285 -0.032338
C7    C     C_R   0.811070 0.385904 0.494898 -0.232683
C8    C     C_R   0.903937 0.385026 0.493885 0.155298
C9    C     C_R   0.952664 0.500950 0.497828 0.041271
C10   C     C_R   0.907228 0.617543 0.502257 0.039089
C11   C     C_R   0.948356 0.270006 0.489450 -0.217817
C12   C     C_R   0.041387 0.268343 0.488045 -0.104712
C13   C     C_R   0.091245 0.382037 0.490999 0.031609
C14   C     C_R   0.046366 0.499568 0.497012 -0.022311
C15   C     C_R   0.095216 0.615202 0.502307 -0.023467
C16   C     C_R   0.050296 0.731722 0.505049 0.257853
C17   C     C_R   0.955733 0.733143 0.507356 0.102239
C18   C     C_R   0.185095 0.381190 0.490708 0.253156
C19   C     C_R   0.231806 0.496469 0.501893 -0.186504
C20   C     C_R   0.188436 0.611541 0.507417 -0.199431
H1    H     H_    0.775655 0.701529 0.498227 0.172518
H2    H     H_    0.772443 0.298129 0.493334 0.153679
H3    H     H_    0.911075 0.181253 0.487154 0.152605
H4    H     H_    0.073668 0.177537 0.486162 0.233509
H5    H     H_    0.228564 0.697717 0.515373 0.201271
C21   C     C_2   0.555266 0.928963 0.404387 -0.271321
C22   C     C_2   0.534229 0.868593 0.514492 0.117824
H6    H     H_    0.558421 0.879866 0.307566 0.192308
C23   C     C_2   0.561118 0.066133 0.408394 0.227530
C24   C     C_2   0.499870 0.128911 0.484022 -0.230378
H7    H     H_    0.447501 0.080985 0.539157 0.187089
C25   C     C_2   0.547541 0.578014 0.929993 0.221443
N1    N     N_2   0.500970 0.501330 0.852150 -0.078018
C26   C     C_2   0.563014 0.551944 0.074871 0.291978
N2    N     N_2   0.500990 0.501360 0.147810 -0.244014
H8    H     H_    0.437874 0.494117 0.107612 0.173586
N3    N     N_R   0.545132 0.928226 0.645005 0.193768
O9    O     O_R   0.482516 0.916514 0.734981 -0.372839
O10   O     O_R   0.616954 0.995444 0.673299 -0.427425
N4    N     N_2   0.627472 0.130458 0.331898 -0.303549
H9    H     H_    0.602134 0.170875 0.249687 0.252468
C27   C     C_3   0.712068 0.067388 0.307171 -0.727452
H10   H     H_    0.760861 0.133763 0.262465 0.243250
H11   H     H_    0.702637 0.984177 0.237264 0.254021
H12   H     H_    0.740323 0.037112 0.401693 0.260693
N5    N     N_2   0.586651 0.687951 0.874493 -0.268916
H13   H     H_    0.626637 0.672849 0.791484 0.261664
C28   C     C_3   0.610598 0.796824 0.959612 -0.627001
H14   H     H_    0.610744 0.882748 0.901778 0.285708
H15   H     H_    0.679607 0.787049 0.997692 0.255989
H16   H     H_    0.561196 0.810376 0.042371 0.233052
N6    N     N_2   0.482573 0.383982 0.900058 -0.301118
H17   H     H_    0.526660 0.316277 0.863792 0.267826
C29   C     C_3   0.389526 0.344889 0.886580 -0.586390
H18   H     H_    0.377165 0.258719 0.942633 0.234465
H19   H     H_    0.373249 0.323058 0.781317 0.292835
H20   H     H_    0.344457 0.420285 0.927096 0.218290
N7    N     N_R   0.648945 0.583688 0.130609 0.228000
O11   O     O_R   0.721294 0.541534 0.071053 -0.394236
O12   O     O_R   0.656045 0.676263 0.219371 -0.419516
N8    N     N_R   0.233151 0.264726 0.477360 0.190245
O13   O     O_R   0.284076 0.230529 0.572504 -0.415008
O14   O     O_R   0.227796 0.194358 0.368469 -0.348503
N9    N     N_R   0.100380 0.848509 0.503641 0.193121
O15   O     O_R   0.148740 0.875112 0.400131 -0.352717
O16   O     O_R   0.096269 0.929540 0.604354 -0.380789
N10   N     N_2   0.909359 0.850106 0.508281 -0.308223
H21   H     H_    0.941229 0.919747 0.456554 0.259151
C30   C     C_3   0.876735 0.895741 0.637339 -0.696094
H22   H     H_    0.933898 0.921513 0.703421 0.277148
H23   H     H_    0.834171 0.823051 0.684392 0.243672
H24   H     H_    0.835374 0.980778 0.626140 0.243038

loop_
_geom_bond_atom_site_label_1
_geom_bond_atom_site_label_2
_geom_bond_distance
_ccdc_geom_bond_type
C8    C11   1.394927 A    
C9    C10   1.416993 A    
N3    O10   1.302026 A    
N10   H21   1.031260 S    
C26   N2    1.298848 D    
Zn1   O7    1.997893 S    
C16   C17   1.406783 A    
C19   C20   1.387739 A    
N9    O16   1.300433 A    
C20   H5    1.083987 S    
C21   C22   1.341101 D    
O4    C2    1.290635 A    
O7    C4    1.290421 A    
C11   H3    1.084413 S    
C28   H15   1.108966 S    
C5    C6    1.387477 A    
N5    H13   1.029060 S    
C8    C9    1.416520 A    
O5    C3    1.289047 A    
Zn2   N2    2.032395 S    
N6    C29   1.444768 S    
C25   N5    1.430480 S    
N7    O11   1.300623 A    
N4    C27   1.447427 S    
C13   C14   1.421530 A    
Zn1   N1    2.030977 S    
C22   N3    1.443627 S    
C3    C22   1.438399 S    
C27   H12   1.111542 S    
C28   H16   1.111151 S    
C11   C12   1.384056 A    
C25   C26   1.523235 S    
O3    Zn1   2.007485 S    
C27   H11   1.111116 S    
C7    C8    1.381440 A    
N10   C30   1.448240 S    
C5    C10   1.392543 A    
C12   H4    1.082079 S    
N9    O15   1.301011 A    
C29   H20   1.110800 S    
C14   C15   1.414751 A    
O3    C2    1.291544 A    
C23   C24   1.344507 D    
N8    O14   1.300983 A    
C6    C7    1.384560 A    
C15   C16   1.412952 A    
N2    H8    1.027941 S    
O1    C1    1.297591 A    
C29   H19   1.105899 S    
N6    H17   1.030806 S    
C30   H24   1.110808 S    
N3    O9    1.301500 A    
Zn2   O8    2.007481 S    
C23   N4    1.430729 S    
N4    H9    1.031051 S    
C13   C18   1.396105 A    
Zn2   O6    1.938118 S    
C24   H7    1.085893 S    
O8    C4    1.289696 A    
C1    C24   1.415129 S    
C4    C6    1.412564 S    
C26   N7    1.431992 S    
C18   N8    1.436568 S    
C25   N1    1.301211 D    
C27   H10   1.110270 S    
C30   H23   1.110721 S    
C15   C20   1.389466 A    
Zn1   O5    1.974979 S    
C18   C19   1.397229 A    
O1    Zn1   1.938118 S    
C21   C23   1.454661 S    
O2    Zn2   1.974977 S    
C17   N10   1.428376 S    
O6    C3    1.300269 A    
O4    Zn2   1.997896 S    
C5    H1    1.084088 S    
C10   C17   1.411884 A    
C29   H18   1.110012 S    
C21   H6    1.085834 S    
O2    C1    1.282533 A    
C28   H14   1.106152 S    
N8    O13   1.300047 A    
C16   N9    1.435928 S    
N5    C28   1.448083 S    
C9    C14   1.394003 A    
C30   H22   1.110229 S    
C2    C19   1.420529 S    
N7    O12   1.300635 A    
C7    H2    1.085818 S    
C12   C13   1.404965 A    
N1    N6    1.379399 S    
