data_mof_unit_49738.cif
_audit_creation_date              2012-12-10T19:14:24-0500
_audit_creation_method            fapswitch 2.2
_symmetry_space_group_name_H-M    P1
_symmetry_Int_Tables_number       1
_space_group_crystal_system       triclinic
_cell_length_a                    15.999975
_cell_length_b                    14.758245
_cell_length_c                    10.82186
_cell_angle_alpha                 87.549857
_cell_angle_beta                  89.414072
_cell_angle_gamma                 88.440094
_cell_volume                      2551.995248

loop_
_atom_site_label
_atom_site_type_symbol
_atom_type_description
_atom_site_fract_x
_atom_site_fract_y
_atom_site_fract_z
_atom_type_partial_charge
C1    C     C_R   0.340790 0.501132 0.498891 0.838970
C2    C     C_R   0.659090 0.498783 0.498095 0.844565
C3    C     C_R   0.961032 0.422325 0.449081 0.304542
C4    C     C_R   0.048575 0.423905 0.456985 0.290556
C5    C     C_1   0.822976 0.493790 0.491087 0.130258
C6    C     C_1   0.176515 0.503662 0.501350 0.083937
C7    C     C_1   0.251597 0.503396 0.500226 -0.162189
C8    C     C_1   0.748026 0.495601 0.493823 -0.123150
C9    C     C_R   0.562175 0.948327 0.563988 0.221422
C10   C     C_R   0.440400 0.957254 0.432547 0.232089
C11   C     C_R   0.501357 0.903122 0.497342 -0.095246
C12   C     C_R   0.440895 0.052823 0.433821 -0.190078
C13   C     C_R   0.562092 0.044203 0.564405 -0.167288
C14   C     C_R   0.501520 0.097459 0.499364 -0.053754
C15   C     C_1   0.500393 0.802754 0.498596 0.270231
C16   C     C_1   0.500832 0.197346 0.500012 0.200223
C17   C     C_R   0.502752 0.502843 0.261058 0.853193
C18   C     C_R   0.499593 0.497885 0.738350 0.918751
C19   C     C_R   0.421184 0.654350 0.096869 0.357263
C20   C     C_R   0.363890 0.583047 0.879173 0.402599
C21   C     C_R   0.350528 0.693868 0.037406 0.201398
C22   C     C_R   0.323829 0.660451 0.924340 0.283322
C23   C     C_R   0.439032 0.548675 0.934680 -0.226336
C24   C     C_R   0.457115 0.571786 0.055277 -0.178005
C25   C     C_R   0.509978 0.510603 0.126229 -0.139996
C26   C     C_R   0.497023 0.492950 0.872455 -0.168270
C27   C     C_R   0.563255 0.448429 0.066273 0.217201
C28   C     C_R   0.560216 0.443790 0.937767 0.214461
C29   C     C_R   0.950609 0.572402 0.534412 0.307943
C30   C     C_R   0.038020 0.573243 0.545527 0.285557
C31   C     C_R   0.912474 0.495638 0.491326 -0.193833
C32   C     C_R   0.086868 0.500650 0.501473 -0.190745
Cu1   Cu    Cu3+1 0.500000 0.589220 0.500000 1.020017
Cu2   Cu    Cu3+1 0.500000 0.410780 0.500000 1.027706
H1    H     H_    0.609218 0.077070 0.616463 0.185889
H2    H     H_    0.393219 0.092407 0.383743 0.170735
N1    N     N_1   0.500000 0.276710 0.500000 -0.141642
N2    N     N_1   0.500000 0.723290 0.500000 -0.143643
O1    O     O_R   0.380310 0.575320 0.500020 -0.555164
O2    O     O_R   0.619690 0.575320 0.499980 -0.594467
O3    O     O_R   0.380310 0.424640 0.499960 -0.599905
O4    O     O_R   0.619690 0.424640 0.500040 -0.533399
O5    O     O_R   0.500000 0.575360 0.319640 -0.543326
O6    O     O_R   0.500000 0.575360 0.680360 -0.563374
O7    O     O_R   0.500000 0.424670 0.319580 -0.552937
O8    O     O_R   0.500000 0.424670 0.680420 -0.566292
Br1   Br    Br    0.646643 0.376912 0.157972 -0.506142
Br2   Br    Br    0.643670 0.372098 0.852290 -0.463454
O9    O     O_3   0.460305 0.703569 0.184722 -0.537268
C33   C     C_3   0.506937 0.774155 0.126332 0.179682
H3    H     H_    0.503864 0.833491 0.186103 0.188190
H4    H     H_    0.481090 0.799403 0.035496 0.103867
C34   C     C_3   0.598813 0.744811 0.108067 -0.409155
H5    H     H_    0.602962 0.678973 0.062116 0.233302
H6    H     H_    0.629613 0.796161 0.046221 0.207913
C35   C     C_3   0.646245 0.737092 0.229938 -0.759855
H7    H     H_    0.645257 0.803453 0.274732 0.240591
H8    H     H_    0.712250 0.716113 0.211925 0.226142
H9    H     H_    0.618218 0.685631 0.293806 0.296231
O10   O     O_3   0.327454 0.541593 0.781209 -0.570522
C36   C     C_3   0.304972 0.451353 0.816322 0.077890
H10   H     H_    0.336681 0.421249 0.900333 0.129974
H11   H     H_    0.324476 0.407293 0.740078 0.132395
C37   C     C_3   0.210073 0.443965 0.832710 -0.361600
H12   H     H_    0.177418 0.481861 0.756104 0.223855
H13   H     H_    0.193681 0.371458 0.828336 0.171205
C38   C     C_3   0.178720 0.478380 0.956425 -0.834201
H14   H     H_    0.212361 0.442657 0.034302 0.245306
H15   H     H_    0.110919 0.465452 0.966905 0.231469
H16   H     H_    0.187291 0.552318 0.960860 0.269840
O11   O     O_3   0.312589 0.769003 0.088040 -0.572607
C39   C     C_3   0.237233 0.744067 0.148245 0.096690
H17   H     H_    0.199497 0.807634 0.158679 0.182543
H18   H     H_    0.198544 0.699802 0.092204 0.107662
C40   C     C_3   0.254172 0.698041 0.276071 -0.329258
H19   H     H_    0.259083 0.623325 0.267265 0.169861
H20   H     H_    0.314562 0.719868 0.312584 0.301078
C41   C     C_3   0.185407 0.720778 0.369149 -0.800227
H21   H     H_    0.176634 0.795380 0.375092 0.266897
H22   H     H_    0.203903 0.693037 0.461962 0.295670
H23   H     H_    0.125605 0.691033 0.342071 0.242813
O12   O     O_3   0.256617 0.697689 0.857342 -0.610644
C42   C     C_3   0.262712 0.792129 0.828924 0.086632
H24   H     H_    0.212733 0.810648 0.761525 0.162376
H25   H     H_    0.247546 0.832723 0.910239 0.180588
C43   C     C_3   0.346043 0.820134 0.767989 -0.344266
H26   H     H_    0.398795 0.805538 0.832274 0.209574
H27   H     H_    0.357272 0.781433 0.683263 0.241223
C44   C     C_3   0.344100 0.921688 0.734149 -0.866567
H28   H     H_    0.407062 0.943012 0.703511 0.270398
H29   H     H_    0.325908 0.961184 0.815761 0.258035
H30   H     H_    0.299037 0.937482 0.658328 0.266126
O13   O     O_3   0.075772 0.647481 0.592568 -0.610582
C45   C     C_3   0.063724 0.648323 0.722418 0.116491
H31   H     H_    0.125332 0.635019 0.766177 0.209869
H32   H     H_    0.020707 0.595760 0.761659 0.128967
C46   C     C_3   0.030505 0.741982 0.757817 -0.298248
H33   H     H_    0.070891 0.795296 0.716046 0.210335
H34   H     H_    0.966500 0.753957 0.721137 0.249824
C47   C     C_3   0.027594 0.750127 0.897896 -0.946059
H35   H     H_    0.986146 0.698316 0.941119 0.262256
H36   H     H_    0.002808 0.818507 0.920454 0.261507
H37   H     H_    0.091236 0.740823 0.936935 0.260218
O14   O     O_3   0.901663 0.645683 0.569731 -0.585537
C48   C     C_3   0.897671 0.710445 0.469803 0.031543
H38   H     H_    0.882501 0.678577 0.381262 0.125831
H39   H     H_    0.958505 0.744997 0.459193 0.176175
C49   C     C_3   0.828863 0.780936 0.496208 -0.283697
H40   H     H_    0.767631 0.747070 0.502462 0.253039
H41   H     H_    0.840812 0.811587 0.586179 0.246070
C50   C     C_3   0.824829 0.856000 0.394820 -0.900410
H42   H     H_    0.884234 0.893290 0.390684 0.254879
H43   H     H_    0.772736 0.904557 0.414977 0.286360
H44   H     H_    0.813753 0.827027 0.303593 0.249929
O15   O     O_3   0.923082 0.347369 0.404668 -0.573547
C51   C     C_3   0.916962 0.359031 0.274833 0.081015
H45   H     H_    0.980136 0.365435 0.231414 0.163696
H46   H     H_    0.877974 0.420641 0.249257 0.140135
C52   C     C_3   0.875691 0.276365 0.224222 -0.312079
H47   H     H_    0.913126 0.214154 0.250811 0.222282
H48   H     H_    0.812064 0.269876 0.265247 0.261310
C53   C     C_3   0.869061 0.284383 0.083532 -0.825581
H49   H     H_    0.832185 0.346362 0.054527 0.293477
H50   H     H_    0.837300 0.224297 0.049954 0.276813
H51   H     H_    0.932329 0.287423 0.040601 0.235243
O16   O     O_3   0.096797 0.352754 0.413091 -0.590038
C54   C     C_3   0.116358 0.291191 0.512824 0.092601
H52   H     H_    0.059355 0.254422 0.543283 0.170533
H53   H     H_    0.141858 0.326413 0.592935 0.118351
C55   C     C_3   0.182667 0.222592 0.469952 -0.320864
H54   H     H_    0.157620 0.184699 0.392471 0.231001
H55   H     H_    0.238744 0.259281 0.435912 0.229001
C56   C     C_3   0.208542 0.155414 0.574697 -0.922261
H56   H     H_    0.235807 0.191762 0.651877 0.252710
H57   H     H_    0.256339 0.106480 0.540147 0.270311
H58   H     H_    0.153698 0.117094 0.609495 0.258754
Br3   Br    Br    0.645052 0.881364 0.659601 -0.584315
Br4   Br    Br    0.352945 0.904568 0.343409 -0.577346

loop_
_geom_bond_atom_site_label_1
_geom_bond_atom_site_label_2
_ccdc_geom_bond_type
C6    C32   S    
O13   C45   S    
Cu2   N1    S    
C50   H42   S    
Cu2   O4    S    
C54   H53   S    
C46   H33   S    
C34   H5    S    
C35   H7    S    
C48   H39   S    
Cu1   O1    S    
C21   O11   S    
C22   O12   S    
C19   C21   A    
C17   O7    A    
C13   H1    S    
C30   O13   S    
C41   H22   S    
C52   C53   S    
O15   C51   S    
C49   H40   S    
C23   C26   A    
C36   H11   S    
C9    C13   A    
C11   C15   S    
C35   H8    S    
C18   C26   S    
C56   H58   S    
C33   H4    S    
C23   C24   A    
Cu2   O8    S    
C20   O10   S    
C16   N1    T    
C45   H32   S    
C34   H6    S    
C1    C7    S    
C21   C22   A    
C45   H31   S    
Cu2   O3    S    
C9    Br3   S    
C39   C40   S    
C18   O8    A    
O14   C48   S    
C46   H34   S    
C33   H3    S    
C52   H48   S    
C48   C49   S    
Cu1   O2    S    
C38   H14   S    
C33   C34   S    
C37   C38   S    
C24   C25   A    
C39   H18   S    
C41   H21   S    
C45   C46   S    
C47   H37   S    
C29   O14   S    
O10   C36   S    
C38   H15   S    
C37   H13   S    
C36   C37   S    
C55   H55   S    
C40   H19   S    
C17   O5    A    
C15   N2    T    
C29   C30   A    
C18   O6    A    
C9    C11   A    
C19   O9    S    
C42   H24   S    
C20   C23   A    
C47   H36   S    
Cu1   Cu2   S    
C50   H43   S    
Cu2   O7    S    
C44   H30   S    
C3    C31   A    
C40   H20   S    
C4    C32   A    
C10   C12   A    
C1    O3    A    
C42   H25   S    
C12   C14   A    
O9    C33   S    
C56   H56   S    
C14   C16   S    
C55   C56   S    
C12   H2    S    
C53   H50   S    
C54   H52   S    
C46   C47   S    
C34   C35   S    
C27   Br1   S    
C51   C52   S    
C28   Br2   S    
C43   H26   S    
Cu1   O6    S    
C2    C8    S    
C20   C22   A    
C39   H17   S    
C43   C44   S    
C5    C8    T    
C52   H47   S    
C35   H9    S    
C6    C7    T    
C25   C27   A    
C48   H38   S    
C26   C28   A    
Cu1   N2    S    
C49   C50   S    
C4    O16   S    
C38   H16   S    
C17   C25   S    
C37   H12   S    
C53   H51   S    
C19   C24   A    
C53   H49   S    
C54   C55   S    
O11   C39   S    
C29   C31   A    
C3    O15   S    
C30   C32   A    
C41   H23   S    
C49   H41   S    
C2    O4    A    
O16   C54   S    
C44   H29   S    
C47   H35   S    
C51   H46   S    
C51   H45   S    
C55   H54   S    
C50   H44   S    
C43   H27   S    
C36   H10   S    
C40   C41   S    
C10   C11   A    
C1    O1    A    
C2    O2    A    
C42   C43   S    
O12   C42   S    
C27   C28   A    
C56   H57   S    
C10   Br4   S    
C44   H28   S    
C13   C14   A    
Cu1   O5    S    
C3    C4    A    
C5    C31   S    
