data_mof_unit_62468.cif
_audit_creation_date              2012-10-26T18:21:31-0400
_audit_creation_method            fapswitch 2.2
_symmetry_space_group_name_H-M    P1
_symmetry_Int_Tables_number       1
_space_group_crystal_system       triclinic
_cell_length_a                    18.377052
_cell_length_b                    18.377226
_cell_length_c                    32.273314
_cell_angle_alpha                 89.997141
_cell_angle_beta                  90.00142
_cell_angle_gamma                 90.00496
_cell_volume                      10899.3189482

loop_
_atom_site_label
_atom_site_type_symbol
_atom_type_description
_atom_site_fract_x
_atom_site_fract_y
_atom_site_fract_z
_atom_type_partial_charge
C1    C     C_R   0.999997 0.360140 0.500007 0.556004
C2    C     C_R   0.499996 0.000023 0.420562 0.548724
C3    C     C_R   0.000021 0.500001 0.579438 0.546659
C4    C     C_R   0.499963 0.999993 0.579426 0.545458
C5    C     C_R   0.500006 0.000029 0.920572 0.548507
C6    C     C_R   0.999980 0.499986 0.920560 0.549329
C7    C     C_R   0.499984 0.999959 0.079438 0.547969
C8    C     C_R   0.000032 0.500004 0.079426 0.546344
C9    C     C_R   0.066165 0.489092 0.228455 0.253142
C10   C     C_R   0.527203 0.062021 0.228095 0.254555
C11   C     C_R   0.935118 0.511420 0.227900 0.255345
C12   C     C_R   0.639860 0.000003 0.500005 0.559585
C13   C     C_R   0.462848 0.946010 0.228161 0.235137
C14   C     C_R   0.970507 0.438938 0.772073 0.254258
C15   C     C_R   0.437204 0.021492 0.772085 0.255327
C16   C     C_R   0.036582 0.554007 0.771603 0.235531
C17   C     C_R   0.563405 0.979737 0.771535 0.253286
C18   C     C_R   0.562364 0.978870 0.727903 0.255601
C19   C     C_R   0.039283 0.551860 0.727975 0.236848
C20   C     C_R   0.436164 0.020641 0.728451 0.253499
C21   C     C_R   0.970763 0.438077 0.728402 0.255177
C22   C     C_R   0.465281 0.944713 0.271811 0.236494
C23   C     C_R   0.000003 0.639860 0.500001 0.560746
C24   C     C_R   0.934216 0.510401 0.271532 0.253062
C25   C     C_R   0.526285 0.062729 0.271765 0.253916
C26   C     C_R   0.065264 0.488103 0.272090 0.254962
C27   C     C_R   0.000898 0.500627 0.206307 -0.052164
C28   C     C_R   0.496418 0.003101 0.206320 -0.045365
C29   C     C_R   0.002952 0.497191 0.793657 -0.046241
C30   C     C_R   0.500612 0.000931 0.793682 -0.052825
C31   C     C_R   0.498955 0.999428 0.706306 -0.052113
C32   C     C_R   0.003930 0.495571 0.706305 -0.046409
C33   C     C_R   0.496133 0.003373 0.293676 -0.046065
C34   C     C_R   0.360140 0.999997 0.500007 0.556952
C35   C     C_R   0.999483 0.498895 0.293683 -0.052992
C36   C     C_1   0.000733 0.500298 0.161428 0.013601
C37   C     C_1   0.498725 0.001383 0.161460 0.029845
C38   C     C_1   0.001380 0.498941 0.838531 0.025105
C39   C     C_1   0.500410 0.000556 0.838565 0.012128
C40   C     C_1   0.499176 0.999744 0.661427 0.014048
C41   C     C_1   0.001415 0.497667 0.661457 0.023694
C42   C     C_1   0.498110 0.001452 0.338538 0.018341
C43   C     C_1   0.999630 0.499317 0.338565 0.012045
C44   C     C_1   0.999919 0.499678 0.376001 -0.008994
C45   C     C_R   0.499997 0.860140 1.000000 0.560994
C46   C     C_1   0.499225 0.000310 0.375973 -0.006247
C47   C     C_1   0.000295 0.499068 0.624025 -0.003480
C48   C     C_1   0.499619 0.999935 0.623993 -0.007867
C49   C     C_1   0.500087 0.000266 0.876001 -0.008873
C50   C     C_1   0.000535 0.499783 0.875967 0.000861
C51   C     C_1   0.499745 0.000496 0.124027 0.002530
C52   C     C_1   0.000337 0.500067 0.123994 -0.008160
C53   C     C_1   0.999992 0.282684 0.500007 -0.045392
C54   C     C_1   0.717316 0.000007 0.500005 -0.041625
C55   C     C_1   0.000008 0.717316 0.500002 -0.040401
C56   C     C_R   0.139859 0.500003 0.000006 0.557530
C57   C     C_1   0.282684 0.999993 0.500009 -0.044971
C58   C     C_1   0.499992 0.782683 0.999999 -0.039977
C59   C     C_1   0.217316 0.500008 0.000007 -0.044150
C60   C     C_1   0.500007 0.217316 0.000008 -0.044028
C61   C     C_1   0.782684 0.499992 0.000007 -0.040654
C62   C     C_1   0.999993 0.217442 0.500003 -0.044775
C63   C     C_1   0.782558 0.000007 0.500003 -0.041882
C64   C     C_1   0.000007 0.782558 0.500003 -0.041016
C65   C     C_1   0.217442 0.999994 0.500006 -0.044728
C66   C     C_1   0.499993 0.717442 0.999998 -0.040541
C67   C     C_R   0.500003 0.139860 0.000006 0.557827
C68   C     C_1   0.282558 0.500007 0.000003 -0.043957
C69   C     C_1   0.500006 0.282558 0.000006 -0.043911
C70   C     C_1   0.717442 0.499992 0.000005 -0.040979
C71   C     C_R   0.139985 0.999998 0.500001 0.559788
C72   C     C_R   0.999997 0.139985 0.500000 0.560063
C73   C     C_R   0.860016 0.000003 0.500000 0.560972
C74   C     C_R   0.000003 0.860016 0.500001 0.560824
C75   C     C_R   0.639984 0.499996 0.000001 0.560491
C76   C     C_R   0.499997 0.639984 0.999999 0.560251
C77   C     C_R   0.360015 0.500003 0.000000 0.559250
C78   C     C_R   0.860140 0.499997 0.000006 0.560310
C79   C     C_R   0.500002 0.360016 0.000002 0.559533
C80   C     C_3   0.164192 0.536295 0.304267 -0.090419
C81   C     C_3   0.507706 0.165934 0.310014 -0.103539
C82   C     C_3   0.841142 0.461232 0.309681 -0.100334
C83   C     C_3   0.486070 0.831581 0.297088 -0.082903
C84   C     C_3   0.983709 0.334207 0.689899 -0.104465
C85   C     C_3   0.336785 0.986138 0.690223 -0.102889
C86   C     C_3   0.146399 0.591003 0.701478 -0.092750
C87   C     C_3   0.667399 0.011517 0.695654 -0.090228
C88   C     C_3   0.662814 0.014347 0.809686 -0.101357
C89   C     C_R   0.999993 0.499968 0.420572 0.547375
C90   C     C_3   0.020299 0.668072 0.796560 -0.083994
C91   C     C_3   0.332159 0.988743 0.804272 -0.091440
C92   C     C_3   0.981641 0.330335 0.805098 -0.094918
C93   C     C_3   0.357374 0.902355 0.201818 -0.094398
C94   C     C_3   0.836174 0.463380 0.195646 -0.089844
C95   C     C_3   0.513366 0.170231 0.194920 -0.096835
C96   C     C_3   0.159236 0.538131 0.190227 -0.102923
Cu1   Cu    Cu3+1 0.927430 0.500000 0.500000 0.976796
Cu2   Cu    Cu3+1 0.000000 0.000000 0.540960 0.958574
Cu3   Cu    Cu3+1 0.500000 0.500000 0.959040 0.982884
Cu4   Cu    Cu3+1 0.500000 0.500000 0.040960 0.963650
Cu5   Cu    Cu3+1 0.500000 0.927430 0.500000 0.972561
Cu6   Cu    Cu3+1 0.072570 0.500000 0.500000 0.962528
Cu7   Cu    Cu3+1 0.500000 0.072570 0.500000 0.966617
Cu8   Cu    Cu3+1 0.427430 0.000000 0.000000 0.960713
Cu9   Cu    Cu3+1 0.000000 0.427430 0.000000 0.967071
Cu10  Cu    Cu3+1 0.572570 0.000000 0.000000 0.975467
Cu11  Cu    Cu3+1 0.000000 0.572570 0.000000 0.969936
Cu12  Cu    Cu3+1 0.000000 0.000000 0.459040 0.978655
H1    H     H_    0.128962 0.572913 0.323020 0.106318
H2    H     H_    0.534733 0.850428 0.314619 0.114757
H3    H     H_    0.502577 0.809907 0.266294 0.160374
H4    H     H_    0.461413 0.786083 0.314781 0.140628
H5    H     H_    0.035641 0.328657 0.707510 0.081162
H6    H     H_    0.995668 0.350648 0.657539 0.123496
H7    H     H_    0.958263 0.279513 0.688685 0.147622
H8    H     H_    0.344664 0.933460 0.706821 0.085941
H9    H     H_    0.352755 0.979771 0.657279 0.128865
H10   H     H_    0.277702 0.998448 0.690810 0.144258
H11   H     H_    0.153716 0.539957 0.683363 0.104014
H12   H     H_    0.184182 0.565328 0.276331 0.120391
H13   H     H_    0.174538 0.586648 0.731920 0.153212
H14   H     H_    0.172817 0.635627 0.683887 0.143784
H15   H     H_    0.691709 0.037162 0.723552 0.122459
H16   H     H_    0.638037 0.053071 0.676956 0.105700
H17   H     H_    0.712789 0.990604 0.676385 0.148721
H18   H     H_    0.646758 0.020935 0.842602 0.136248
H19   H     H_    0.655039 0.066933 0.792977 0.087696
H20   H     H_    0.721884 0.001969 0.809173 0.144642
H21   H     H_    0.971105 0.651326 0.814299 0.114466
H22   H     H_    0.004368 0.689965 0.765714 0.159343
H23   H     H_    0.212334 0.522512 0.323454 0.147236
H24   H     H_    0.046833 0.712818 0.813990 0.139823
H25   H     H_    0.361481 0.947253 0.823035 0.106921
H26   H     H_    0.308029 0.963032 0.776341 0.119742
H27   H     H_    0.286639 0.009621 0.823453 0.146183
H28   H     H_    0.026705 0.351560 0.824704 0.105368
H29   H     H_    0.004064 0.301891 0.777558 0.117754
H30   H     H_    0.951659 0.289434 0.823736 0.147700
H31   H     H_    0.348012 0.952935 0.183581 0.102961
H32   H     H_    0.329082 0.905791 0.232250 0.152712
H33   H     H_    0.332773 0.856578 0.184335 0.142752
H34   H     H_    0.494809 0.148402 0.342070 0.133021
H35   H     H_    0.815989 0.434372 0.223543 0.123714
H36   H     H_    0.871443 0.426711 0.176949 0.106008
H37   H     H_    0.788158 0.477247 0.176376 0.149060
H38   H     H_    0.490003 0.198404 0.222289 0.120783
H39   H     H_    0.469019 0.147562 0.175309 0.096475
H40   H     H_    0.542346 0.211696 0.176171 0.148904
H41   H     H_    0.143504 0.589033 0.206808 0.085714
H42   H     H_    0.142521 0.542003 0.157277 0.129185
H43   H     H_    0.219499 0.534852 0.190836 0.145289
H44   H     H_    0.456489 0.169872 0.291608 0.083966
H45   H     H_    0.530994 0.221517 0.311956 0.146453
H46   H     H_    0.858028 0.457117 0.342594 0.135786
H47   H     H_    0.856717 0.410419 0.292965 0.087880
H48   H     H_    0.780881 0.464597 0.309179 0.146284
O1    O     O_R   0.938710 0.394180 0.500040 -0.502804
O2    O     O_R   0.105820 0.438710 0.000040 -0.501608
O3    O     O_R   0.561290 0.105820 0.000040 -0.502352
O4    O     O_R   0.894180 0.561290 0.000040 -0.499618
O5    O     O_R   0.561290 0.894180 0.999960 -0.498575
O6    O     O_R   0.894180 0.438710 0.999960 -0.502307
O7    O     O_R   0.438710 0.105820 0.999960 -0.502126
O8    O     O_R   0.105820 0.561290 0.999960 -0.503704
O9    O     O_R   0.938710 0.500010 0.440200 -0.505920
O10   O     O_R   0.499990 0.938710 0.440200 -0.499920
O11   O     O_R   0.061290 0.499990 0.440200 -0.500566
O12   O     O_R   0.605820 0.938710 0.500040 -0.499749
O13   O     O_R   0.500010 0.061290 0.440200 -0.508065
O14   O     O_R   0.061290 0.500010 0.559800 -0.508645
O15   O     O_R   0.500010 0.938710 0.559800 -0.501116
O16   O     O_R   0.938710 0.499990 0.559800 -0.494815
O17   O     O_R   0.499990 0.061290 0.559800 -0.501143
O18   O     O_R   0.438710 0.000010 0.940200 -0.501456
O19   O     O_R   0.999990 0.438710 0.940200 -0.504939
O20   O     O_R   0.561290 0.999990 0.940200 -0.507023
O21   O     O_R   0.000010 0.561290 0.940200 -0.501618
O22   O     O_R   0.561290 0.000010 0.059800 -0.494586
O23   O     O_R   0.061290 0.605820 0.500040 -0.503693
O24   O     O_R   0.000010 0.438710 0.059800 -0.501950
O25   O     O_R   0.438710 0.999990 0.059800 -0.509517
O26   O     O_R   0.999990 0.561290 0.059800 -0.502375
O27   O     O_R   0.105750 0.999890 0.465420 -0.501455
O28   O     O_R   0.000110 0.105750 0.465420 -0.500546
O29   O     O_R   0.894250 0.000110 0.465420 -0.499859
O30   O     O_R   0.999890 0.894250 0.465420 -0.502051
O31   O     O_R   0.894250 0.999890 0.534580 -0.504925
O32   O     O_R   0.999890 0.105750 0.534580 -0.507055
O33   O     O_R   0.105750 0.000110 0.534580 -0.506067
O34   O     O_R   0.394180 0.061290 0.500040 -0.501789
O35   O     O_R   0.000110 0.894250 0.534580 -0.501852
O36   O     O_R   0.605750 0.499890 0.965420 -0.499671
O37   O     O_R   0.500110 0.605750 0.965420 -0.501626
O38   O     O_R   0.394250 0.500110 0.965420 -0.501401
O39   O     O_R   0.499890 0.394250 0.965420 -0.500147
O40   O     O_R   0.394250 0.499890 0.034580 -0.505449
O41   O     O_R   0.499890 0.605750 0.034580 -0.501844
O42   O     O_R   0.605750 0.500110 0.034580 -0.504288
O43   O     O_R   0.500110 0.394250 0.034580 -0.506859
O44   O     O_3   0.128287 0.471147 0.293492 -0.517714
O45   O     O_R   0.061290 0.394180 0.499960 -0.502290
O46   O     O_3   0.560468 0.119385 0.292314 -0.518569
O47   O     O_3   0.869516 0.525525 0.291821 -0.518942
O48   O     O_3   0.433947 0.887448 0.293145 -0.548670
O49   O     O_3   0.933590 0.383066 0.708076 -0.515009
O50   O     O_3   0.374489 0.045371 0.708161 -0.519938
O51   O     O_3   0.072134 0.608056 0.706482 -0.544378
O52   O     O_3   0.622096 0.952557 0.706507 -0.515912
O53   O     O_3   0.625093 0.955054 0.791827 -0.518660
O54   O     O_3   0.070207 0.610199 0.792721 -0.548478
O55   O     O_3   0.377452 0.047745 0.793483 -0.517351
O56   O     O_R   0.394180 0.938710 0.499960 -0.503220
O57   O     O_3   0.932651 0.385726 0.793415 -0.515924
O58   O     O_3   0.432266 0.888342 0.206855 -0.544673
O59   O     O_3   0.872112 0.528470 0.206502 -0.516599
O60   O     O_3   0.563792 0.116382 0.206967 -0.514944
O61   O     O_3   0.130857 0.473909 0.208169 -0.520507
O62   O     O_R   0.938710 0.605820 0.499960 -0.498235
O63   O     O_R   0.605820 0.061290 0.499960 -0.501994
O64   O     O_R   0.438710 0.894180 0.000040 -0.503944

loop_
_geom_bond_atom_site_label_1
_geom_bond_atom_site_label_2
_ccdc_geom_bond_type
C61   C70   T    
Cu6   O14   S    
C19   O51   S    
C80   H12   S    
C24   O47   S    
Cu6   O11   S    
C17   C30   A    
C4    O15   A    
C9    C26   A    
C11   O59   S    
C5    O18   A    
C20   O50   S    
C43   C44   T    
C93   H33   S    
C92   H30   S    
Cu8   O7    S    
Cu8   Cu10  S    
Cu11  O4    S    
Cu2   Cu12  S    
C2    C46   S    
Cu9   Cu11  S    
Cu3   O38   S    
C94   O59   S    
C84   H5    S    
Cu1   O16   S    
C94   H35   S    
C28   C37   S    
C14   C21   A    
Cu12  O30   S    
C77   O40   A    
C88   H19   S    
C95   O60   S    
C76   O41   A    
C64   C74   S    
C87   H16   S    
C37   C51   T    
C3    O16   A    
C6    O19   A    
C19   C32   A    
C10   C28   A    
Cu10  O3    S    
C80   O44   S    
Cu3   O39   S    
C11   C24   A    
Cu7   O17   S    
C79   O39   A    
C31   C40   S    
C18   O52   S    
C42   C46   T    
Cu10  O5    S    
C21   O49   S    
C45   O5    A    
C54   C63   T    
C72   O32   A    
C56   O2    A    
C90   H21   S    
C84   O49   S    
C58   C66   T    
Cu8   O64   S    
Cu9   O2    S    
C60   C67   S    
C80   H1    S    
C86   H14   S    
C34   C57   S    
C15   O55   S    
C32   C41   S    
C13   C28   A    
C86   H11   S    
C35   C43   S    
C2    O10   A    
C12   O63   A    
C23   O23   A    
Cu1   Cu6   S    
C36   C52   T    
C82   H48   S    
Cu4   O41   S    
C94   H37   S    
Cu8   O25   S    
C23   O62   A    
C1    O45   A    
Cu5   Cu7   S    
C80   H23   S    
Cu11  O21   S    
C90   H22   S    
C1    C53   S    
Cu6   O23   S    
C5    C49   S    
C92   H28   S    
C95   H38   S    
Cu2   O33   S    
C92   H29   S    
C73   O31   A    
C85   O50   S    
Cu4   O40   S    
Cu5   O56   S    
C15   C20   A    
C21   C32   A    
C45   C58   S    
C24   C35   A    
C79   O43   A    
C7    O25   A    
Cu11  O26   S    
C67   O7    A    
C71   O27   A    
Cu12  O29   S    
C34   O34   A    
C95   H39   S    
C72   O28   A    
C91   O55   S    
C25   O46   S    
C26   C35   A    
C90   O54   S    
Cu12  O28   S    
C83   O48   S    
Cu8   O18   S    
C63   C73   S    
C16   C29   A    
C65   C71   S    
C96   H43   S    
C71   O33   A    
C14   O57   S    
Cu1   O1    S    
C13   O58   S    
C29   C38   S    
Cu5   O12   S    
C77   O38   A    
C83   H4    S    
Cu2   O31   S    
C93   H31   S    
C8    O26   A    
C59   C68   T    
C53   C62   T    
C8    O24   A    
Cu3   Cu4   S    
C91   H25   S    
C11   C27   A    
C61   C78   S    
C96   H42   S    
C55   C64   T    
C86   H13   S    
C17   C18   A    
C41   C47   T    
C83   H2    S    
C62   C72   S    
C92   O57   S    
Cu7   O34   S    
C1    O1    A    
C6    C50   S    
C85   H9    S    
C89   O9    A    
C34   O56   A    
C82   H47   S    
C10   C25   A    
C78   O4    A    
C81   H34   S    
C39   C49   T    
C78   O6    A    
C84   H7    S    
C88   H18   S    
C88   O53   S    
C6    O21   A    
C5    O20   A    
C83   H3    S    
C69   C79   S    
C33   C42   S    
Cu9   O24   S    
C87   H17   S    
C26   O44   S    
C81   H45   S    
C9    C27   A    
C15   C30   A    
C4    C48   S    
C75   O42   A    
C9    O61   S    
C68   C77   S    
C40   C48   T    
C22   C33   A    
C8    C52   S    
C84   H6    S    
Cu12  O27   S    
C93   O58   S    
Cu9   O6    S    
Cu6   O45   S    
C85   H8    S    
C95   H40   S    
C57   C65   T    
Cu2   O35   S    
C86   O51   S    
C12   O12   A    
C73   O29   A    
C3    O14   A    
C23   C55   S    
C81   O46   S    
C38   C50   T    
C27   C36   S    
C81   H44   S    
Cu3   O37   S    
C17   O53   S    
C56   C59   S    
C22   O48   S    
C4    O17   A    
C94   H36   S    
C16   O54   S    
C75   O36   A    
Cu5   O10   S    
C90   H24   S    
C88   H20   S    
C93   H32   S    
C56   O8    A    
C87   H15   S    
C10   O60   S    
Cu3   O36   S    
C91   H26   S    
C60   C69   T    
C16   C19   A    
Cu1   O9    S    
C96   H41   S    
C3    C47   S    
C13   C22   A    
Cu5   O15   S    
C85   H10   S    
C87   O52   S    
C76   O37   A    
C44   C89   S    
C2    O13   A    
C7    C51   S    
C74   O35   A    
C82   H46   S    
Cu4   O43   S    
C89   O11   A    
C82   O47   S    
C91   H27   S    
Cu11  O8    S    
C7    O22   A    
Cu7   O63   S    
Cu9   O19   S    
C25   C33   A    
C70   C75   S    
Cu7   O13   S    
C45   O64   A    
Cu10  O20   S    
Cu1   O62   S    
C67   O3    A    
C18   C31   A    
C14   C29   A    
Cu2   O32   S    
Cu10  O22   S    
C12   C54   S    
C66   C76   S    
C96   O61   S    
C30   C39   S    
C74   O30   A    
C20   C31   A    
Cu4   O42   S    
