data_mof_unit_11116.cif
_audit_creation_date              2012-10-26T21:02:32-0400
_audit_creation_method            fapswitch 2.2
_symmetry_space_group_name_H-M    P1
_symmetry_Int_Tables_number       1
_space_group_crystal_system       triclinic
_cell_length_a                    12.32337
_cell_length_b                    13.298896
_cell_length_c                    15.019712
_cell_angle_alpha                 77.62621
_cell_angle_beta                  99.149366
_cell_angle_gamma                 116.67622
_cell_volume                      2142.86370958

loop_
_atom_site_label
_atom_site_type_symbol
_atom_type_description
_atom_site_fract_x
_atom_site_fract_y
_atom_site_fract_z
_atom_type_partial_charge
C1    C     C_R   0.854986 0.287131 0.512628 0.518481
C2    C     C_R   0.883833 0.428647 0.812005 0.290669
C3    C     C_R   0.991840 0.496846 0.767099 -0.006055
C4    C     C_R   0.997000 0.498520 0.670632 0.564979
C5    C     C_R   0.097955 0.563495 0.814047 -0.174907
C6    C     C_R   0.298315 0.006691 0.365814 -0.153616
C7    C     C_R   0.229810 0.833521 0.475337 0.028219
C8    C     C_R   0.797884 0.107350 0.619690 -0.151294
C9    C     C_R   0.703602 0.021926 0.669442 -0.190793
C10   C     C_R   0.583513 0.990866 0.634148 -0.123378
C11   C     C_R   0.556125 0.029817 0.542045 0.036043
C12   C     C_R   0.103648 0.568863 0.092745 -0.003521
C13   C     C_R   0.651811 0.123534 0.494590 0.024992
C14   C     C_R   0.437475 0.982470 0.496198 0.029535
C15   C     C_R   0.414745 0.043461 0.410447 0.006474
C16   C     C_R   0.145116 0.712637 0.490117 0.559753
C17   C     C_R   0.509370 0.138124 0.367073 -0.135944
C18   C     C_R   0.626923 0.174531 0.406604 -0.109123
C19   C     C_R   0.343115 0.873091 0.527133 0.258621
C20   C     C_R   0.206229 0.903042 0.398550 -0.186161
C21   C     C_R   0.770935 0.166956 0.537184 0.001795
C22   C     C_R   0.361129 0.362073 0.666447 -0.163493
C23   C     C_R   0.777286 0.369729 0.046935 0.280165
C24   C     C_R   0.736881 0.594948 0.356024 -0.010185
C25   C     C_R   0.620123 0.565801 0.314356 -0.152086
C26   C     C_R   0.520743 0.509089 0.367888 0.273172
C27   C     C_R   0.540388 0.503265 0.463425 -0.008519
C28   C     C_R   0.001977 0.500486 0.329471 0.515009
C29   C     C_R   0.660537 0.527184 0.503011 0.112316
C30   C     C_R   0.443740 0.465268 0.521243 0.002197
C31   C     C_R   0.460693 0.419705 0.612775 -0.122394
C32   C     C_R   0.579354 0.448336 0.651968 -0.099794
C33   C     C_R   0.678450 0.518326 0.599305 0.339894
C34   C     C_R   0.775359 0.363489 0.954088 0.304594
C35   C     C_R   0.343143 0.492791 0.498499 0.402629
C36   C     C_R   0.249849 0.367096 0.632896 0.406355
C37   C     C_R   0.105019 0.568748 0.185806 -0.128174
C38   C     C_R   0.002108 0.497924 0.233464 -0.026891
C39   C     C_R   0.894645 0.430196 0.188050 -0.113658
C40   C     C_R   0.887636 0.434254 0.093573 -0.011910
C41   C     C_R   0.993869 0.501584 0.045935 -0.054709
C42   C     C_3   0.431231 0.751892 0.599589 -0.071523
C43   C     C_3   0.165291 0.305895 0.773490 -0.132026
C44   C     C_3   0.339092 0.618026 0.364448 -0.049686
C45   C     C_R   0.882228 0.430242 0.905799 -0.004927
C46   C     C_3   0.388026 0.344800 0.317567 -0.141957
C47   C     C_3   0.800850 0.706026 0.610539 -0.108635
C48   C     C_3   0.618132 0.372239 0.104833 -0.155283
C49   C     C_3   0.574241 0.304488 0.899045 -0.071704
C50   C     C_3   0.779440 0.262367 0.756319 -0.083197
C51   C     C_3   0.319356 0.813345 0.876192 -0.094487
C52   C     C_3   0.387177 0.637561 0.119022 -0.119020
C53   C     C_R   0.991216 0.500403 0.952356 -0.102784
C54   C     C_R   0.098991 0.567461 0.905968 -0.032666
C55   C     C_R   0.206785 0.637509 0.952063 0.285148
C56   C     C_R   0.210313 0.634851 0.046167 0.281342
Cu1   Cu    Cu3+1 0.098270 0.475420 0.521130 1.021569
Cu2   Cu    Cu3+1 0.901730 0.524580 0.478870 0.971443
H1    H     H_    0.185005 0.625953 0.220438 0.126232
H2    H     H_    0.503798 0.767419 0.655977 0.102612
H3    H     H_    0.889419 0.137748 0.652159 0.158601
H4    H     H_    0.723059 0.985928 0.738437 0.118935
H5    H     H_    0.698529 0.243592 0.367569 0.130364
H6    H     H_    0.077856 0.283804 0.801508 0.127188
H7    H     H_    0.230386 0.391795 0.789732 0.117121
H8    H     H_    0.196937 0.240150 0.808040 0.098405
H9    H     H_    0.595128 0.434134 0.725286 0.157112
H10   H     H_    0.371645 0.317164 0.733904 0.083679
H11   H     H_    0.817005 0.374220 0.227505 0.145498
H12   H     H_    0.514014 0.938130 0.680869 0.171585
H13   H     H_    0.294499 0.676541 0.349598 0.129347
H14   H     H_    0.277258 0.537590 0.338635 0.183608
H15   H     H_    0.422987 0.661392 0.326997 0.135541
H16   H     H_    0.812118 0.634039 0.312910 0.141539
H17   H     H_    0.294174 0.299484 0.287445 0.137644
H18   H     H_    0.397103 0.293691 0.385123 0.140335
H19   H     H_    0.451982 0.349877 0.270381 0.103609
H20   H     H_    0.716727 0.717810 0.610120 0.088915
H21   H     H_    0.871307 0.761313 0.656763 0.137044
H22   H     H_    0.835693 0.735074 0.541353 0.141045
H23   H     H_    0.606498 0.579030 0.240529 0.090799
H24   H     H_    0.610948 0.429746 0.040678 0.092401
H25   H     H_    0.667354 0.424083 0.159662 0.112361
H26   H     H_    0.524315 0.316001 0.125468 0.125167
H27   H     H_    0.598807 0.397650 0.885484 0.083055
H28   H     H_    0.514978 0.261287 0.956851 0.151487
H29   H     H_    0.519297 0.267911 0.838222 0.123221
H30   H     H_    0.692778 0.211202 0.719608 0.157642
H31   H     H_    0.785301 0.211922 0.824839 0.140354
H32   H     H_    0.855516 0.276757 0.717084 0.103957
H33   H     H_    0.239978 0.811816 0.828271 0.112697
H34   H     H_    0.179740 0.613828 0.777551 0.183681
H35   H     H_    0.402544 0.865137 0.838424 0.143563
H36   H     H_    0.327088 0.856089 0.934540 0.155287
H37   H     H_    0.336781 0.555680 0.164012 0.137765
H38   H     H_    0.471097 0.688238 0.158740 0.137241
H39   H     H_    0.415516 0.621069 0.058962 0.152286
H40   H     H_    0.119394 0.872679 0.358950 0.128446
H41   H     H_    0.493354 0.181156 0.299930 0.108842
H42   H     H_    0.280200 0.055325 0.302295 0.111944
H43   H     H_    0.475564 0.781261 0.533765 0.151617
H44   H     H_    0.377216 0.658256 0.610469 0.196557
N1    N     N_R   0.246280 0.438190 0.553160 -0.219943
N2    N     N_R   0.754320 0.561190 0.447410 -0.250282
O1    O     O_R   0.972510 0.318130 0.526570 -0.466200
O2    O     O_3   0.143818 0.304293 0.678472 -0.536670
O3    O     O_3   0.370795 0.604666 0.458561 -0.601984
O4    O     O_3   0.405887 0.454474 0.326801 -0.619172
O5    O     O_3   0.781807 0.592083 0.643564 -0.524187
O6    O     O_3   0.673191 0.302854 0.093589 -0.556227
O7    O     O_3   0.675928 0.279239 0.914886 -0.525833
O8    O     O_3   0.778707 0.366186 0.762656 -0.527429
O9    O     O_3   0.312077 0.702727 0.906767 -0.571084
O10   O     O_3   0.317750 0.700645 0.091745 -0.571805
O11   O     O_R   0.806530 0.359650 0.490890 -0.501743
O12   O     O_R   0.082980 0.479210 0.647590 -0.492762
O13   O     O_R   0.917000 0.520730 0.611900 -0.408195
O14   O     O_R   0.193470 0.640350 0.509110 -0.456914
O15   O     O_R   0.027490 0.681870 0.473430 -0.522918
O16   O     O_R   0.083000 0.479270 0.388100 -0.514377
O17   O     O_R   0.917020 0.520790 0.352410 -0.529377
O18   O     O_3   0.356164 0.804274 0.608114 -0.600117

loop_
_geom_bond_atom_site_label_1
_geom_bond_atom_site_label_2
_ccdc_geom_bond_type
Cu1   O1    S    
C55   C56   A    
C19   O18   S    
C1    C21   S    
C27   C29   A    
C49   H29   S    
C48   O6    S    
C47   H21   S    
C46   H18   S    
C53   C54   A    
C2    O8    S    
C26   C27   A    
C51   O9    S    
C13   C18   A    
C44   H13   S    
C36   N1    A    
C37   C38   A    
C35   N1    A    
C30   C31   A    
C11   C14   A    
C18   H5    S    
C23   C40   A    
C29   C33   A    
C52   H39   S    
C52   H37   S    
C12   C37   A    
C51   H33   S    
C6    C15   A    
C50   H32   S    
C8    C9    A    
C46   O4    S    
C52   H38   S    
C20   H40   S    
C9    C10   A    
C50   H30   S    
C8    H3    S    
C49   O7    S    
C45   C53   A    
C27   C30   A    
C25   H23   S    
C34   O7    S    
C47   H22   S    
C42   H44   S    
C46   H17   S    
C43   H6    S    
C17   C18   A    
Cu1   O12   S    
C2    C45   A    
Cu1   N1    S    
C22   C31   A    
C36   O2    S    
C9    H4    S    
C49   H27   S    
C5    C54   A    
C24   C25   A    
C28   O16   A    
C16   O15   A    
C26   O4    S    
C39   C40   A    
C28   O17   A    
C14   C19   A    
C55   O9    S    
C25   C26   A    
C47   O5    S    
Cu2   O13   S    
C48   H26   S    
C29   N2    A    
C24   N2    A    
C43   O2    S    
C6    H42   S    
C12   C41   A    
C16   O14   A    
C50   H31   S    
C31   C32   A    
C28   C38   S    
C43   H7    S    
C23   C34   A    
C41   C53   A    
C50   O8    S    
C8    C21   A    
C39   H11   S    
C13   C21   A    
C34   C45   A    
C12   C56   A    
C17   H41   S    
C22   H10   S    
C37   H1    S    
C51   H35   S    
C32   H9    S    
C10   H12   S    
C7    C16   S    
C7    C19   A    
Cu1   O16   S    
Cu2   O11   S    
C4    O13   A    
Cu2   N2    S    
C42   H2    S    
C3    C4    S    
C42   H43   S    
C22   C36   A    
C42   O18   S    
C44   O3    S    
C15   C17   A    
C23   O6    S    
C54   C55   A    
C40   C41   A    
Cu2   O17   S    
C49   H28   S    
C4    O12   A    
C3    C5    A    
C46   H19   S    
C52   O10   S    
C30   C35   A    
C48   H25   S    
C32   C33   A    
C2    C3    A    
C11   C13   A    
C24   H16   S    
Cu1   Cu2   S    
C38   C39   A    
C6    C20   A    
C43   H8    S    
Cu2   O15   S    
C48   H24   S    
C44   H14   S    
C44   H15   S    
C5    H34   S    
C35   O3    S    
C10   C11   A    
C51   H36   S    
C33   O5    S    
C7    C20   A    
C56   O10   S    
C14   C15   A    
C1    O11   A    
C47   H20   S    
C1    O1    A    
Cu1   O14   S    
