data_mof_unit_65102.cif
_audit_creation_date              2013-03-05T16:56:53-0500
_audit_creation_method            fapswitch 2.2
_symmetry_space_group_name_H-M    P1
_symmetry_Int_Tables_number       1
_space_group_crystal_system       triclinic
_cell_length_a                    17.494029
_cell_length_b                    16.807788
_cell_length_c                    15.785309
_cell_angle_alpha                 90.24039
_cell_angle_beta                  90.610499
_cell_angle_gamma                 89.997964
_cell_volume                      4641.14369576

loop_
_atom_site_label
_atom_site_type_symbol
_atom_site_description
_atom_site_fract_x
_atom_site_fract_y
_atom_site_fract_z
_atom_type_partial_charge
O1    O     O_R   0.389130 0.566570 0.500000 -0.616150
O2    O     O_R   0.389130 0.433430 0.500000 -0.615559
C1    C     C_R   0.353571 0.500004 0.500499 0.917586
O3    O     O_R   0.500020 0.566570 0.377150 -0.610172
O4    O     O_R   0.500020 0.433430 0.377150 -0.610144
C2    C     C_R   0.499456 0.499851 0.338207 0.921734
Zn1   Zn    Zn3+2 0.500020 0.588860 0.500000 0.957248
Zn2   Zn    Zn3+2 0.500020 0.411140 0.500000 0.956519
O5    O     O_R   0.610900 0.566520 0.500010 -0.625492
O6    O     O_R   0.610900 0.433480 0.500010 -0.622984
O7    O     O_R   0.500010 0.566510 0.622860 -0.620246
O8    O     O_R   0.500010 0.433490 0.622860 -0.624210
C3    C     C_R   0.646990 0.500029 0.501781 0.867974
C4    C     C_R   0.500363 0.500147 0.661813 0.905286
C5    C     C_3   0.463144 0.575887 0.049753 -0.210350
C6    C     C_3   0.455959 0.427413 0.047379 -0.214287
C7    C     C_3   0.469949 0.419035 0.951032 -0.039211
C8    C     C_3   0.458047 0.573516 0.951075 -0.042362
H1    H     H_    0.404476 0.576201 0.076558 0.166505
H2    H     H_    0.394371 0.440722 0.057570 0.168364
H3    H     H_    0.512863 0.371574 0.942046 0.170955
H4    H     H_    0.483744 0.628252 0.924304 0.177026
C9    C     C_1   0.501266 0.500391 0.750199 -0.214837
C10   C     C_3   0.504742 0.499252 0.083040 0.033068
C11   C     C_3   0.504648 0.499523 0.916766 0.241598
C12   C     C_3   0.591612 0.506715 0.949653 0.233954
C13   C     C_3   0.590902 0.495079 0.050862 -0.017903
C14   C     C_1   0.502548 0.500108 0.825182 -0.026444
C15   C     C_1   0.501620 0.499292 0.174877 -0.037755
C16   C     C_1   0.500108 0.499504 0.249816 -0.146197
C17   C     C_R   0.846957 0.573035 0.537453 -0.152591
C18   C     C_R   0.847402 0.428525 0.537582 -0.152226
H5    H     H_    0.877301 0.629147 0.541906 0.141210
H6    H     H_    0.878110 0.372669 0.542134 0.141297
C19   C     C_R   0.768829 0.572807 0.521660 -0.194165
C20   C     C_R   0.769247 0.428053 0.521803 -0.194882
H7    H     H_    0.739314 0.629218 0.515980 0.159310
H8    H     H_    0.740041 0.371420 0.516235 0.160947
C21   C     C_R   0.729591 0.500256 0.513424 -0.038328
C22   C     C_R   0.885746 0.500959 0.545283 0.153516
C23   C     C_1   0.966230 0.501284 0.550264 -0.046914
C24   C     C_1   0.034065 0.501381 0.547499 -0.004268
C25   C     C_R   0.163550 0.506317 0.607370 0.016857
C26   C     C_R   0.143356 0.495316 0.453636 0.021589
C27   C     C_R   0.243031 0.505723 0.595684 0.100455
C28   C     C_R   0.222632 0.494690 0.441098 0.083489
C29   C     C_R   0.271607 0.500131 0.512365 -0.072846
C30   C     C_R   0.114715 0.501111 0.536430 -0.054797
C31   C     C_R   0.452661 0.834681 0.449958 -0.102406
C32   C     C_R   0.463486 0.164480 0.440395 -0.103252
C33   C     C_R   0.452649 0.750056 0.447755 0.073210
C34   C     C_R   0.461692 0.249082 0.439489 0.072630
N1    N     N_R   0.500030 0.707230 0.500020 -0.113416
N2    N     N_R   0.500030 0.292770 0.500020 -0.113407
C35   C     C_R   0.548630 0.746121 0.554331 -0.003049
C36   C     C_R   0.540037 0.254392 0.562425 -0.004858
H9    H     H_    0.585990 0.711969 0.595365 0.135136
H10   H     H_    0.570499 0.288910 0.609892 0.138894
C37   C     C_R   0.551163 0.829941 0.557799 -0.279672
C38   C     C_R   0.542437 0.170556 0.566246 -0.280267
H11   H     H_    0.590603 0.858910 0.601358 0.152603
H12   H     H_    0.574442 0.142092 0.616805 0.153089
C39   C     C_R   0.502983 0.875599 0.505504 0.096861
C40   C     C_R   0.504007 0.124249 0.505028 0.096174
C41   C     C_1   0.505688 0.963451 0.508586 -0.015339
C42   C     C_1   0.506062 0.036409 0.508536 -0.016150
C43   C     C_3   0.373960 0.579333 0.920603 -0.902762
H13   H     H_    0.335512 0.541417 0.958410 0.246160
H14   H     H_    0.353558 0.641451 0.929030 0.247035
H15   H     H_    0.367628 0.564207 0.852436 0.260613
C44   C     C_3   0.399245 0.385135 0.903484 -0.891504
H16   H     H_    0.348284 0.423328 0.907720 0.258988
H17   H     H_    0.412032 0.374615 0.835638 0.252337
H18   H     H_    0.383862 0.326595 0.930927 0.247688
C45   C     C_3   0.298257 0.510255 0.670523 -0.892127
H19   H     H_    0.269896 0.513642 0.732820 0.243663
H20   H     H_    0.335071 0.456462 0.671341 0.239581
H21   H     H_    0.334746 0.563960 0.664878 0.246100
C46   C     C_3   0.256211 0.487442 0.353173 -0.878998
H22   H     H_    0.212959 0.486236 0.301449 0.251171
H23   H     H_    0.294697 0.538305 0.341014 0.246723
H24   H     H_    0.289541 0.431702 0.349036 0.252726
C47   C     C_1   0.400568 0.878679 0.395799 0.172483
N3    N     N_1   0.358515 0.913165 0.352438 -0.163071
C48   C     C_1   0.424557 0.119702 0.374247 0.175891
N4    N     N_1   0.393476 0.084610 0.320920 -0.159569
C49   C     C_1   0.402899 0.708565 0.389123 0.251176
N5    N     N_1   0.362883 0.676209 0.341432 -0.218882
C50   C     C_1   0.419481 0.289176 0.373379 0.249576
N6    N     N_1   0.385634 0.319989 0.319383 -0.214797
C51   C     C_1   0.469148 0.350843 0.091358 0.198514
N7    N     N_1   0.479151 0.291000 0.125749 -0.168051
C52   C     C_1   0.496948 0.651294 0.080836 0.171241
N8    N     N_1   0.522982 0.710507 0.105261 -0.176406
C53   C     C_1   0.639551 0.554515 0.095816 0.190435
N9    N     N_1   0.677643 0.600554 0.131046 -0.182441
C54   C     C_1   0.625367 0.418155 0.076968 0.158406
N10   N     N_1   0.652706 0.358423 0.097471 -0.182141
C55   C     C_3   0.626652 0.589063 0.923804 -0.870752
H25   H     H_    0.689395 0.590212 0.935779 0.254974
H26   H     H_    0.617600 0.601113 0.855311 0.237937
H27   H     H_    0.603269 0.639782 0.960037 0.230310
C56   C     C_3   0.645269 0.445058 0.904505 -0.864485
H28   H     H_    0.628922 0.382179 0.913380 0.220367
H29   H     H_    0.647648 0.455740 0.835180 0.245793
H30   H     H_    0.704692 0.450845 0.929447 0.250130
C57   C     C_1   0.131415 0.512163 0.691560 0.187406
N11   N     N_1   0.105685 0.516821 0.758645 -0.200954
C58   C     C_1   0.090748 0.489634 0.382037 0.193397
N12   N     N_1   0.048704 0.485113 0.325110 -0.191828

loop_
_geom_bond_atom_site_label_1
_geom_bond_atom_site_label_2
_geom_bond_distance
_ccdc_geom_bond_type
C5    C8    1.559604 S    
C49   N5    1.156681 T    
C39   C41   1.477948 S    
C52   N8    1.157430 T    
C31   C39   1.412550 A    
C35   C37   1.410334 A    
C32   C40   1.411035 A    
C23   C24   1.187981 T    
C13   C53   1.485622 S    
C53   N9    1.157864 T    
C10   C13   1.597139 S    
C46   H24   1.105538 S    
C54   N10   1.157938 T    
C48   N4    1.156821 T    
C11   C14   1.445819 S    
Zn1   O7    1.976977 S    
C12   C13   1.610542 S    
C18   C20   1.387138 A    
C19   H7    1.083190 S    
C28   C46   1.517301 S    
O7    C4    1.275904 A    
C17   C22   1.393816 A    
C38   H12   1.083038 S    
O5    C3    1.283814 A    
C10   C15   1.451290 S    
C32   C48   1.448723 S    
C5    H1    1.114299 S    
C5    C10   1.569156 S    
C55   H25   1.111961 S    
C34   N2    1.372033 A    
C6    C7    1.548830 S    
C31   C33   1.422643 A    
C32   C34   1.422446 A    
C57   N11   1.157403 T    
C17   H5    1.083926 S    
C25   C30   1.403674 A    
C6    H2    1.113622 S    
C12   C55   1.571010 S    
C26   C58   1.452718 S    
C27   C29   1.414744 A    
C6    C10   1.577095 S    
C8    H4    1.111026 S    
C34   C50   1.441502 S    
C8    C11   1.583766 S    
O3    Zn1   1.973539 S    
C26   C28   1.403037 A    
N1    C35   1.365633 A    
N2    C36   1.366361 A    
C37   H11   1.083065 S    
C43   H13   1.107454 S    
O3    C2    1.276559 A    
C33   C49   1.441472 S    
C51   N7    1.157399 T    
C46   H23   1.106861 S    
C25   C57   1.451443 S    
C8    C43   1.546020 S    
C7    H3    1.105149 S    
C36   C38   1.411233 A    
O1    C1    1.280247 A    
C40   C42   1.478078 S    
C4    C9    1.395107 S    
C19   C21   1.404252 A    
C45   H19   1.107408 S    
C15   C16   1.183497 T    
C12   C56   1.571924 S    
O4    Zn2   1.976626 S    
C45   H20   1.110091 S    
C47   N3    1.156826 T    
Zn2   O8    1.973882 S    
C56   H29   1.110911 S    
C24   C30   1.423516 S    
C9    C14   1.183639 T    
C25   C27   1.404602 A    
C22   C23   1.409349 S    
C2    C16   1.395446 S    
O8    C4    1.275729 A    
C7    C44   1.547445 S    
C35   H9    1.081803 S    
C17   C19   1.386708 A    
Zn1   N1    1.989537 S    
Zn2   N2    1.989539 S    
C44   H17   1.109855 S    
C43   H14   1.111286 S    
Zn1   O5    1.975733 S    
C28   C29   1.409468 A    
C13   C54   1.484633 S    
C55   H26   1.110517 S    
O1    Zn1   1.975769 S    
C20   C21   1.403881 A    
O2    Zn2   1.975743 S    
O6    C3    1.284510 A    
C5    C52   1.478340 S    
C44   H18   1.110977 S    
C37   C39   1.404006 A    
C27   C45   1.519783 S    
C38   C40   1.404093 A    
C43   H15   1.109017 S    
C7    C11   1.582532 S    
C31   C47   1.448069 S    
C20   H8    1.083164 S    
O2    C1    1.280272 A    
C11   C12   1.606637 S    
C44   H16   1.101027 S    
C58   N12   1.157426 T    
O4    C2    1.276688 A    
C1    C29   1.448035 S    
C36   H10   1.081595 S    
C56   H30   1.111800 S    
C18   C22   1.394281 A    
C45   H21   1.110018 S    
C3    C21   1.454710 S    
C46   H22   1.107369 S    
C55   H27   1.105463 S    
C6    C51   1.481740 S    
Zn2   O6    1.975759 S    
C41   C42   1.226282 T    
C56   H28   1.104745 S    
C33   N1    1.369740 A    
C50   N6    1.156811 T    
C26   C30   1.407650 A    
C18   H6    1.083908 S    
