data_mof_unit_56316.cif
_audit_creation_date              2012-12-10T17:34:00-0500
_audit_creation_method            fapswitch 2.2
_symmetry_space_group_name_H-M    P1
_symmetry_Int_Tables_number       1
_space_group_crystal_system       triclinic
_cell_length_a                    10.806514
_cell_length_b                    12.01286
_cell_length_c                    12.915606
_cell_angle_alpha                 94.244908
_cell_angle_beta                  91.192921
_cell_angle_gamma                 85.610491
_cell_volume                      1666.96938607

loop_
_atom_site_label
_atom_site_type_symbol
_atom_type_description
_atom_site_fract_x
_atom_site_fract_y
_atom_site_fract_z
_atom_type_partial_charge
Br1   Br    Br    0.549203 0.790936 0.053392 -0.319645
Br2   Br    Br    0.448089 0.209088 0.945941 -0.330983
Br3   Br    Br    0.698776 0.246498 0.688953 -0.370266
Br4   Br    Br    0.314735 0.758376 0.300390 -0.418017
Br5   Br    Br    0.826013 0.450326 0.278697 -0.487146
Br6   Br    Br    0.834205 0.755829 0.556260 -0.491107
Br7   Br    Br    0.155683 0.644274 0.702767 -0.366606
C1    C     C_R   0.497173 0.523630 0.700740 0.889240
C2    C     C_R   0.483604 0.449621 0.972032 0.039489
C3    C     C_R   0.511803 0.550545 0.027745 0.027507
C4    C     C_R   0.742178 0.500910 0.505422 0.920057
C5    C     C_R   0.524152 0.552155 0.134062 -0.118662
C6    C     C_R   0.479405 0.355843 0.131849 -0.096624
C7    C     C_R   0.470247 0.351482 0.023277 0.292346
C8    C     C_R   0.397309 0.955667 0.393650 -0.223448
C9    C     C_R   0.406440 0.840146 0.402778 0.449285
C10   C     C_R   0.536955 0.859827 0.551159 -0.003800
C11   C     C_R   0.533381 0.976647 0.541857 0.026537
C12   C     C_3   0.121859 0.501682 0.504748 -0.265421
C13   C     C_R   0.461606 0.024847 0.462488 0.020006
C14   C     C_R   0.456136 0.141398 0.453477 -0.071956
C15   C     C_R   0.596737 0.161010 0.595761 0.420820
C16   C     C_R   0.501674 0.476333 0.299197 0.952427
C17   C     C_R   0.601125 0.045973 0.608757 -0.204713
C18   C     C_R   0.258120 0.500482 0.501995 0.883077
C19   C     C_3   0.940720 0.390687 0.551240 -0.209159
C20   C     C_3   0.083626 0.396447 0.560601 -0.236176
C21   C     C_3   0.924009 0.516392 0.394898 -0.007618
C22   C     C_3   0.921076 0.607061 0.582161 -0.015455
C23   C     C_3   0.067569 0.487863 0.387367 -0.213278
C24   C     C_3   0.878840 0.502660 0.507671 -0.226506
C25   C     C_2   0.910642 0.282191 0.490844 0.466635
C26   C     C_2   0.091137 0.716532 0.506435 0.579666
C27   C     C_2   0.124226 0.560017 0.311492 0.472681
C28   C     C_2   0.466744 0.252461 0.185541 0.574739
C29   C     C_2   0.533885 0.746525 0.814375 0.503289
C30   C     C_2   0.135431 0.383834 0.669709 0.623576
C31   C     C_2   0.098798 0.369248 0.337678 0.464614
C32   C     C_2   0.878337 0.594311 0.692937 0.550422
C33   C     C_3   0.066721 0.614909 0.567557 0.131275
C34   C     C_R   0.503329 0.458762 0.186808 -0.180072
C35   C     C_R   0.493739 0.541186 0.812991 -0.175252
C36   C     C_R   0.526022 0.648495 0.976514 0.307779
C37   C     C_R   0.518225 0.643823 0.868014 -0.087665
C38   C     C_R   0.471418 0.448065 0.865614 -0.146432
H1    H     H_    0.903000 0.606211 0.382512 0.225599
H2    H     H_    0.860070 0.282057 0.417753 0.116467
H3    H     H_    0.046355 0.728334 0.432207 0.101407
H4    H     H_    0.223695 0.551113 0.300795 0.118998
H5    H     H_    0.539439 0.222654 0.238078 0.068321
H6    H     H_    0.460786 0.778956 0.763501 0.107650
H7    H     H_    0.223370 0.416407 0.692941 0.064930
H8    H     H_    0.027864 0.313005 0.315867 0.130418
H9    H     H_    0.786720 0.629467 0.716274 0.103578
H10   H     H_    0.549431 0.627444 0.177596 0.227183
H11   H     H_    0.446115 0.372891 0.821849 0.212403
H12   H     H_    0.398509 0.179286 0.394144 0.192058
H13   H     H_    0.901248 0.383696 0.628734 0.245268
H14   H     H_    0.341239 0.990942 0.331779 0.211790
H15   H     H_    0.658645 0.011025 0.669897 0.222033
H16   H     H_    0.588866 0.822769 0.613824 0.172647
H17   H     H_    0.128407 0.319876 0.519266 0.188251
N1    N     N_R   0.523380 0.207800 0.519350 -0.150267
N2    N     N_R   0.476620 0.792180 0.480650 -0.127650
O1    O     O_R   0.506240 0.421700 0.658830 -0.600029
O2    O     O_2   0.156730 0.789574 0.540909 -0.475127
O3    O     O_2   0.060920 0.620661 0.255919 -0.480943
O4    O     O_2   0.374914 0.199756 0.171417 -0.475650
O5    O     O_2   0.628690 0.795396 0.826559 -0.509301
O6    O     O_2   0.086323 0.327202 0.729548 -0.453288
O7    O     O_2   0.206310 0.334363 0.321324 -0.567866
O8    O     O_2   0.938445 0.539505 0.754875 -0.494556
O9    O     O_R   0.491240 0.609310 0.646410 -0.646485
O10   O     O_R   0.692710 0.406190 0.506230 -0.615636
O11   O     O_R   0.677700 0.593810 0.493810 -0.574955
O12   O     O_R   0.508760 0.390690 0.353590 -0.633134
O13   O     O_R   0.493760 0.578300 0.341170 -0.591595
O14   O     O_R   0.322300 0.406190 0.506190 -0.614251
O15   O     O_R   0.307290 0.593810 0.493770 -0.593263
O16   O     O_2   0.943287 0.192220 0.524900 -0.481716
Zn1   Zn    Zn3+2 0.510020 0.374730 0.508290 1.007413
Zn2   Zn    Zn3+2 0.489980 0.625270 0.491710 1.039838

loop_
_geom_bond_atom_site_label_1
_geom_bond_atom_site_label_2
_ccdc_geom_bond_type
C2    C38   A    
C16   O12   A    
C36   C37   A    
C6    C34   A    
C19   C25   S    
C21   H1    S    
C19   C20   S    
N1    Zn1   S    
C11   C17   A    
O13   Zn2   S    
C1    C35   S    
C6    C28   S    
O12   Zn1   S    
C10   N2    A    
C32   H9    S    
C8    C9    A    
C23   C31   S    
C10   H16   S    
C15   N1    A    
Br1   C36   S    
C38   H11   S    
Br7   C33   S    
C12   C20   S    
C2    C3    A    
C4    C24   S    
C1    O1    A    
C6    C7    A    
C35   C37   A    
C12   C18   S    
C26   O2    D    
C8    C13   A    
C26   C33   S    
C23   C27   S    
C18   O14   A    
C30   H7    S    
C35   C38   A    
Br4   C9    S    
C2    C7    A    
C14   H12   S    
C5    C34   A    
C20   H17   S    
C25   O16   D    
Br5   C21   S    
O1    Zn1   S    
C17   H15   S    
C22   C32   S    
C28   H5    S    
C10   C11   A    
C16   O13   A    
C19   H13   S    
N2    Zn2   S    
C29   H6    S    
C3    C5    A    
C25   H2    S    
C15   C17   A    
C29   C37   S    
O10   Zn1   S    
O9    Zn2   S    
C29   O5    D    
C31   O7    D    
C27   H4    S    
C3    C36   A    
C18   O15   A    
C8    H14   S    
C21   C24   S    
C4    O10   A    
C27   O3    D    
O15   Zn2   S    
O11   Zn2   S    
C16   C34   S    
C21   C23   S    
C22   C24   S    
C4    O11   A    
O14   Zn1   S    
C31   H8    S    
C28   O4    D    
C20   C30   S    
C22   C33   S    
C1    O9    A    
C11   C13   A    
C32   O8    D    
Br2   C7    S    
C14   N1    A    
C5    H10   S    
C12   C33   S    
C19   C24   S    
Br6   C22   S    
C13   C14   A    
C26   H3    S    
Br3   C15   S    
C9    N2    A    
C30   O6    D    
C12   C23   S    
