data_mof_unit_17288.cif
_audit_creation_date              2012-12-11T15:46:42-0500
_audit_creation_method            fapswitch 2.2
_symmetry_space_group_name_H-M    P1
_symmetry_Int_Tables_number       1
_space_group_crystal_system       triclinic
_cell_length_a                    11.5533
_cell_length_b                    11.529204
_cell_length_c                    19.540205
_cell_angle_alpha                 90.419712
_cell_angle_beta                  90.225713
_cell_angle_gamma                 60.021966
_cell_volume                      2254.49633017

loop_
_atom_site_label
_atom_site_type_symbol
_atom_type_description
_atom_site_fract_x
_atom_site_fract_y
_atom_site_fract_z
_atom_type_partial_charge
C1    C     C_R   0.640598 0.117239 0.599226 0.545679
C2    C     C_1   0.653389 0.149396 0.668602 0.005272
C3    C     C_R   0.655249 0.681057 0.190057 0.021431
C4    C     C_R   0.612633 0.745785 0.598582 0.546779
C5    C     C_R   0.536785 0.713156 0.224504 0.001693
C6    C     C_R   0.534137 0.715780 0.294215 0.008174
C7    C     C_R   0.758353 0.677278 0.298923 -0.182560
C8    C     C_R   0.761278 0.677173 0.227404 -0.180459
C9    C     C_3   0.447718 0.652477 0.222640 -0.234098
C10   C     C_3   0.448571 0.653487 0.299833 -0.237229
C11   C     C_R   0.644865 0.692473 0.332863 0.021210
C12   C     C_1   0.641580 0.703655 0.667972 0.006881
C13   C     C_R   0.169391 0.188015 0.185555 0.003247
C14   C     C_R   0.184086 0.282119 0.223964 0.010593
C15   C     C_R   0.231581 0.256485 0.290183 0.019557
C16   C     C_R   0.241086 0.145184 0.598189 0.554911
C17   C     C_R   0.262738 0.033604 0.280822 -0.137417
C18   C     C_R   0.218447 0.059265 0.212524 -0.129290
C19   C     C_3   0.078392 0.422099 0.239971 -0.262212
C20   C     C_3   0.130126 0.396546 0.312607 -0.050825
C21   C     C_R   0.262133 0.135070 0.321445 -0.016178
C22   C     C_R   0.684036 0.188692 0.197095 -0.014046
C23   C     C_1   0.126568 0.198908 0.859309 0.005409
C24   C     C_R   0.791214 0.084978 0.232281 0.044643
C25   C     C_R   0.784091 0.069006 0.301527 0.012119
C26   C     C_R   0.567475 0.268958 0.304942 -0.156443
C27   C     C_R   0.572977 0.283419 0.234235 -0.160833
C28   C     C_R   0.645257 0.113519 0.403159 0.536725
C29   C     C_3   0.853544 0.937617 0.218602 -0.061212
C30   C     C_3   0.845082 0.920701 0.294677 -0.256320
C31   C     C_R   0.670284 0.156835 0.338317 0.000292
C32   C     C_R   0.081676 0.231233 0.928591 0.541947
C33   C     C_R   0.683788 0.604582 0.929561 0.544963
C34   C     C_1   0.171608 0.170115 0.727710 -0.029205
C35   C     C_R   0.708267 0.206698 0.930177 0.545269
C36   C     C_R   0.086999 0.234203 0.124067 0.541948
C37   C     C_R   0.681645 0.614154 0.124666 0.547206
C38   C     C_R   0.709108 0.211014 0.127187 0.540546
C39   C     C_R   0.617484 0.737408 0.402850 0.537064
C40   C     C_R   0.299707 0.116398 0.393858 0.546245
C41   C     C_1   0.670054 0.646738 0.860185 0.006621
C42   C     C_1   0.654964 0.683572 0.728448 -0.029433
C43   C     C_1   0.663286 0.666831 0.799722 -0.029582
C44   C     C_2   0.189765 0.481089 0.334924 0.572836
C45   C     C_1   0.150101 0.182299 0.798959 -0.028922
C46   C     C_2   0.994463 0.873436 0.191993 0.605708
C47   C     C_1   0.195460 0.160663 0.667376 0.003898
C48   C     C_1   0.678272 0.191474 0.860798 0.005790
C49   C     C_1   0.658779 0.167081 0.729005 -0.029225
C50   C     C_1   0.665527 0.181002 0.800323 -0.029053
Cr1   Cr    Cr6+3 0.404720 0.198220 0.499960 1.061440
Cr2   Cr    Cr6+3 0.698290 0.897110 0.500380 1.041926
Cr3   Cr    Cr6+3 0.396970 0.904720 0.499610 1.032932
Cr4   Cr    Cr6+3 0.926290 0.152010 0.028150 1.065050
Cr5   Cr    Cr6+3 0.921440 0.451830 0.027490 1.049580
Cr6   Cr    Cr6+3 0.626370 0.446880 0.028730 1.027306
H1    H     H_    0.843539 0.666911 0.327480 0.141147
H2    H     H_    0.497004 0.549598 0.201820 0.172450
H3    H     H_    0.348093 0.721496 0.200330 0.172304
H4    H     H_    0.348954 0.720957 0.322618 0.175355
H5    H     H_    0.502923 0.551750 0.322499 0.148039
H6    H     H_    0.289353 0.938367 0.303003 0.155229
H7    H     H_    0.214104 0.982426 0.182544 0.173484
H8    H     H_    0.977418 0.433382 0.235744 0.128069
H9    H     H_    0.214872 0.584456 0.411549 0.326890
H10   H     H_    0.124060 0.762598 0.117680 0.326416
H11   H     H_    0.092450 0.496845 0.211035 0.187149
H12   H     H_    0.056635 0.398318 0.349894 0.132159
H13   H     H_    0.478633 0.338676 0.332529 0.184463
H14   H     H_    0.488954 0.364409 0.208426 0.158950
H15   H     H_    0.787713 0.912747 0.187637 0.110786
H16   H     H_    0.771100 0.890358 0.307509 0.140454
H17   H     H_    0.942146 0.865182 0.322096 0.184068
H18   H     H_    0.850967 0.661195 0.201814 0.145415
O1    O     O_R   0.267750 0.231960 0.575440 -0.490757
O2    O     O_R   0.596230 0.579400 0.952760 -0.504905
O3    O     O_R   0.639160 0.321170 0.958690 -0.494229
O4    O     O_R   0.527290 0.186640 0.570530 -0.493521
O5    O     O_R   0.821370 0.124220 0.104400 -0.486857
O6    O     O_R   0.037020 0.167050 0.097880 -0.493597
O7    O     O_R   0.056310 0.349620 0.102920 -0.512135
O8    O     O_R   0.797790 0.564880 0.097980 -0.499788
O9    O     O_R   0.596000 0.584270 0.104310 -0.528984
O10   O     O_R   0.638950 0.325690 0.099180 -0.509993
O11   O     O_3   0.824700 0.350240 0.028120 -0.261717
O12   O     O_R   0.685950 0.784660 0.430010 -0.503546
O13   O     O_R   0.728110 0.003450 0.576380 -0.499830
O14   O     O_R   0.682980 0.789190 0.570500 -0.488785
O15   O     O_R   0.499300 0.771880 0.575540 -0.504247
O16   O     O_R   0.285350 0.030870 0.569740 -0.489695
O17   O     O_R   0.270960 0.227070 0.423890 -0.484965
O18   O     O_R   0.530270 0.182120 0.430040 -0.516068
O19   O     O_R   0.731320 0.998570 0.424830 -0.513021
O20   O     O_2   0.251200 0.510667 0.294411 -0.563360
O21   O     O_R   0.171383 0.528234 0.402322 -0.685055
O22   O     O_2   0.080666 0.881841 0.224434 -0.558721
O23   O     O_R   0.502510 0.767000 0.423980 -0.526787
O24   O     O_R   0.026412 0.802131 0.130299 -0.695261
O25   O     O_R   0.288320 0.026340 0.429250 -0.496465
O26   O     O_3   0.499990 0.000020 0.499980 -0.280740
O27   O     O_R   0.821590 0.119350 0.952850 -0.497855
O28   O     O_R   0.037230 0.162540 0.957390 -0.496852
O29   O     O_R   0.056530 0.344750 0.951370 -0.502698
O30   O     O_R   0.798000 0.560370 0.957490 -0.490744

loop_
_geom_bond_atom_site_label_1
_geom_bond_atom_site_label_2
_ccdc_geom_bond_type
C25   C31   A    
C1    O13   A    
Cr6   O2    S    
C16   O1    A    
Cr4   O27   S    
C19   C20   S    
C40   O25   A    
C7    C8    A    
Cr3   O25   S    
C7    C11   A    
C26   C27   A    
C13   C18   A    
C23   C45   T    
C16   O16   A    
Cr1   O1    S    
C9    H2    S    
C5    C6    A    
Cr1   O18   S    
C18   H7    S    
C39   O23   A    
C38   O5    A    
C22   C38   S    
Cr5   O29   S    
C25   C30   S    
C1    C2    S    
C24   C29   S    
C12   C42   T    
Cr1   O17   S    
C19   H11   S    
Cr5   O7    S    
C9    C10   S    
C36   O7    A    
C48   C50   T    
C46   O24   S    
C26   C31   A    
C13   C14   A    
C1    O4    A    
C41   C43   T    
C35   C48   S    
C16   C47   S    
C20   C44   S    
Cr4   O28   S    
Cr6   O10   S    
Cr4   O6    S    
C28   C31   S    
Cr3   O26   S    
C15   C20   S    
Cr2   O14   S    
C24   C25   A    
C13   C36   S    
C3    C8    A    
C36   O6    A    
C6    C11   A    
C30   H17   S    
Cr3   O23   S    
Cr5   O30   S    
C35   O3    A    
C17   C21   A    
Cr6   O3    S    
C28   O19   A    
C9    H3    S    
Cr5   O11   S    
C10   H4    S    
C5    C9    S    
C29   C30   S    
C2    C49   T    
C17   H6    S    
C33   O2    A    
H9    O21   S    
C19   H8    S    
C8    H18   S    
C17   C18   A    
C32   O29   A    
Cr2   O19   S    
C28   O18   A    
C34   C45   S    
Cr5   O8    S    
C11   C39   S    
C27   H14   S    
C22   C27   A    
Cr3   O15   S    
C32   O28   A    
C37   O8    A    
C10   H5    S    
C4    C12   S    
C42   C43   S    
C3    C5    A    
Cr6   O9    S    
C4    O15   A    
Cr1   O26   S    
C38   O10   A    
C14   C19   S    
C20   H12   S    
Cr2   O13   S    
C35   O27   A    
C6    C10   S    
Cr4   O11   S    
C30   H16   S    
C4    O14   A    
C29   C46   S    
C33   C41   S    
C23   C32   S    
H10   O24   S    
Cr2   O12   S    
Cr1   O4    S    
C44   O21   S    
Cr6   O11   S    
C21   C40   S    
C33   O30   A    
Cr2   O26   S    
C22   C24   A    
C40   O17   A    
C44   O20   D    
Cr4   O5    S    
C15   C21   A    
C46   O22   D    
C3    C37   S    
C49   C50   S    
Cr3   O16   S    
C26   H13   S    
C14   C15   A    
C37   O9    A    
C34   C47   T    
C39   O12   A    
C7    H1    S    
C29   H15   S    
