data_mof_unit_36025.cif
_audit_creation_date              2012-12-10T17:00:44-0500
_audit_creation_method            fapswitch 2.2
_symmetry_space_group_name_H-M    P1
_symmetry_Int_Tables_number       1
_space_group_crystal_system       triclinic
_cell_length_a                    27.783137
_cell_length_b                    10.926303
_cell_length_c                    9.678923
_cell_angle_alpha                 90.047548
_cell_angle_beta                  90.184449
_cell_angle_gamma                 90.102107
_cell_volume                      2938.18044197

loop_
_atom_site_label
_atom_site_type_symbol
_atom_type_description
_atom_site_fract_x
_atom_site_fract_y
_atom_site_fract_z
_atom_type_partial_charge
C1    C     C_R   0.499362 0.265318 0.499991 0.856136
C2    C     C_R   0.281156 0.446265 0.624021 -0.107268
C3    C     C_R   0.253093 0.496890 0.518905 0.328677
C4    C     C_R   0.101503 0.494795 0.545963 -0.046400
C5    C     C_R   0.126893 0.384249 0.532048 -0.022025
C6    C     C_R   0.101732 0.273331 0.533029 -0.229674
C7    C     C_R   0.127208 0.605792 0.554473 -0.014866
C8    C     C_R   0.354141 0.502418 0.500692 -0.058279
C9    C     C_R   0.645646 0.500206 0.501696 -0.042327
C10   C     C_R   0.974591 0.387698 0.509968 0.060673
C11   C     C_R   0.974379 0.605329 0.575998 0.040187
C12   C     C_R   0.407373 0.501844 0.499605 0.785798
C13   C     C_R   0.949245 0.497255 0.538563 0.062001
C14   C     C_R   0.949076 0.289936 0.448345 -0.122532
C15   C     C_R   0.899242 0.293121 0.434469 -0.135701
C16   C     C_R   0.873334 0.395995 0.477201 -0.027283
C17   C     C_R   0.898340 0.499230 0.527145 -0.045235
C18   C     C_R   0.872458 0.604733 0.564542 -0.021848
C19   C     C_R   0.822031 0.603729 0.555379 0.537225
C20   C     C_R   0.822891 0.399093 0.469051 0.543700
C21   C     C_R   0.720893 0.503363 0.630059 -0.100581
C22   C     C_R   0.670752 0.502939 0.628034 -0.209475
C23   C     C_R   0.500611 0.734686 0.500148 0.845021
C24   C     C_R   0.671727 0.497742 0.377452 -0.210978
C25   C     C_R   0.721971 0.498041 0.379794 -0.097342
C26   C     C_R   0.746702 0.500990 0.506126 0.352303
C27   C     C_R   0.025022 0.382431 0.534764 0.025914
C28   C     C_R   0.050499 0.494511 0.550276 0.045419
C29   C     C_R   0.025391 0.606462 0.569501 0.052958
C30   C     C_R   0.051543 0.270704 0.542567 -0.014364
C31   C     C_R   0.102169 0.715695 0.570602 -0.145124
C32   C     C_R   0.947425 0.709220 0.615469 -0.199143
C33   C     C_R   0.897377 0.708406 0.610665 -0.132923
C34   C     C_R   0.592592 0.500020 0.500296 0.808518
C35   C     C_R   0.052239 0.716239 0.578383 -0.202477
C36   C     C_2   0.499851 0.932899 0.386483 -0.159503
C37   C     C_2   0.502818 0.866668 0.502592 -0.307653
C38   C     C_2   0.501631 0.066922 0.386571 -0.152095
C39   C     C_2   0.496911 0.133357 0.502125 -0.311593
C40   C     C_2   0.470510 0.434006 0.921746 -0.060590
C41   C     C_2   0.471419 0.431417 0.077569 -0.081041
C42   C     C_R   0.177351 0.386903 0.523289 0.547911
C43   C     C_R   0.177622 0.604289 0.545915 0.534177
C44   C     C_R   0.275262 0.550465 0.404350 -0.129334
C45   C     C_R   0.325650 0.555047 0.393330 0.050083
C46   C     C_R   0.331080 0.449017 0.615069 -0.248223
Cu1   Cu    Cu3+1 0.500010 0.500020 0.638630 0.945871
Cu2   Cu    Cu3+1 0.499990 0.499980 0.361370 0.938485
H1    H     H_    0.351801 0.408251 0.698083 0.157777
H2    H     H_    0.252775 0.590079 0.324438 0.139859
H3    H     H_    0.121076 0.802371 0.576384 0.185020
H4    H     H_    0.964063 0.791838 0.653740 0.157888
H5    H     H_    0.653378 0.495602 0.278602 0.160918
H6    H     H_    0.878294 0.790149 0.642108 0.195220
H7    H     H_    0.741719 0.496446 0.283544 0.144626
H8    H     H_    0.035525 0.804930 0.586284 0.142603
H9    H     H_    0.496798 0.887995 0.286665 0.168876
H10   H     H_    0.507979 0.907694 0.603270 0.150217
H11   H     H_    0.506450 0.111638 0.287342 0.168624
H12   H     H_    0.264190 0.405187 0.713297 0.148548
H13   H     H_    0.490283 0.092534 0.602019 0.146653
H14   H     H_    0.444021 0.377004 0.869933 0.147731
H15   H     H_    0.525555 0.550448 0.894260 0.192405
H16   H     H_    0.446666 0.369587 0.128818 0.151415
H17   H     H_    0.522004 0.560233 0.106289 0.192795
H18   H     H_    0.121388 0.187656 0.533963 0.181937
H19   H     H_    0.651718 0.504829 0.725468 0.161022
H20   H     H_    0.739790 0.505233 0.728074 0.143741
H21   H     H_    0.881144 0.214635 0.389579 0.189653
H22   H     H_    0.967385 0.211129 0.406506 0.146632
N1    N     N_R   0.201572 0.495951 0.529446 -0.465066
N2    N     N_R   0.798337 0.501551 0.509226 -0.469120
N3    N     N_2   0.499480 0.498660 0.846910 -0.279381
N4    N     N_2   0.499460 0.498630 0.153040 -0.283298
O1    O     O_R   0.500010 0.321960 0.617040 -0.576042
O2    O     O_2   0.798530 0.299998 0.423284 -0.529617
O3    O     O_2   0.202567 0.710144 0.554746 -0.539641
O4    O     O_2   0.796845 0.704218 0.591580 -0.530446
O5    O     O_R   0.499990 0.321920 0.382900 -0.571733
O6    O     O_R   0.430270 0.500040 0.617060 -0.577673
O7    O     O_R   0.430260 0.500000 0.382910 -0.579863
O8    O     O_R   0.500010 0.678080 0.617100 -0.576607
O9    O     O_R   0.499990 0.678040 0.382960 -0.576653
O10   O     O_R   0.569740 0.500000 0.617090 -0.580490
O11   O     O_R   0.569730 0.499960 0.382940 -0.577579
O12   O     O_2   0.202004 0.281508 0.507540 -0.536435
C47   C     C_2   0.030063 0.151114 0.581327 0.332923
H23   H     H_    0.047168 0.066584 0.548939 0.058583
O13   O     O_2   0.994912 0.145610 0.656516 -0.524433
C48   C     C_3   0.346772 0.619987 0.268850 -0.399003
C49   C     C_3   0.369270 0.743417 0.309233 -0.299399
C50   C     C_3   0.392753 0.804915 0.185009 -0.826524
H24   H     H_    0.422877 0.747923 0.145939 0.259358
H25   H     H_    0.365949 0.818560 0.101053 0.254606
H26   H     H_    0.407191 0.895690 0.216079 0.238799
H27   H     H_    0.340781 0.804581 0.350514 0.227801
H28   H     H_    0.396911 0.731419 0.391047 0.216777
H29   H     H_    0.372964 0.560330 0.215089 0.222095
H30   H     H_    0.318150 0.638154 0.190900 0.188722

loop_
_geom_bond_atom_site_label_1
_geom_bond_atom_site_label_2
_ccdc_geom_bond_type
C10   C27   A    
C21   C26   A    
C23   O8    A    
C26   N2    S    
C5    C42   A    
Cu2   O7    S    
C46   H1    S    
C23   O9    A    
Cu2   O5    S    
C50   H24   S    
C28   C29   A    
C5    C6    A    
C2    H12   S    
C9    C22   A    
C15   C16   A    
C40   H14   S    
C40   N3    D    
C20   O2    S    
C18   C19   A    
Cu1   O8    S    
C8    C45   A    
C32   H4    S    
C41   N4    D    
C16   C17   A    
C42   O12   S    
C7    C43   A    
C37   H10   S    
C16   C20   A    
C49   H27   S    
C21   C22   A    
C27   C30   A    
C14   H22   S    
C19   N2    A    
C34   O10   A    
Cu1   O6    S    
C4    C7    A    
C39   H13   S    
C4    C28   A    
C15   H21   S    
C3    C44   A    
C7    C31   A    
C1    O1    A    
Cu2   N4    S    
C24   C25   A    
Cu1   N3    S    
C36   H9    S    
C10   C14   A    
C49   C50   S    
H15   N3    S    
C24   H5    S    
C23   C37   S    
C50   H26   S    
C2    C46   A    
H17   N4    S    
C34   O11   A    
C19   O4    S    
C3    N1    S    
Cu1   Cu2   S    
C8    C12   S    
C50   H25   S    
C17   C18   A    
Cu1   O10   S    
C49   H28   S    
C45   C48   S    
C40   C41   S    
C6    C30   A    
C11   C32   A    
C47   O13   D    
C21   H20   S    
C9    C34   S    
C1    O5    A    
C31   C35   A    
C48   H30   S    
C44   C45   A    
C44   H2    S    
C33   H6    S    
C36   C37   D    
C43   N1    A    
C35   H8    S    
C14   C15   A    
C25   H7    S    
C31   H3    S    
C4    C5    A    
C10   C13   A    
C9    C24   A    
C43   O3    S    
C29   C35   A    
Cu2   O9    S    
C13   C17   A    
C32   C33   A    
C36   C38   S    
C2    C3    A    
C25   C26   A    
Cu1   O1    S    
C11   C13   A    
C48   C49   S    
C38   C39   D    
C12   O6    A    
C42   N1    A    
C12   O7    A    
C18   C33   A    
C8    C46   A    
C22   H19   S    
C1    C39   S    
C38   H11   S    
C6    H18   S    
C11   C29   A    
C47   H23   S    
C27   C28   A    
Cu2   O11   S    
C20   N2    A    
C41   H16   S    
C30   C47   S    
C48   H29   S    
