data_mof_unit_63488.cif
_audit_creation_date              2013-03-05T15:58:37-0500
_audit_creation_method            fapswitch 2.2
_symmetry_space_group_name_H-M    P1
_symmetry_Int_Tables_number       1
_space_group_crystal_system       triclinic
_cell_length_a                    18.819905
_cell_length_b                    18.812499
_cell_length_c                    18.792439
_cell_angle_alpha                 109.380024
_cell_angle_beta                  109.403253
_cell_angle_gamma                 109.533311
_cell_volume                      5127.94906939

loop_
_atom_site_label
_atom_site_type_symbol
_atom_site_description
_atom_site_fract_x
_atom_site_fract_y
_atom_site_fract_z
_atom_type_partial_charge
O1    O     O_R   0.590200 0.537990 0.447840 -0.548600
O2    O     O_R   0.590170 0.642360 0.552180 -0.563822
C1    C     C_R   0.617690 0.618777 0.498826 0.901837
O3    O     O_R   0.409840 0.447810 0.357640 -0.558649
O4    O     O_R   0.409810 0.552180 0.461990 -0.508561
C2    C     C_R   0.379305 0.497892 0.381180 0.900726
Cu1   Cu    Cu3+1 0.500020 0.438210 0.438220 1.149376
Cu2   Cu    Cu3+1 0.499980 0.561790 0.561780 1.165549
O5    O     O_R   0.409830 0.357640 0.447820 -0.604325
O6    O     O_R   0.409800 0.462010 0.552160 -0.537951
O7    O     O_R   0.590190 0.447820 0.538010 -0.574351
O8    O     O_R   0.590160 0.552190 0.642360 -0.584936
C3    C     C_R   0.379604 0.381316 0.498642 0.834782
C4    C     C_R   0.619157 0.500234 0.618963 0.810828
C5    C     C_R   0.248355 0.211576 0.208022 0.539361
C6    C     C_R   0.258832 0.288202 0.206410 0.528869
C7    C     C_R   0.221352 0.333091 0.240849 -0.250264
C8    C     C_R   0.169138 0.297886 0.272358 0.630160
C9    C     C_R   0.158384 0.221351 0.273827 -0.371604
H1    H     H_    0.118609 0.196341 0.299570 0.249282
C10   C     C_R   0.198693 0.177774 0.242893 0.081184
C11   C     C_R   0.174514 0.418470 0.178577 0.356151
C12   C     C_R   0.186270 0.498936 0.184846 -0.213754
C13   C     C_R   0.261873 0.577716 0.254639 0.046445
C14   C     C_R   0.323627 0.575655 0.318622 0.672237
C15   C     C_R   0.311441 0.496389 0.313862 -0.209551
C16   C     C_R   0.236509 0.417130 0.244202 0.012530
C17   C     C_R   0.324743 0.702603 0.229258 0.107580
C18   C     C_R   0.335949 0.783517 0.238516 0.493439
C19   C     C_R   0.301903 0.825656 0.281555 0.469987
C20   C     C_R   0.257369 0.789009 0.318580 0.030834
C21   C     C_R   0.246120 0.708005 0.309681 0.498722
C22   C     C_R   0.277168 0.663628 0.263412 -0.208292
C23   C     C_R   0.756347 0.754187 0.575966 -0.253131
H2    H     H_    0.763482 0.758012 0.636990 0.212002
C24   C     C_R   0.822074 0.817296 0.577052 0.628452
C25   C     C_R   0.813825 0.813066 0.498692 -0.306370
C26   C     C_R   0.739862 0.744855 0.419079 0.555338
C27   C     C_R   0.673609 0.680577 0.417370 0.235400
C28   C     C_R   0.682679 0.685620 0.496853 -0.297515
C29   C     C_R   0.688995 0.516502 0.764833 -0.193186
H3    H     H_    0.641141 0.529199 0.777527 0.203916
C30   C     C_R   0.751966 0.514242 0.827407 0.638101
C31   C     C_R   0.814437 0.497883 0.812055 -0.251983
C32   C     C_R   0.813326 0.482865 0.732687 0.273964
C33   C     C_R   0.748846 0.484275 0.670059 -0.182269
H4    H     H_    0.746686 0.471944 0.608591 0.212543
C34   C     C_R   0.686791 0.500729 0.685788 -0.177519
C35   C     C_R   0.242862 0.327243 0.506162 0.239764
C36   C     C_R   0.177888 0.261682 0.504992 0.180628
C37   C     C_R   0.184608 0.188094 0.501292 -0.294606
C38   C     C_R   0.252618 0.177924 0.493927 0.672504
C39   C     C_R   0.313657 0.240026 0.489621 -0.237604
H5    H     H_    0.365413 0.230679 0.483081 0.223523
C40   C     C_R   0.310194 0.315064 0.496921 -0.297552
O9    O     O_R   0.947830 0.537990 0.090130 -0.536524
O10   O     O_R   0.052220 0.642350 0.090110 -0.587830
C41   C     C_R   0.000149 0.618793 0.119165 0.902212
O11   O     O_R   0.038000 0.447810 0.090170 -0.534012
O12   O     O_R   0.142390 0.552170 0.090150 -0.594758
C42   C     C_R   0.118980 0.500039 0.118888 0.874537
Cu3   Cu    Cu3+1 0.938210 0.438200 0.999980 1.237424
Cu4   Cu    Cu3+1 0.061840 0.561770 0.999960 1.185678
O13   O     O_R   0.947830 0.357620 0.909840 -0.539315
O14   O     O_R   0.052230 0.461980 0.909820 -0.526299
O15   O     O_R   0.857660 0.447800 0.909790 -0.543292
O16   O     O_R   0.962050 0.552160 0.909780 -0.551370
C43   C     C_R   0.000241 0.381173 0.881411 0.991544
C44   C     C_R   0.881269 0.499296 0.880393 0.920903
O17   O     O_R   0.052180 0.909730 0.461910 -0.549698
O18   O     O_R   0.947800 0.909770 0.357550 -0.540228
C45   C     C_R   0.999515 0.880760 0.381196 0.937628
O19   O     O_R   0.962000 0.909720 0.552080 -0.539247
O20   O     O_R   0.857620 0.909750 0.447720 -0.533409
C46   C     C_R   0.881098 0.880802 0.499715 0.944134
Cu5   Cu    Cu3+1 0.061800 0.999890 0.561700 1.238064
Cu6   Cu    Cu3+1 0.938200 0.999930 0.438120 1.236506
O21   O     O_R   0.052200 0.090060 0.642270 -0.557262
O22   O     O_R   0.947820 0.090090 0.537910 -0.545389
O23   O     O_R   0.142380 0.090070 0.552100 -0.531786
O24   O     O_R   0.038000 0.090100 0.447740 -0.561980
C47   C     C_R   0.000349 0.119010 0.618948 0.954530
C48   C     C_R   0.118626 0.119384 0.500381 0.928476
C49   C     C_R   0.006791 0.761220 0.183017 0.217480
C50   C     C_R   0.006024 0.824250 0.247313 0.601243
C51   C     C_R   0.997907 0.812550 0.314407 -0.332563
C52   C     C_R   0.989380 0.736828 0.317974 0.219662
C53   C     C_R   0.989508 0.672479 0.253458 0.240291
C54   C     C_R   0.999493 0.685291 0.186404 -0.381941
C55   C     C_R   0.079354 0.321397 0.823276 0.555502
C56   C     C_R   0.080511 0.257403 0.760025 0.214894
C57   C     C_R   0.000632 0.185937 0.686605 -0.387789
C58   C     C_R   0.920714 0.178302 0.679021 0.204947
C59   C     C_R   0.921397 0.243027 0.743370 0.561238
C60   C     C_R   0.000313 0.314356 0.814754 -0.364704
N1    N     N_R   0.188385 0.099857 0.246715 0.209334
O25   O     O_R   0.228466 0.060813 0.222461 -0.138500
O26   O     O_R   0.139717 0.067947 0.276135 -0.250490
F1    F     F_    0.314827 0.903751 0.288811 -0.478701
N2    N     N_R   0.224545 0.833948 0.365345 0.176979
O27   O     O_R   0.217179 0.897747 0.357666 -0.208113
O28   O     O_R   0.202677 0.812374 0.417031 -0.216363
F2    F     F_    0.205917 0.672044 0.346870 -0.528015
F3    F     F_    0.892592 0.883631 0.654651 -0.582530
F4    F     F_    0.731910 0.741484 0.343274 -0.551169
N3    N     N_R   0.596625 0.613033 0.335571 0.188282
O29   O     O_R   0.520007 0.592290 0.327452 -0.290207
O30   O     O_R   0.602420 0.578267 0.266731 -0.171464
F5    F     F_    0.753180 0.529865 0.903869 -0.596481
N4    N     N_R   0.874897 0.463745 0.713573 0.160030
O31   O     O_R   0.898709 0.413760 0.736401 -0.330165
O32   O     O_R   0.898183 0.486349 0.663058 -0.255888
F6    F     F_    0.286974 0.170954 0.175558 -0.511767
N5    N     N_R   0.241102 0.406401 0.519398 0.192270
O33   O     O_R   0.229513 0.446901 0.581858 -0.207359
O34   O     O_R   0.249662 0.437767 0.468761 -0.280109
N6    N     N_R   0.104278 0.269178 0.504849 0.180727
O35   O     O_R   0.082829 0.263100 0.562477 -0.295872
O36   O     O_R   0.060378 0.285565 0.448815 -0.206590
F7    F     F_    0.257993 0.106032 0.487496 -0.563152
N7    N     N_R   0.010447 0.773080 0.112346 0.184143
O37   O     O_R   0.065933 0.847721 0.127831 -0.164287
O38   O     O_R   0.951311 0.713325 0.032312 -0.308617
F8    F     F_    0.012540 0.897192 0.244149 -0.548878
N8    N     N_R   0.980120 0.724825 0.386688 0.180857
O39   O     O_R   0.918870 0.730405 0.401514 -0.331956
O40   O     O_R   0.030597 0.704727 0.432250 -0.183772
N9    N     N_R   0.976434 0.593287 0.254980 0.195529
O41   O     O_R   0.909260 0.547940 0.258187 -0.217074
O42   O     O_R   0.032481 0.567359 0.255525 -0.245951
F9    F     F_    0.155550 0.390731 0.893508 -0.535237
F10   F     F_    0.306766 0.319569 0.172496 -0.520642
N10   N     N_R   0.163022 0.266257 0.771184 0.194037
O43   O     O_R   0.180567 0.259172 0.708655 -0.305557
O44   O     O_R   0.224276 0.290434 0.846987 -0.177801
N11   N     N_R   0.838789 0.103293 0.608770 0.189009
O45   O     O_R   0.825994 0.025454 0.590207 -0.331171
O46   O     O_R   0.773580 0.112436 0.570253 -0.188949
F11   F     F_    0.844952 0.236009 0.736906 -0.553592
F12   F     F_    0.127126 0.336845 0.300076 -0.527289
N12   N     N_R   0.102611 0.338075 0.102898 0.145296
O47   O     O_R   0.093324 0.320705 0.026278 -0.306915
O48   O     O_R   0.044893 0.283447 0.109898 -0.254328
F13   F     F_    0.396845 0.651374 0.385186 -0.595566
N13   N     N_R   0.362716 0.661885 0.186561 0.216797
O49   O     O_R   0.435693 0.709275 0.193063 -0.161245
O50   O     O_R   0.323584 0.577785 0.138369 -0.250211
F14   F     F_    0.378922 0.821473 0.204272 -0.498426

loop_
_geom_bond_atom_site_label_1
_geom_bond_atom_site_label_2
_geom_bond_distance
_ccdc_geom_bond_type
C27   N3    1.438578 S    
C52   C53   1.401878 A    
Cu4   O14   1.971127 S    
C58   C59   1.395392 A    
C36   N6    1.437850 S    
C29   C30   1.389243 A    
C29   H3    1.083451 S    
C9    H1    1.082542 S    
C52   N8    1.437192 S    
C58   N11   1.437935 S    
N9    O41   1.301225 A    
C18   F14   1.357447 S    
N5    O33   1.301346 A    
O10   C41   1.296379 A    
Cu1   Cu2   2.686311 S    
C32   C33   1.397076 A    
C38   C39   1.384975 A    
Cu1   O7    1.970936 S    
C17   N13   1.442384 S    
C18   C19   1.397006 A    
O12   Cu4   1.970386 S    
C23   C28   1.399357 A    
O4    C2    1.295442 A    
O13   C43   1.292151 A    
C17   C18   1.406067 A    
C9    C10   1.406435 A    
Cu5   O21   1.970990 S    
C8    C9    1.396447 A    
N6    O36   1.301604 A    
N13   O49   1.301312 A    
C19   C20   1.407594 A    
O7    C4    1.295293 A    
O15   C44   1.292889 A    
N3    O29   1.301073 A    
C5    C6    1.400245 A    
C47   C57   1.459611 S    
C50   F8    1.359422 S    
C7    C8    1.402312 A    
C23   H2    1.083892 S    
O5    C3    1.297009 A    
N4    O31   1.300333 A    
N2    O27   1.301335 A    
Cu3   O13   1.970615 S    
N13   O50   1.300938 A    
C6    C7    1.403021 A    
O20   Cu6   1.968490 S    
N1    O26   1.301525 A    
C12   C13   1.414602 A    
C5    F6    1.356853 S    
Cu6   O22   1.970913 S    
C35   N5    1.439866 S    
C25   C46   1.454590 S    
O1    Cu1   1.969061 S    
N10   O44   1.301288 A    
C59   F11   1.359497 S    
O19   C46   1.295319 A    
O3    Cu1   1.971037 S    
O24   C48   1.290929 A    
O10   Cu4   1.970736 S    
C33   C34   1.399084 A    
Cu5   Cu6   2.686504 S    
C39   C40   1.398119 A    
C26   C27   1.399035 A    
Cu4   O16   1.971459 S    
O11   C42   1.295996 A    
C43   C60   1.451363 S    
O20   C46   1.293732 A    
Cu3   O15   1.970385 S    
C37   C38   1.399236 A    
C7    C16   1.485013 S    
C55   C60   1.397071 A    
C13   C14   1.389444 A    
N11   O46   1.301211 A    
C56   C57   1.417889 A    
C51   C52   1.406099 A    
C4    C34   1.455872 S    
C49   N7    1.437153 S    
C50   C51   1.396859 A    
C19   F1    1.357290 S    
O12   C42   1.291589 A    
O1    C1    1.293808 A    
C30   C31   1.403074 A    
C25   C26   1.403681 A    
O22   C47   1.297176 A    
N10   O43   1.300352 A    
O21   C47   1.292515 A    
C45   C51   1.450106 S    
C20   C21   1.409494 A    
C56   N10   1.438920 S    
Cu6   O24   1.969322 S    
Cu2   O8    1.971036 S    
O14   C43   1.293433 A    
N1    O25   1.301158 A    
Cu3   Cu4   2.683626 S    
N2    O28   1.301182 A    
C36   C37   1.412929 A    
C15   C16   1.413335 A    
C21   F2    1.356977 S    
C31   C44   1.453858 S    
C20   N2    1.444131 S    
C49   C50   1.392247 A    
C8    F12   1.357008 S    
N7    O37   1.301237 A    
C55   F9    1.359708 S    
C38   F7    1.358362 S    
O3    C2    1.291506 A    
O8    C4    1.295144 A    
C1    C28   1.452973 S    
C11   C16   1.402530 A    
O17   Cu5   1.970916 S    
N8    O39   1.300890 A    
O19   Cu5   1.969322 S    
O9    Cu3   1.971128 S    
C14   F13   1.360964 S    
C49   C54   1.413595 A    
C37   C48   1.452907 S    
O18   Cu6   1.970873 S    
C31   C32   1.414415 A    
O23   C48   1.296351 A    
C12   C42   1.460231 S    
Cu1   O5    1.968640 S    
C33   H4    1.083725 S    
C24   C25   1.400346 A    
O11   Cu3   1.971558 S    
C32   N4    1.438979 S    
O2    Cu2   1.968638 S    
Cu5   O23   1.968493 S    
N11   O45   1.301293 A    
O6    C3    1.291910 A    
N9    O42   1.300307 A    
C17   C22   1.416477 A    
O4    Cu2   1.970936 S    
N5    O34   1.300240 A    
C39   H5    1.083767 S    
C10   N1    1.442371 S    
C13   C22   1.484150 S    
C24   F3    1.357953 S    
C21   C22   1.405870 A    
C26   F4    1.359350 S    
N12   O48   1.300600 A    
O2    C1    1.293785 A    
C14   C15   1.397644 A    
O18   C45   1.292804 A    
C53   N9    1.438293 S    
C35   C40   1.415047 A    
N6    O35   1.300252 A    
C55   C56   1.395620 A    
C2    C15   1.452912 S    
N3    O30   1.301213 A    
C11   N12   1.437511 S    
C57   C58   1.415138 A    
C29   C34   1.398090 A    
O9    C41   1.292134 A    
C23   C24   1.387503 A    
C59   C60   1.398166 A    
C6    F10   1.357866 S    
C41   C54   1.460609 S    
N4    O32   1.301446 A    
N7    O38   1.301364 A    
C27   C28   1.412433 A    
C5    C10   1.411879 A    
C53   C54   1.417714 A    
Cu2   O6    1.969059 S    
C35   C36   1.404466 A    
N8    O40   1.301188 A    
C11   C12   1.412318 A    
O17   C45   1.292818 A    
C30   F5    1.358305 S    
O16   C44   1.293022 A    
N12   O47   1.301107 A    
C3    C40   1.455098 S    
