data_mof_unit_17871.cif
_audit_creation_date              2012-12-11T18:37:19-0500
_audit_creation_method            fapswitch 2.2
_symmetry_space_group_name_H-M    P1
_symmetry_Int_Tables_number       1
_space_group_crystal_system       triclinic
_cell_length_a                    8.269753
_cell_length_b                    14.389383
_cell_length_c                    26.984291
_cell_angle_alpha                 93.809516
_cell_angle_beta                  93.189891
_cell_angle_gamma                 87.695295
_cell_volume                      3196.83117158

loop_
_atom_site_label
_atom_site_type_symbol
_atom_type_description
_atom_site_fract_x
_atom_site_fract_y
_atom_site_fract_z
_atom_type_partial_charge
Ba1   Ba    Ba6+2 0.849670 0.455410 0.524690 1.709340
Ba2   Ba    Ba6+2 0.340150 0.544510 0.475310 1.750805
C1    C     C_3   0.693354 0.116777 0.674044 -0.270427
C2    C     C_3   0.658535 0.206608 0.648006 0.343251
C3    C     C_3   0.654348 0.720054 0.628388 0.262438
C4    C     C_3   0.697754 0.775677 0.677222 -0.322005
C5    C     C_3   0.016852 0.815213 0.333866 0.333007
C6    C     C_3   0.057467 0.860524 0.286457 0.240228
C7    C     C_3   0.548741 0.801258 0.360663 0.374622
C8    C     C_3   0.498484 0.901885 0.349493 -0.192670
C9    C     C_R   0.944854 0.434155 0.176686 0.599649
C10   C     C_R   0.010085 0.595221 0.185445 0.607265
C11   C     C_2   0.782282 0.577365 0.271597 -0.065192
C12   C     C_3   0.158564 0.202002 0.665523 0.320027
C13   C     C_3   0.757749 0.600241 0.326387 -0.030031
C14   C     C_1   0.975386 0.482795 0.343864 0.003780
C15   C     C_2   0.013200 0.474274 0.296384 -0.081839
C16   C     C_2   0.911119 0.522610 0.257364 0.228224
C17   C     C_R   0.028350 0.510902 0.104286 -0.079162
C18   C     C_R   0.982423 0.429890 0.125866 -0.037085
C19   C     C_R   0.972868 0.346682 0.096010 -0.050498
C20   C     C_R   0.041286 0.594231 0.134390 -0.039209
C21   C     C_2   0.848162 0.532864 0.359500 -0.205499
C22   C     C_2   0.310810 0.447623 0.641458 -0.190274
C23   C     C_3   0.256638 0.114687 0.680352 -0.365467
C24   C     C_R   0.103869 0.419288 0.972970 0.019219
C25   C     C_R   0.126215 0.589941 0.978759 0.019914
C26   C     C_R   0.132699 0.503286 0.950389 0.052645
C27   C     C_R   0.123010 0.334278 0.944118 -0.101268
C28   C     C_R   0.164582 0.332077 0.894769 -0.045060
C29   C     C_R   0.187180 0.414495 0.871510 -0.031508
C30   C     C_R   0.169530 0.500413 0.898983 -0.080054
C31   C     C_R   0.190163 0.583211 0.875187 -0.040968
C32   C     C_R   0.225671 0.578840 0.824058 0.597274
C33   C     C_R   0.229101 0.412027 0.821403 0.581806
C34   C     C_3   0.164523 0.259730 0.424814 0.289034
C35   C     C_2   0.416249 0.433820 0.730849 -0.070030
C36   C     C_3   0.429700 0.400521 0.677025 -0.055482
C37   C     C_1   0.204478 0.512799 0.657249 0.106355
C38   C     C_2   0.178963 0.531335 0.705520 0.010952
C39   C     C_2   0.287772 0.488209 0.745329 0.234262
C40   C     C_R   0.059383 0.422636 0.023543 0.020508
C41   C     C_R   0.062696 0.508447 0.052710 0.053217
C42   C     C_R   0.100571 0.591759 0.030887 0.016954
C43   C     C_R   0.010899 0.342898 0.046178 -0.095881
C44   C     C_R   0.086058 0.674879 0.112963 -0.044801
C45   C     C_3   0.179128 0.154640 0.413832 -0.362852
C46   C     C_R   0.145197 0.671950 0.953670 -0.095739
C47   C     C_R   0.175389 0.668531 0.903118 -0.051562
C48   C     C_R   0.113725 0.674006 0.062412 -0.095719
C49   C     C_R   0.694096 0.065190 0.473408 -0.013171
C50   C     C_R   0.517099 0.199880 0.503164 0.044728
C51   C     C_R   0.383482 0.231796 0.529768 -0.288735
C52   C     C_R   0.284381 0.169193 0.549474 0.003976
C53   C     C_R   0.326321 0.074641 0.547150 -0.150818
C54   C     C_R   0.465625 0.041311 0.523510 -0.002462
C55   C     C_R   0.560851 0.102994 0.499810 -0.030490
C56   C     C_3   0.060265 0.745295 0.575067 0.400909
C57   C     C_R   0.638628 0.908644 0.496131 -0.077376
C58   C     C_R   0.735882 0.969340 0.472526 -0.016361
C59   C     C_R   0.677658 0.811988 0.493522 0.019192
C60   C     C_R   0.808721 0.776956 0.466556 0.133843
C61   C     C_R   0.914439 0.837544 0.447735 -0.027968
C62   C     C_R   0.876795 0.933535 0.449833 -0.205694
C63   C     C_R   0.505137 0.946078 0.521599 -0.011818
C64   C     C_3   0.128266 0.842555 0.582832 -0.230176
C65   C     C_3   0.693549 0.316411 0.377729 0.665285
C66   C     C_3   0.758947 0.261084 0.332576 -0.186423
H1    H     H_    0.709054 0.198743 0.610572 0.085713
H2    H     H_    0.272586 0.137337 0.386330 0.146877
H3    H     H_    0.214007 0.119361 0.448250 0.056897
H4    H     H_    0.061083 0.128021 0.398629 0.128780
H5    H     H_    0.930321 0.752300 0.563800 -0.224329
H6    H     H_    0.123963 0.708981 0.544018 0.062072
H7    H     H_    0.119946 0.875330 0.546647 -0.027993
H8    H     H_    0.258195 0.836990 0.595402 0.103626
H9    H     H_    0.798631 0.344048 0.400623 -0.055905
H10   H     H_    0.825614 0.101823 0.678574 0.197724
H11   H     H_    0.838632 0.201999 0.344723 0.084908
H12   H     H_    0.829833 0.306359 0.310858 0.074603
H13   H     H_    0.657360 0.232874 0.308171 0.139243
H14   H     H_    0.524717 0.216683 0.643503 -0.103934
H15   H     H_    0.637029 0.057746 0.651726 0.091753
H16   H     H_    0.767319 0.689545 0.614058 0.056986
H17   H     H_    0.587344 0.807805 0.693942 0.156545
H18   H     H_    0.761974 0.729675 0.704001 0.093332
H19   H     H_    0.777959 0.832565 0.670182 0.166444
H20   H     H_    0.642682 0.123028 0.711403 0.111763
H21   H     H_    0.344952 0.132829 0.711667 0.096266
H22   H     H_    0.975150 0.743412 0.324638 -0.006451
H23   H     H_    0.919633 0.859425 0.351211 0.000206
H24   H     H_    0.167992 0.823880 0.271887 0.108441
H25   H     H_    0.681295 0.791551 0.357006 -0.102770
H26   H     H_    0.520979 0.793327 0.399891 0.044432
H27   H     H_    0.566488 0.949479 0.376436 0.011430
H28   H     H_    0.368588 0.916604 0.355386 0.126878
H29   H     H_    0.118747 0.432175 0.285408 0.110637
H30   H     H_    0.935967 0.283444 0.111168 0.130936
H31   H     H_    0.497122 0.401755 0.758414 0.095928
H32   H     H_    0.178659 0.264704 0.874713 0.142049
H33   H     H_    0.111289 0.267409 0.959010 0.076884
H34   H     H_    0.997097 0.276332 0.025984 0.075974
H35   H     H_    0.708371 0.614147 0.244152 0.104368
H36   H     H_    0.098657 0.739882 0.135284 0.148202
H37   H     H_    0.133751 0.740620 0.971911 0.075998
H38   H     H_    0.244187 0.252356 0.653383 -0.103381
H39   H     H_    0.188553 0.733630 0.886001 0.129882
H40   H     H_    0.072045 0.572307 0.716339 0.084964
H41   H     H_    0.149613 0.738869 0.049372 0.080218
H42   H     H_    0.816653 0.533580 0.397969 0.110383
H43   H     H_    0.304192 0.419452 0.603205 0.050613
H44   H     H_    0.347823 0.305035 0.531127 0.056667
H45   H     H_    0.247387 0.027008 0.562503 0.068818
H46   H     H_    0.957954 0.979876 0.434374 0.098281
H47   H     H_    0.767415 0.108993 0.453522 0.099956
H48   H     H_    0.175317 0.061562 0.691976 0.191310
H49   H     H_    0.428191 0.901682 0.539647 0.106519
H50   H     H_    0.324552 0.084008 0.648672 0.080230
H51   H     H_    0.284254 0.285837 0.437722 0.017789
H52   H     H_    0.077118 0.274828 0.454261 0.061686
N1    N     N_R   0.956390 0.516830 0.205693 -0.428199
N2    N     N_R   0.245817 0.493631 0.797608 -0.434129
O1    O     O_2   0.918080 0.549800 0.616640 -0.451738
O2    O     O_3   0.602888 0.256640 0.403311 -0.642112
O3    O     O_3   0.037574 0.177006 0.628812 -0.589530
O4    O     O_2   0.271610 0.450170 0.383330 -0.423399
O5    O     O_3   0.039630 0.450200 0.443530 -0.505619
O6    O     O_3   0.531440 0.620360 0.408460 -0.456561
O7    O     O_3   0.111218 0.300893 0.381072 -0.632677
O8    O     O_3   0.643350 0.612530 0.521650 -0.419562
O9    O     O_3   0.127390 0.668260 0.431510 -0.435346
O10   O     O_2   0.249488 0.832209 0.458145 -0.502803
O11   O     O_3   0.157805 0.810589 0.365169 -0.582307
O12   O     O_3   0.150070 0.549720 0.556460 -0.531431
O13   O     O_3   0.546340 0.387390 0.478340 -0.486207
O14   O     O_2   0.398940 0.728800 0.517420 -0.473833
O15   O     O_3   0.579397 0.779608 0.594694 -0.668794
O16   O     O_2   0.420952 0.553274 0.319695 -0.441447
O17   O     O_3   0.464373 0.735090 0.329224 -0.550459
O18   O     O_2   0.900914 0.364522 0.194938 -0.581891
O19   O     O_2   0.250856 0.336518 0.798903 -0.588745
O20   O     O_2   0.032592 0.665801 0.212112 -0.604228
O21   O     O_2   0.241451 0.650802 0.803490 -0.563161
O22   O     O_3   0.658250 0.379560 0.591530 -0.442134
O23   O     O_2   0.754094 0.462486 0.678882 -0.444545
O24   O     O_3   0.079859 0.699477 0.619639 -0.600723
O25   O     O_3   0.730958 0.281172 0.676334 -0.572734
O26   O     O_2   0.790750 0.271170 0.482550 -0.489598
O27   O     O_3   0.062300 0.331660 0.568480 -0.472871
O28   O     O_2   0.954794 0.166258 0.534904 -0.487528
P1    P     P_3+3 0.090020 0.577590 0.608380 1.016249
P2    P     P_3+3 0.614340 0.285150 0.467650 0.965066
P3    P     P_3+3 0.086541 0.210701 0.570508 0.975887
P4    P     P_3+3 0.099670 0.422330 0.391610 1.003840
P5    P     P_3+3 0.109381 0.788813 0.425409 0.990864
P6    P     P_3+3 0.642463 0.385152 0.655996 1.043645
P7    P     P_3+3 0.583818 0.731745 0.532868 0.973757
P8    P     P_3+3 0.542093 0.624308 0.344140 1.045556
C67   C     C_2   0.038366 0.902868 0.620642 0.867870
O29   O     O_2   0.064905 0.891413 0.664810 -0.551893
O30   O     O_R   0.926466 0.972698 0.606314 -0.742682
H53   H     H_    0.913326 0.976767 0.569001 0.276372
O31   O     O_3   0.592490 0.389359 0.361087 -0.724469
H54   H     H_    0.580052 0.434244 0.390183 0.311374
C68   C     C_2   0.540870 0.645682 0.636099 0.796013
O32   O     O_2   0.427830 0.660739 0.663100 -0.637921
O33   O     O_R   0.553099 0.563843 0.606286 -0.718801
H55   H     H_    0.448057 0.551119 0.586706 0.275406
C69   C     C_2   0.923868 0.852413 0.246177 0.906965
O34   O     O_2   0.936256 0.890800 0.207545 -0.587817
O35   O     O_R   0.790077 0.798409 0.251705 -0.778042
H56   H     H_    0.714615 0.794658 0.220778 0.338345
O36   O     O_3   0.087204 0.955013 0.298520 -0.731727
H57   H     H_    0.154137 0.976144 0.272286 0.334155
C70   C     C_2   0.075916 0.248356 0.709324 0.971403
O37   O     O_2   0.038960 0.203335 0.743656 -0.593146
O38   O     O_R   0.035048 0.343327 0.709433 -0.742464
H58   H     H_    0.975627 0.366961 0.739912 0.323604
C71   C     C_2   0.533289 0.924991 0.297935 0.917897
O39   O     O_2   0.461777 0.886171 0.261980 -0.589401
O40   O     O_R   0.644326 0.993261 0.291358 -0.748362
H59   H     H_    0.655705 0.004273 0.255019 0.331192
O41   O     O_3   0.834435 0.682548 0.458892 -0.731926
H60   H     H_    0.898058 0.662334 0.488697 0.298124

loop_
_geom_bond_atom_site_label_1
_geom_bond_atom_site_label_2
_ccdc_geom_bond_type
C25   C46   A    
C66   H12   S    
C7    H25   S    
O35   H56   S    
C68   O32   D    
C10   C20   A    
C7    O17   S    
C69   O34   D    
C17   C18   A    
C65   H9    S    
C36   P6    S    
C9    O18   D    
C65   O2    S    
O10   P5    D    
C52   P3    S    
O30   H53   S    
O6    P8    S    
C5    C6    S    
C47   H39   S    
C51   C52   A    
C6    C69   S    
C24   C40   A    
C12   C70   S    
C12   O3    S    
C11   C16   D    
Ba1   P2    S    
O8    P7    S    
C8    C71   S    
C35   C36   S    
C5    O11   S    
C67   O29   D    
C28   C29   A    
C53   C54   A    
O12   P1    S    
C31   C47   A    
C54   C63   A    
C28   H32   S    
C22   C37   D    
C54   C55   A    
C34   C45   S    
Ba1   Ba2   S    
C34   H51   S    
O27   P3    S    
C64   C67   S    
C60   O41   S    
O23   P6    D    
C25   C42   A    
C56   C64   S    
C10   N1    Am   
O31   H54   S    
O17   P8    S    
O3    P3    S    
C14   C15   D    
O28   P3    D    
C22   C36   S    
C67   O30   S    
Ba1   O27   S    
C49   C55   A    
C3    C68   S    
C11   H35   S    
C7    C8    S    
C38   H40   S    
Ba2   O5    S    
C66   H11   S    
C13   C21   S    
O2    P2    S    
C64   H8    S    
C57   C58   A    
C32   N2    Am   
O36   H57   S    
C23   H50   S    
C69   O35   S    
C68   O33   S    
C9    N1    Am   
C22   H43   S    
O5    P4    S    
C2    H1    S    
C17   C41   A    
C15   C16   S    
C19   C43   A    
C33   N2    Am   
C9    C18   A    
O1    P1    D    
C32   O21   D    
C57   C59   A    
C62   H46   S    
C65   C66   S    
O26   P2    D    
C26   C30   A    
C17   C20   A    
C13   P8    S    
C70   O38   S    
Ba1   O8    S    
C43   H34   S    
C23   H48   S    
O33   H55   S    
C3    H16   S    
C6    O36   S    
C53   H45   S    
O40   H59   S    
C5    H22   S    
C44   H36   S    
C48   H41   S    
C49   H47   S    
C4    H19   S    
C71   O39   D    
C40   C43   A    
C39   N2    S    
O22   P6    S    
O41   H60   S    
Ba1   O1    S    
C45   H2    S    
C27   C28   A    
C59   P7    S    
O16   P8    D    
C46   H37   S    
C10   O20   D    
C8    H28   S    
C50   P2    S    
C5    H23   S    
C60   C61   A    
Ba2   O9    S    
C27   H33   S    
Ba2   O12   S    
O25   P6    S    
C4    H17   S    
C45   H3    S    
C33   O19   D    
C6    H24   S    
O14   P7    D    
Ba2   O4    S    
C51   H44   S    
C46   C47   A    
C20   C44   A    
C14   C21   D    
C11   C13   S    
C41   C42   A    
C14   P4    S    
C29   C33   A    
C40   C41   A    
C66   H13   S    
C1    C2    S    
O4    P4    D    
C35   H31   S    
C50   C51   A    
C56   H6    S    
C42   C48   A    
C21   H42   S    
C52   C53   A    
C38   C39   S    
C1    H20   S    
O11   P5    S    
C24   C26   A    
C29   C30   A    
Ba1   O5    S    
C61   C62   A    
C56   O24   S    
C3    O15   S    
C44   C48   A    
C23   H21   S    
Ba2   O13   S    
C4    H18   S    
O15   P7    S    
C58   C62   A    
C30   C31   A    
O9    P5    S    
C61   P5    S    
C70   O37   D    
C34   O7    S    
C57   C63   A    
C1    H15   S    
C19   H30   S    
C2    O25   S    
C3    C4    S    
C8    H27   S    
C64   H7    S    
Ba2   O8    S    
C31   C32   A    
Ba1   P1    S    
C12   C23   S    
C35   C39   D    
C59   C60   A    
C34   H52   S    
C37   P1    S    
Ba2   O14   S    
C45   H4    S    
C50   C55   A    
C16   N1    S    
O24   P1    S    
C37   C38   D    
C65   O31   S    
C12   H38   S    
C2    H14   S    
C18   C19   A    
C24   C27   A    
Ba2   P4    S    
O38   H58   S    
C25   C26   A    
Ba1   O22   S    
C63   H49   S    
Ba1   O26   S    
C49   C58   A    
O13   P2    S    
Ba1   O13   S    
C1    H10   S    
C15   H29   S    
C7    H26   S    
O7    P4    S    
Ba1   O12   S    
C56   H5    S    
C71   O40   S    
Ba2   O6    S    
