data_mof_unit_60030.cif
_audit_creation_date              2012-12-10T18:21:53-0500
_audit_creation_method            fapswitch 2.2
_symmetry_space_group_name_H-M    P1
_symmetry_Int_Tables_number       1
_space_group_crystal_system       triclinic
_cell_length_a                    19.376551
_cell_length_b                    10.651595
_cell_length_c                    9.423071
_cell_angle_alpha                 89.534127
_cell_angle_beta                  90.177443
_cell_angle_gamma                 90.057347
_cell_volume                      1944.76414223

loop_
_atom_site_label
_atom_site_type_symbol
_atom_type_description
_atom_site_fract_x
_atom_site_fract_y
_atom_site_fract_z
_atom_type_partial_charge
C1    C     C_R   0.499957 0.259660 0.500576 0.915798
C2    C     C_R   0.500043 0.740340 0.499424 0.915798
C3    C     C_3   0.501232 0.038475 0.633928 0.634196
C4    C     C_3   0.498768 0.961525 0.366072 0.634196
C5    C     C_3   0.557995 0.957219 0.565654 -0.452655
C6    C     C_3   0.442005 0.042781 0.434346 -0.452649
C7    C     C_3   0.500424 0.876767 0.498396 -0.388258
C8    C     C_3   0.499576 0.123233 0.501604 -0.388258
C9    C     C_3   0.444564 0.957166 0.567589 0.609390
C10   C     C_3   0.555436 0.042834 0.432411 0.609384
C11   C     C_3   0.518248 0.608977 0.049794 -0.184357
C12   C     C_3   0.481752 0.391023 0.950206 -0.184358
C13   C     C_3   0.457962 0.581743 0.949362 0.821219
C14   C     C_3   0.542037 0.418257 0.050638 0.821224
C15   C     C_3   0.560994 0.525935 0.949598 -0.182774
C16   C     C_3   0.439006 0.474065 0.050402 -0.182777
C17   C     C_R   0.367515 0.500032 0.499903 0.875193
C18   C     C_R   0.632485 0.499968 0.500097 0.875185
C19   C     C_R   0.254761 0.462347 0.621799 0.600406
C20   C     C_R   0.745240 0.537635 0.378194 0.600416
C21   C     C_R   0.182866 0.462461 0.621381 -0.197343
C22   C     C_R   0.817134 0.537521 0.378612 -0.197346
C23   C     C_R   0.146064 0.500068 0.499846 -0.140894
C24   C     C_R   0.853937 0.499931 0.500153 -0.140896
C25   C     C_R   0.182529 0.537768 0.378310 -0.195888
C26   C     C_R   0.817471 0.462248 0.621695 -0.195888
C27   C     C_R   0.254436 0.537927 0.377871 0.576265
C28   C     C_R   0.745564 0.462088 0.622135 0.576265
C29   C     C_R   0.291434 0.500046 0.499780 -0.292285
C30   C     C_R   0.708567 0.499953 0.500220 -0.292290
C31   C     C_R   0.930000 0.499963 0.500083 0.493117
C32   C     C_R   0.070000 0.500035 0.499916 0.493116
Cu1   Cu    Cu3+1 0.500020 0.499990 0.643150 1.105404
Cu2   Cu    Cu3+1 0.499980 0.500010 0.356850 1.105404
N1    N     N_R   0.034122 0.535683 0.382452 -0.214180
N2    N     N_R   0.965879 0.464315 0.617548 -0.214180
N3    N     N_R   0.965497 0.535648 0.382536 -0.213646
N4    N     N_R   0.034503 0.464351 0.617463 -0.213646
N5    N     N_3   0.500050 0.499970 0.858290 -0.265026
N6    N     N_3   0.499950 0.500030 0.141710 -0.265025
O1    O     O_R   0.500030 0.316850 0.620870 -0.554492
O2    O     O_R   0.499970 0.683150 0.379130 -0.554493
O3    O     O_R   0.500000 0.316860 0.379090 -0.539176
O4    O     O_R   0.500000 0.683140 0.620910 -0.539176
O5    O     O_R   0.400160 0.499980 0.620930 -0.499288
O6    O     O_R   0.599840 0.500020 0.379070 -0.499286
O7    O     O_R   0.400130 0.499990 0.379150 -0.557817
O8    O     O_R   0.599870 0.500010 0.620850 -0.557813
F1    F     F_    0.288072 0.423212 0.741175 -0.603600
F2    F     F_    0.711928 0.576753 0.258810 -0.603591
H1    H     H_    0.612301 0.547152 0.903189 0.232394
H2    H     H_    0.387699 0.452848 0.096811 0.232382
H3    H     H_    0.156126 0.432602 0.716602 0.208324
H4    H     H_    0.843875 0.567365 0.283385 0.208325
H5    H     H_    0.155514 0.567743 0.283160 0.210269
H6    H     H_    0.844486 0.432286 0.716851 0.210269
F3    F     F_    0.287436 0.577586 0.258759 -0.609314
F4    F     F_    0.712565 0.422447 0.741255 -0.609320
H7    H     H_    0.605209 0.920923 0.618846 0.227356
H8    H     H_    0.394790 0.079077 0.381154 0.227357
F5    F     F_    0.501517 0.079388 0.772779 -0.568203
F6    F     F_    0.498483 0.920612 0.227221 -0.568203
F7    F     F_    0.387786 0.910245 0.639060 -0.552846
F8    F     F_    0.612214 0.089755 0.360940 -0.552848
F9    F     F_    0.413131 0.668819 0.890686 -0.541665
F10   F     F_    0.586869 0.331181 0.109314 -0.541661
H9    H     H_    0.533320 0.700546 0.095892 0.244378
H10   H     H_    0.466680 0.299454 0.904108 0.244380

loop_
_geom_bond_atom_site_label_1
_geom_bond_atom_site_label_2
_ccdc_geom_bond_type
C27   C29   A    
C1    C8    S    
Cu1   O5    S    
C2    C7    S    
Cu2   O2    S    
C6    C9    S    
C22   H4    S    
C20   C30   A    
C12   H10   S    
Cu1   N5    S    
Cu2   N6    S    
N1    N3    A    
C24   C26   A    
C4    F6    S    
C17   C29   S    
C20   F2    S    
C11   C15   S    
C1    O3    A    
C12   C16   S    
C17   O7    A    
C2    O4    A    
C18   C30   S    
C15   H1    S    
C9    F7    S    
C4    C7    S    
C18   O6    A    
C11   H9    S    
C3    F5    S    
C5    H7    S    
C32   N1    A    
C6    H8    S    
C4    C6    S    
C3    C8    S    
C27   F3    S    
C5    C7    S    
C6    C8    S    
C31   N3    A    
C26   H6    S    
C3    C9    S    
C19   F1    S    
Cu1   Cu2   S    
C14   F10   S    
C15   N5    S    
C16   N6    S    
Cu2   O6    S    
C1    O1    A    
C20   C22   A    
C32   N4    A    
C21   C23   A    
C22   C24   A    
C4    C10   S    
C19   C29   A    
C16   H2    S    
C7    C9    S    
C19   C21   A    
C14   C15   S    
Cu1   O4    S    
C10   F8    S    
Cu2   O3    S    
C25   H5    S    
C17   O5    A    
C3    C5    S    
C18   O8    A    
C28   F4    S    
C25   C27   A    
C26   C28   A    
Cu1   O1    S    
C23   C32   S    
C12   N5    S    
N2    N4    A    
C12   C14   S    
C24   C31   S    
C5    C10   S    
C21   H3    S    
C11   C13   S    
C2    O2    A    
C28   C30   A    
C23   C25   A    
C11   N6    S    
C13   F9    S    
C13   N5    S    
C14   N6    S    
C8    C10   S    
C13   C16   S    
Cu1   O8    S    
C31   N2    A    
Cu2   O7    S    
