data_mof_unit_27169.cif
_audit_creation_date              2012-12-10T17:32:17-0500
_audit_creation_method            fapswitch 2.2
_symmetry_space_group_name_H-M    P1
_symmetry_Int_Tables_number       1
_space_group_crystal_system       triclinic
_cell_length_a                    12.318042
_cell_length_b                    13.167839
_cell_length_c                    15.041074
_cell_angle_alpha                 77.555432
_cell_angle_beta                  101.713462
_cell_angle_gamma                 116.286436
_cell_volume                      2119.82619165

loop_
_atom_site_label
_atom_site_type_symbol
_atom_type_description
_atom_site_fract_x
_atom_site_fract_y
_atom_site_fract_z
_atom_type_partial_charge
C1    C     C_R   0.854678 0.286744 0.505577 0.776269
C2    C     C_R   0.106973 0.545634 0.102601 0.109538
C3    C     C_R   0.774626 0.393704 0.025415 -0.193662
C4    C     C_R   0.776000 0.399337 0.932231 -0.237206
C5    C     C_R   0.886843 0.450484 0.895596 0.118144
C6    C     C_R   0.997694 0.497975 0.952694 0.076377
C7    C     C_R   0.110021 0.546960 0.916376 0.114292
C8    C     C_R   0.219593 0.595688 0.973143 -0.215941
C9    C     C_R   0.218000 0.595921 0.065583 -0.197153
C10   C     C_R   0.888732 0.454040 0.802783 -0.245034
C11   C     C_R   0.000048 0.500477 0.767314 -0.060781
C12   C     C_R   0.000365 0.500590 0.670949 0.798493
C13   C     C_R   0.110484 0.545852 0.823906 -0.260820
C14   C     C_R   0.266132 0.032667 0.422551 -0.218632
C15   C     C_R   0.226603 0.836983 0.489111 -0.191396
C16   C     C_R   0.819377 0.082398 0.533457 -0.199347
C17   C     C_R   0.742957 0.966551 0.537338 -0.166671
C18   C     C_R   0.617298 0.930782 0.517050 -0.138376
C19   C     C_R   0.565218 0.010981 0.491191 0.105186
C20   C     C_R   0.644621 0.128075 0.471287 0.075924
C21   C     C_R   0.436727 0.978446 0.479586 0.028376
C22   C     C_R   0.390629 0.059681 0.433167 0.058616
C23   C     C_R   0.144819 0.713650 0.493559 0.815126
C24   C     C_R   0.469710 0.169621 0.400413 -0.210094
C25   C     C_R   0.594148 0.203296 0.419036 -0.205177
C26   C     C_R   0.353146 0.870159 0.516372 0.149047
C27   C     C_R   0.182299 0.922085 0.452145 0.239274
C28   C     C_R   0.771905 0.164747 0.501735 -0.108875
C29   C     C_R   0.347863 0.327367 0.645342 -0.305537
C30   C     C_R   0.755629 0.644978 0.374947 0.458804
C31   C     C_R   0.661205 0.681125 0.353975 -0.304882
C32   C     C_R   0.560898 0.627681 0.402177 -0.253434
C33   C     C_R   0.552806 0.536925 0.473443 0.000205
C34   C     C_R   0.997342 0.496023 0.329171 0.830885
C35   C     C_R   0.654221 0.506073 0.496574 0.227257
C36   C     C_R   0.448280 0.476516 0.522989 -0.021884
C37   C     C_R   0.448180 0.388077 0.595696 0.177570
C38   C     C_R   0.548145 0.360673 0.618619 -0.282725
C39   C     C_R   0.648522 0.418255 0.570432 -0.169931
C40   C     C_R   0.342501 0.498997 0.503334 0.002417
C41   C     C_R   0.247385 0.353996 0.622901 0.068138
C42   C     C_R   0.104909 0.545070 0.194964 -0.292402
C43   C     C_R   0.994376 0.491799 0.232521 -0.121450
C44   C     C_R   0.883722 0.434676 0.177715 0.193986
C45   C     C_R   0.884209 0.441281 0.083373 0.081271
C46   C     C_R   0.996229 0.495551 0.046227 0.003596
Cu1   Cu    Cu3+1 0.098270 0.475420 0.521130 0.930155
Cu2   Cu    Cu3+1 0.901730 0.524580 0.478870 0.937054
H1    H     H_    0.189589 0.586445 0.237962 0.151681
H2    H     H_    0.435319 0.231202 0.361708 0.147058
H3    H     H_    0.235842 0.099414 0.391784 0.155445
H4    H     H_    0.916118 0.107425 0.554556 0.157512
H5    H     H_    0.562890 0.840105 0.518102 0.140881
H6    H     H_    0.781105 0.903860 0.557993 0.147036
H7    H     H_    0.648161 0.287652 0.387141 0.182791
H8    H     H_    0.548876 0.293424 0.674627 0.144974
H9    H     H_    0.347152 0.259590 0.701167 0.136373
H10   H     H_    0.334002 0.563782 0.448570 0.122076
H11   H     H_    0.491073 0.659255 0.381915 0.142872
H12   H     H_    0.664806 0.750323 0.298867 0.151127
H13   H     H_    0.690375 0.362594 0.888961 0.145172
H14   H     H_    0.803818 0.417951 0.758582 0.138090
H15   H     H_    0.196269 0.581597 0.795603 0.146597
H16   H     H_    0.306335 0.633989 0.945958 0.141284
H17   H     H_    0.303613 0.634559 0.108311 0.140228
N1    N     N_R   0.246280 0.438190 0.553160 -0.181500
N2    N     N_R   0.754320 0.561190 0.447410 -0.225001
O1    O     O_R   0.972510 0.318130 0.526570 -0.582999
O2    O     O_R   0.806530 0.359650 0.490890 -0.614541
O3    O     O_R   0.082980 0.479210 0.647590 -0.580386
O4    O     O_R   0.917000 0.520730 0.611900 -0.604325
O5    O     O_R   0.193470 0.640350 0.509110 -0.593581
O6    O     O_R   0.027490 0.681870 0.473430 -0.554512
O7    O     O_R   0.083000 0.479270 0.388100 -0.585124
O8    O     O_R   0.917020 0.520790 0.352410 -0.561097
N3    N     N_2   0.394439 0.806389 0.593948 -0.429239
H18   H     H_    0.387736 0.728530 0.584708 0.271641
C47   C     C_3   0.359974 0.805824 0.680472 -0.660594
H19   H     H_    0.404884 0.762575 0.737000 0.216461
H20   H     H_    0.259566 0.759174 0.680282 0.208036
H21   H     H_    0.389884 0.894954 0.693178 0.234717
H22   H     H_    0.169768 0.307294 0.660988 0.126917
N4    N     N_2   0.774191 0.361284 0.217203 -0.457867
H23   H     H_    0.752490 0.392439 0.264765 0.262278
C48   C     C_3   0.758600 0.243749 0.243810 -0.711962
H24   H     H_    0.824368 0.236986 0.304873 0.222532
H25   H     H_    0.772727 0.211335 0.186683 0.241189
H26   H     H_    0.664285 0.189074 0.260334 0.236277
N5    N     N_2   0.853674 0.697273 0.320887 -0.368527
H27   H     H_    0.902151 0.783216 0.324972 0.265715
C49   C     C_3   0.820026 0.677221 0.226107 -0.695807
H28   H     H_    0.903906 0.705245 0.193581 0.233114
H29   H     H_    0.767541 0.726559 0.187485 0.200273
H30   H     H_    0.764173 0.584843 0.221706 0.236534
H31   H     H_    0.719700 0.390500 0.594053 0.204853
H32   H     H_    0.687150 0.352862 0.051561 0.181737
N6    N     N_2   0.056199 0.896638 0.451329 -0.414187
H33   H     H_    0.021148 0.850099 0.511419 0.264101
C50   C     C_3   0.009803 0.982166 0.410724 -0.751747
H34   H     H_    0.909441 0.943661 0.411499 0.229619
H35   H     H_    0.027842 0.012277 0.338102 0.237313
H36   H     H_    0.051549 0.055071 0.450753 0.233903

loop_
_geom_bond_atom_site_label_1
_geom_bond_atom_site_label_2
_ccdc_geom_bond_type
C16   C28   A    
C21   C26   A    
C19   C20   A    
Cu2   O2    S    
C44   N4    S    
C1    O1    A    
N6    H33   S    
C7    C8    A    
C45   C46   A    
C2    C46   A    
N4    H23   S    
C36   C37   A    
C19   C21   A    
N3    C47   S    
C14   H3    S    
C30   C31   A    
C47   H20   S    
C20   C25   A    
C33   C36   A    
C18   C19   A    
C18   H5    S    
C50   H34   S    
C8    C9    A    
C1    C28   S    
C26   N3    S    
C3    H32   S    
C14   C27   A    
N5    C49   S    
Cu1   N1    S    
C30   N2    A    
C34   O8    A    
C15   C23   S    
C40   N1    A    
C21   C22   A    
Cu2   O8    S    
C10   H14   S    
C23   O6    A    
C30   N5    S    
Cu2   O6    S    
N6    C50   S    
C48   H25   S    
C24   H2    S    
C38   C39   A    
C40   H10   S    
C25   H7    S    
C36   C40   A    
C24   C25   A    
C49   H28   S    
C47   H19   S    
C16   C17   A    
C15   C26   A    
C20   C28   A    
C48   H24   S    
C4    H13   S    
C3    C45   A    
C1    O2    A    
C31   H12   S    
C35   C39   A    
C43   C44   A    
Cu1   O3    S    
C37   C38   A    
C49   H29   S    
C15   C27   A    
Cu1   Cu2   S    
C13   H15   S    
C35   N2    A    
C17   C18   A    
N3    H18   S    
C39   H31   S    
C6    C7    A    
C8    H16   S    
N4    C48   S    
C12   O4    A    
C34   O7    A    
C22   C24   A    
C42   C43   A    
Cu2   O4    S    
C3    C4    A    
Cu1   O1    S    
C44   C45   A    
C48   H26   S    
C12   O3    A    
C27   N6    S    
C6    C46   A    
C29   C41   A    
C23   O5    A    
C31   C32   A    
C34   C43   S    
C16   H4    S    
Cu1   O7    S    
C29   H9    S    
C4    C5    A    
C11   C12   S    
C41   N1    A    
C32   C33   A    
C14   C22   A    
C5    C10   A    
C49   H30   S    
C11   C13   A    
C47   H21   S    
C5    C6    A    
C2    C42   A    
C41   H22   S    
C33   C35   A    
Cu2   N2    S    
C9    H17   S    
Cu1   O5    S    
C10   C11   A    
C42   H1    S    
C7    C13   A    
C50   H36   S    
C38   H8    S    
C29   C37   A    
C32   H11   S    
N5    H27   S    
C2    C9    A    
C17   H6    S    
C50   H35   S    
