data_mof_unit_49315.cif
_audit_creation_date              2012-12-10T17:37:51-0500
_audit_creation_method            fapswitch 2.2
_symmetry_space_group_name_H-M    P1
_symmetry_Int_Tables_number       1
_space_group_crystal_system       triclinic
_cell_length_a                    12.34432
_cell_length_b                    13.231082
_cell_length_c                    17.244991
_cell_angle_alpha                 104.955755
_cell_angle_beta                  74.767776
_cell_angle_gamma                 116.38239
_cell_volume                      2401.8422435

loop_
_atom_site_label
_atom_site_type_symbol
_atom_type_description
_atom_site_fract_x
_atom_site_fract_y
_atom_site_fract_z
_atom_type_partial_charge
C1    C     C_R   0.144928 0.713196 0.505321 0.799858
C2    C     C_R   0.893484 0.529545 0.798508 -0.172374
C3    C     C_R   0.927293 0.508288 0.157741 -0.070313
C4    C     C_R   0.922989 0.507214 0.238645 -0.188923
C5    C     C_R   0.111046 0.476088 0.201645 -0.179776
C6    C     C_R   0.115078 0.477133 0.120311 -0.125236
C7    C     C_R   0.025034 0.496378 0.098779 0.211917
C8    C     C_2   0.022351 0.584925 0.989452 -0.028963
C9    C     C_2   0.030393 0.499910 0.013917 -0.299308
C10   C     C_R   0.015689 0.492691 0.261485 -0.033800
C11   C     C_R   0.741268 0.966154 0.435380 -0.165496
C12   C     C_R   0.989506 0.506369 0.652492 0.836468
C13   C     C_R   0.775060 0.164889 0.479294 -0.059813
C14   C     C_R   0.180032 0.917096 0.545300 -0.201791
C15   C     C_R   0.255196 0.027761 0.574624 -0.169201
C16   C     C_R   0.381246 0.059966 0.567156 -0.013248
C17   C     C_R   0.436497 0.985708 0.514871 0.009966
C18   C     C_R   0.358190 0.872039 0.485354 0.079757
C19   C     C_R   0.565861 0.019034 0.490447 0.088027
C20   C     C_R   0.614166 0.935738 0.451711 0.157106
C21   C     C_R   0.535983 0.825786 0.423079 -0.222879
C22   C     C_R   0.411479 0.797862 0.433626 -0.175546
C23   C     C_R   0.856136 0.286536 0.488501 0.810555
C24   C     C_R   0.648309 0.133640 0.496060 -0.174504
C25   C     C_R   0.821529 0.080306 0.451330 -0.169869
C26   C     C_R   0.228734 0.835565 0.508519 -0.105082
C27   C     C_R   0.642227 0.680277 0.622352 -0.300992
C28   C     C_R   0.248110 0.350201 0.390961 0.006631
C29   C     C_R   0.344343 0.313489 0.368083 -0.075677
C30   C     C_R   0.444076 0.369327 0.410080 -0.236382
C31   C     C_R   0.448119 0.460634 0.474575 -0.010050
C32   C     C_R   0.346367 0.493099 0.495593 0.286746
C33   C     C_R   0.549089 0.521703 0.518855 -0.003202
C34   C     C_R   0.011750 0.495655 0.347573 0.785379
C35   C     C_R   0.544877 0.614065 0.581001 0.141685
C36   C     C_R   0.444140 0.642238 0.601626 -0.263673
C37   C     C_R   0.346644 0.582227 0.560509 -0.180649
C38   C     C_R   0.654948 0.497117 0.504429 0.007559
C39   C     C_R   0.745436 0.656285 0.604377 0.167413
C40   C     C_R   0.993498 0.523020 0.739088 -0.050207
C41   C     C_R   0.100621 0.538201 0.762680 -0.179633
C42   C     C_R   0.108482 0.560716 0.844394 -0.163944
C43   C     C_R   0.008831 0.566411 0.904219 0.044418
C44   C     C_R   0.898577 0.549339 0.881640 0.017501
Cu1   Cu    Cu3+1 0.900140 0.524980 0.518800 0.983708
Cu2   Cu    Cu3+1 0.099860 0.475020 0.481200 0.938533
H1    H     H_    0.179476 0.534488 0.718070 0.160526
H2    H     H_    0.189515 0.465440 0.074529 0.141021
H3    H     H_    0.919474 0.102703 0.437555 0.168227
H4    H     H_    0.572082 0.763570 0.387352 0.150564
H5    H     H_    0.778474 0.902217 0.407959 0.146628
H6    H     H_    0.614551 0.199737 0.509325 0.155128
H7    H     H_    0.082228 0.892983 0.557699 0.195881
H8    H     H_    0.212489 0.084952 0.610501 0.183077
H9    H     H_    0.440509 0.712094 0.650305 0.164980
H10   H     H_    0.638519 0.752680 0.668557 0.177572
H11   H     H_    0.664386 0.427261 0.458754 0.130788
H12   H     H_    0.170221 0.307914 0.359528 0.168302
H13   H     H_    0.517545 0.340520 0.391449 0.177760
H14   H     H_    0.273341 0.609375 0.581962 0.207211
H15   H     H_    0.033892 0.425499 0.969809 0.166525
H16   H     H_    0.855189 0.519764 0.141192 0.174098
H17   H     H_    0.810460 0.516682 0.779783 0.202259
H18   H     H_    0.192632 0.573030 0.861321 0.152297
N1    N     N_R   0.749710 0.562810 0.547300 -0.221530
N2    N     N_R   0.249640 0.437820 0.453210 -0.220384
O1    O     O_R   0.025490 0.682370 0.523640 -0.569759
O2    O     O_R   0.194150 0.640180 0.491890 -0.615569
O3    O     O_R   0.905900 0.523560 0.631310 -0.531145
O4    O     O_R   0.074570 0.481370 0.599560 -0.609214
O5    O     O_R   0.805850 0.359820 0.508110 -0.588717
O6    O     O_R   0.974510 0.317630 0.476360 -0.586642
O7    O     O_R   0.925430 0.518630 0.400440 -0.593910
O8    O     O_R   0.094100 0.476440 0.368690 -0.596055
C45   C     C_2   0.445094 0.162906 0.624095 0.810823
O9    O     O_2   0.517629 0.162202 0.660320 -0.574469
O10   O     O_R   0.419231 0.259521 0.638204 -0.766864
H19   H     H_    0.468516 0.324230 0.678030 0.343605
H20   H     H_    0.358943 0.717849 0.399072 0.180083
C46   C     C_2   0.848183 0.741451 0.646377 0.854010
O11   O     O_2   0.898427 0.712721 0.683466 -0.565974
O12   O     O_R   0.878026 0.857798 0.651245 -0.792227
H21   H     H_    0.943492 0.908849 0.685981 0.333936
H22   H     H_    0.847234 0.518358 0.283211 0.157684
C47   C     C_2   0.340608 0.216533 0.300680 0.852914
O13   O     O_2   0.254060 0.168510 0.263723 -0.600591
O14   O     O_R   0.436063 0.179450 0.279234 -0.761046
H23   H     H_    0.422790 0.112679 0.232596 0.347182
H24   H     H_    0.182813 0.463488 0.217685 0.161466
C48   C     C_2   0.786729 0.548303 0.941816 0.880389
O15   O     O_2   0.771957 0.531082 0.010913 -0.612608
O16   O     O_R   0.696052 0.564707 0.918561 -0.751609
H25   H     H_    0.624082 0.561447 0.964277 0.342720
C49   C     C_2   0.035150 0.697664 0.041527 0.897941
O17   O     O_2   0.004396 0.761308 0.020621 -0.569870
O18   O     O_R   0.087308 0.733809 0.111968 -0.756136
H26   H     H_    0.091697 0.812282 0.141041 0.346028

loop_
_geom_bond_atom_site_label_1
_geom_bond_atom_site_label_2
_ccdc_geom_bond_type
C24   H6    S    
O14   H23   S    
Cu1   O5    S    
C16   C45   S    
C41   C42   A    
C35   C36   A    
C18   C26   A    
C8    C43   S    
C12   O3    A    
C47   O13   D    
C6    H2    S    
C9    H15   S    
C36   C37   A    
C22   H20   S    
Cu2   N2    S    
C3    C7    A    
C30   C31   A    
C11   C25   A    
C15   C16   A    
C1    O2    A    
C13   C23   S    
Cu1   O7    S    
C17   C19   A    
C19   C20   A    
C2    C44   A    
C8    C9    D    
Cu1   O1    S    
C31   C33   A    
C29   C47   S    
O10   H19   S    
C21   C22   A    
O18   H26   S    
C39   N1    A    
C13   C25   A    
C21   H4    S    
C47   O14   S    
C11   C20   A    
Cu1   O3    S    
C15   H8    S    
C23   O5    A    
C8    C49   S    
C46   O12   S    
C27   C39   A    
C27   H10   S    
C16   C17   A    
C27   C35   A    
Cu1   Cu2   S    
C13   C24   A    
C12   C40   S    
C28   N2    A    
C45   O9    D    
Cu2   O2    S    
C29   C30   A    
C38   H11   S    
C48   O16   S    
C31   C32   A    
C4    H22   S    
C38   N1    A    
C30   H13   S    
C17   C18   A    
C41   H1    S    
C10   C34   S    
C32   C37   A    
C14   C26   A    
C49   O18   S    
C45   O10   S    
C34   O8    A    
C40   C41   A    
C43   C44   A    
Cu1   N1    S    
C1    C26   S    
C42   C43   A    
C4    C10   A    
C3    C4    A    
C42   H18   S    
Cu2   O8    S    
C44   C48   S    
C2    H17   S    
C32   N2    A    
C3    H16   S    
C7    C9    S    
C12   O4    A    
C28   C29   A    
C18   C22   A    
Cu2   O6    S    
C23   O6    A    
C46   O11   D    
C6    C7    A    
C1    O1    A    
C28   H12   S    
C33   C38   A    
C39   C46   S    
C19   C24   A    
C5    C10   A    
C36   H9    S    
C48   O15   D    
C5    C6    A    
O16   H25   S    
C33   C35   A    
C49   O17   D    
C25   H3    S    
Cu2   O4    S    
C37   H14   S    
C11   H5    S    
C34   O7    A    
C2    C40   A    
C14   H7    S    
C20   C21   A    
O12   H21   S    
C14   C15   A    
C5    H24   S    
