data_mof_unit_34622.cif
_audit_creation_date              2012-12-10T20:41:04-0500
_audit_creation_method            fapswitch 2.2
_symmetry_space_group_name_H-M    P1
_symmetry_Int_Tables_number       1
_space_group_crystal_system       triclinic
_cell_length_a                    27.439543
_cell_length_b                    10.64477
_cell_length_c                    9.907822
_cell_angle_alpha                 88.266126
_cell_angle_beta                  89.030769
_cell_angle_gamma                 90.223322
_cell_volume                      2892.18516253

loop_
_atom_site_label
_atom_site_type_symbol
_atom_type_description
_atom_site_fract_x
_atom_site_fract_y
_atom_site_fract_z
_atom_type_partial_charge
C1    C     C_R   0.504349 0.260388 0.501212 0.926175
C2    C     C_R   0.974330 0.331008 0.456894 0.018168
C3    C     C_R   0.976001 0.483554 0.640405 -0.066686
C4    C     C_R   0.406107 0.497636 0.501136 1.068833
C5    C     C_R   0.949854 0.414981 0.543890 0.017752
C6    C     C_R   0.947233 0.275933 0.354076 -0.268849
C7    C     C_R   0.896932 0.288582 0.346714 0.478276
C8    C     C_R   0.872368 0.370265 0.433330 -0.133877
C9    C     C_R   0.899011 0.434845 0.530505 -0.124629
C10   C     C_R   0.874853 0.521318 0.613004 -0.130065
C11   C     C_R   0.824410 0.535474 0.604054 0.671477
C12   C     C_R   0.286320 0.350512 0.596671 0.546488
C13   C     C_R   0.821927 0.391532 0.424509 0.644926
C14   C     C_R   0.718929 0.374136 0.548591 0.487342
C15   C     C_R   0.668183 0.378313 0.535088 0.298608
C16   C     C_R   0.501826 0.740149 0.497780 0.898365
C17   C     C_R   0.674524 0.601657 0.471490 0.254142
C18   C     C_R   0.725351 0.591493 0.467573 0.512216
C19   C     C_R   0.747312 0.478987 0.509682 -0.047379
C20   C     C_R   0.025540 0.313346 0.468125 -0.014537
C21   C     C_R   0.051372 0.386827 0.560781 -0.036405
C22   C     C_R   0.026404 0.461021 0.655973 -0.075892
C23   C     C_R   0.254440 0.425003 0.520877 -0.127757
C24   C     C_R   0.052790 0.224388 0.392261 0.447361
C25   C     C_R   0.103750 0.509780 0.759935 -0.219595
C26   C     C_R   0.951514 0.580954 0.708481 0.673037
C27   C     C_R   0.901554 0.595140 0.699113 -0.229950
C28   C     C_R   0.593792 0.500837 0.499213 1.044528
C29   C     C_R   0.053181 0.507266 0.765230 0.703192
C30   C     C_R   0.521737 0.058656 0.620190 -0.169588
C31   C     C_R   0.517178 0.130091 0.500823 -0.183574
C32   C     C_R   0.523307 0.070447 0.376395 -0.298800
C33   C     C_R   0.521301 0.940153 0.372982 0.631246
C34   C     C_R   0.102908 0.386121 0.558995 -0.066701
C35   C     C_R   0.511434 0.871598 0.493970 -0.279412
C36   C     C_R   0.513761 0.932915 0.614957 -0.138941
C37   C     C_3   0.485328 0.926140 0.745515 1.053945
C38   C     C_3   0.498286 0.065367 0.758809 0.152587
C39   C     C_R   0.457428 0.509888 0.073611 0.111808
C40   C     C_R   0.179367 0.329978 0.452137 0.669606
C41   C     C_R   0.542377 0.513472 0.069129 0.385900
C42   C     C_R   0.542016 0.514991 0.925450 0.535849
C43   C     C_R   0.457283 0.501657 0.932323 0.073909
C44   C     C_3   0.416150 0.407243 0.942674 0.313343
C45   C     C_R   0.128625 0.317161 0.462585 -0.109866
C46   C     C_3   0.414098 0.428512 0.094296 -0.531893
C47   C     C_R   0.179480 0.465386 0.639731 0.677688
C48   C     C_R   0.272304 0.522020 0.434576 0.558542
C49   C     C_R   0.322245 0.546126 0.426175 0.430202
C50   C     C_R   0.336021 0.374661 0.588811 0.396076
C51   C     C_3   0.660459 0.803741 0.539031 0.056295
C52   C     C_3   0.632269 0.773956 0.671428 -0.337010
C53   C     C_3   0.634340 0.884040 0.766326 -0.870588
C54   C     C_3   0.409684 0.948406 0.627544 -0.068556
C55   C     C_3   0.354720 0.934179 0.650811 -0.270784
C56   C     C_R   0.103406 0.234038 0.382865 -0.174801
C57   C     C_3   0.326565 0.983472 0.528722 -0.751573
C58   C     C_3   0.560654 0.186533 0.849240 0.176032
C59   C     C_3   0.595088 0.193577 0.969024 -0.379226
C60   C     C_3   0.643173 0.259168 0.929878 -0.822431
C61   C     C_3   0.609559 0.631545 0.120360 0.190086
C62   C     C_3   0.664379 0.611358 0.102327 -0.319348
C63   C     C_3   0.692620 0.735069 0.101417 -0.871264
C64   C     C_3   0.394754 0.194629 0.947162 0.130643
C65   C     C_3   0.414127 0.093191 0.045513 -0.394389
C66   C     C_3   0.375949 0.991522 0.077435 -0.798889
C67   C     C_R   0.128825 0.455560 0.652972 -0.137292
C68   C     C_3   0.651293 0.167740 0.491724 0.097272
C69   C     C_3   0.654520 0.190193 0.337369 -0.380406
C70   C     C_3   0.664496 0.067152 0.266528 -0.936236
C71   C     C_3   0.860600 0.103761 0.300323 0.124952
C72   C     C_3   0.828467 0.037784 0.199707 -0.337310
C73   C     C_3   0.812251 0.908539 0.254340 -0.832432
C74   C     C_3   0.020876 0.028623 0.428584 0.053052
C75   C     C_3   0.003331 0.911360 0.358060 -0.312710
C76   C     C_3   0.988878 0.806603 0.459720 -0.871816
C77   C     C_R   0.354018 0.473893 0.505609 -0.488339
C78   C     C_R   0.646445 0.493353 0.499314 -0.360228
F1    F     F_    0.366836 0.299430 0.659494 -0.665223
F2    F     F_    0.741143 0.270367 0.600891 -0.665034
F3    F     F_    0.339413 0.641612 0.344472 -0.621509
F4    F     F_    0.241101 0.594260 0.361478 -0.584970
F5    F     F_    0.975645 0.673453 0.771140 -0.623786
F6    F     F_    0.753436 0.689896 0.422937 -0.666781
F7    F     F_    0.031341 0.538797 0.883268 -0.597449
F8    F     F_    0.524190 0.884274 0.251714 -0.649304
F9    F     F_    0.268941 0.255750 0.678909 -0.614861
F10   F     F_    0.508051 0.848500 0.839843 -0.616041
F11   F     F_    0.584689 0.529567 0.856931 -0.690176
H1    H     H_    0.123161 0.552021 0.841519 0.226534
H2    H     H_    0.647498 0.894838 0.497635 0.158761
H3    H     H_    0.699896 0.816419 0.558889 0.206354
H4    H     H_    0.593650 0.753571 0.649213 0.269232
H5    H     H_    0.648134 0.689832 0.722861 0.252459
H6    H     H_    0.672692 0.905176 0.791900 0.251577
H7    H     H_    0.613444 0.860413 0.860565 0.302696
H8    H     H_    0.617919 0.968831 0.718466 0.268050
H9    H     H_    0.419285 0.894084 0.537282 0.167019
H10   H     H_    0.418081 0.049464 0.607482 0.155532
H11   H     H_    0.345566 0.833259 0.669741 0.239098
H12   H     H_    0.884165 0.668878 0.755331 0.215447
H13   H     H_    0.343238 0.986845 0.740856 0.237494
H14   H     H_    0.334849 0.084573 0.508379 0.274666
H15   H     H_    0.286824 0.972859 0.549093 0.287776
H16   H     H_    0.336351 0.929544 0.437956 0.268889
H17   H     H_    0.537356 0.271203 0.846362 0.170838
H18   H     H_    0.582717 0.183413 0.754519 0.196569
H19   H     H_    0.576818 0.244168 0.052193 0.219720
H20   H     H_    0.603515 0.097074 0.007587 0.260058
H21   H     H_    0.665438 0.197873 0.864457 0.278027
H22   H     H_    0.663987 0.279015 0.021966 0.259448
H23   H     H_    0.525460 0.123475 0.281382 0.195226
H24   H     H_    0.636730 0.349080 0.874287 0.320238
H25   H     H_    0.602412 0.683800 0.213928 0.216216
H26   H     H_    0.596626 0.691752 0.034134 0.158750
H27   H     H_    0.677764 0.548921 0.185531 0.233329
H28   H     H_    0.671419 0.564220 0.005347 0.249553
H29   H     H_    0.679930 0.799249 0.019245 0.252905
H30   H     H_    0.731936 0.715991 0.084347 0.281002
H31   H     H_    0.687942 0.781776 0.199380 0.307968
H32   H     H_    0.384299 0.149189 0.852750 0.216040
H33   H     H_    0.360766 0.235329 0.991153 0.155681
H34   H     H_    0.466964 0.129741 0.764278 0.147473
H35   H     H_    0.446879 0.048485 0.001508 0.291382
H36   H     H_    0.424960 0.135658 0.141389 0.219254
H37   H     H_    0.342905 0.033221 0.124025 0.262862
H38   H     H_    0.391079 0.920600 0.149633 0.291189
H39   H     H_    0.365783 0.943556 0.983967 0.278068
H40   H     H_    0.622037 0.097509 0.512305 0.154066
H41   H     H_    0.685063 0.124200 0.530844 0.211037
H42   H     H_    0.619801 0.231161 0.300620 0.240558
H43   H     H_    0.684643 0.256769 0.310326 0.238613
H44   H     H_    0.696947 0.019721 0.309745 0.274991
H45   H     H_    0.383264 0.438343 0.886646 0.151103
H46   H     H_    0.672047 0.086168 0.157628 0.273781
H47   H     H_    0.632406 0.003496 0.277275 0.281343
H48   H     H_    0.840073 0.108787 0.398261 0.164901
H49   H     H_    0.894239 0.047393 0.315970 0.116559
H50   H     H_    0.795638 0.095778 0.179235 0.261540
H51   H     H_    0.849058 0.027084 0.103179 0.237817
H52   H     H_    0.844399 0.848479 0.275811 0.273195
H53   H     H_    0.789675 0.862437 0.178234 0.274485
H54   H     H_    0.790089 0.917935 0.348351 0.294113
H55   H     H_    0.991515 0.060215 0.498623 0.151726
H56   H     H_    0.381641 0.483045 0.126159 0.226272
H57   H     H_    0.053827 0.003304 0.487877 0.165525
H58   H     H_    0.971424 0.935460 0.294937 0.225791
H59   H     H_    0.032915 0.877113 0.290722 0.256698
H60   H     H_    0.020520 0.779245 0.522458 0.288232
H61   H     H_    0.976471 0.722924 0.405247 0.266289
H62   H     H_    0.958594 0.837919 0.526337 0.272668
H63   H     H_    0.421938 0.345387 0.160299 0.217215
H64   H     H_    0.122960 0.171456 0.317011 0.215895
H65   H     H_    0.963856 0.225164 0.273532 0.235876
N1    N     N_R   0.203252 0.406508 0.537447 -0.286243
N2    N     N_R   0.799164 0.469645 0.512054 -0.291135
N3    N     N_R   0.499670 0.499140 0.142800 -0.159626
N4    N     N_R   0.499670 0.499180 0.857150 -0.164302
O1    O     O_R   0.500010 0.316790 0.614690 -0.617911
O2    O     O_R   0.571250 0.500000 0.614690 -0.563925
O3    O     O_R   0.571240 0.499960 0.385340 -0.588110
O4    O     O_2   0.204616 0.267632 0.357367 -0.535757
O5    O     O_3   0.651444 0.713923 0.439776 -0.641848
O6    O     O_3   0.434226 0.899028 0.742233 -0.665787
O7    O     O_3   0.531753 0.077275 0.865419 -0.598900
O8    O     O_3   0.586483 0.512425 0.133675 -0.626730
O9    O     O_3   0.432018 0.284349 0.914956 -0.618368
O10   O     O_3   0.638115 0.275478 0.564531 -0.648802
O11   O     O_3   0.872637 0.225171 0.248203 -0.585039
O12   O     O_2   0.795514 0.335562 0.329428 -0.528944
O13   O     O_3   0.031792 0.123708 0.329934 -0.653625
O14   O     O_2   0.204797 0.534498 0.726792 -0.530517
O15   O     O_2   0.800594 0.613276 0.687471 -0.550122
O16   O     O_R   0.500000 0.316760 0.385350 -0.641391
O17   O     O_R   0.428760 0.500040 0.614660 -0.587097
O18   O     O_R   0.428750 0.500000 0.385310 -0.599823
O19   O     O_R   0.500000 0.683240 0.614650 -0.587346
O20   O     O_R   0.499990 0.683210 0.385310 -0.555272
Zn1   Zn    Zn3+2 0.500000 0.500020 0.653130 1.049763
Zn2   Zn    Zn3+2 0.500000 0.499980 0.346870 1.018428

loop_
_geom_bond_atom_site_label_1
_geom_bond_atom_site_label_2
_ccdc_geom_bond_type
C10   C27   A    
C38   O7    S    
C46   H63   S    
C75   C76   S    
C8    C13   A    
C22   C29   A    
C23   N1    S    
C53   H6    S    
C41   C42   A    
C37   F10   S    
C57   H16   S    
C35   C36   A    
C25   C67   A    
C28   O2    A    
N4    Zn1   S    
C43   N4    A    
C50   F1    S    
C47   O14   S    
C7    C8    A    
C71   H48   S    
C73   H52   S    
C16   O19   A    
C62   H27   S    
C12   C23   A    
C25   H1    S    
C26   F5    S    
C36   C37   S    
C61   O8    S    
C64   O9    S    
C16   C35   S    
C30   C31   A    
C33   C35   A    
C46   H56   S    
C64   H32   S    
C1    C31   S    
C66   H38   S    
C30   C38   S    
C18   C19   A    
C65   H35   S    
C49   F3    S    
C58   O7    S    
C24   O13   S    
C62   H28   S    
C17   O5    S    
C51   H2    S    
C68   H40   S    
C72   H50   S    
C20   C24   A    
C45   C56   A    
C66   H39   S    
C8    C9    A    
O19   Zn1   S    
C4    O17   A    
C55   H11   S    
C61   H26   S    
C70   H44   S    
C18   F6    S    
C71   O11   S    
C40   N1    A    
C52   H5    S    
C14   F2    S    
C28   C78   S    
C9    C10   A    
C13   N2    A    
C29   F7    S    
C38   H34   S    
C72   C73   S    
C61   C62   S    
C59   C60   S    
C21   C22   A    
C39   N3    A    
C53   H7    S    
C70   H47   S    
C19   N2    S    
C60   H24   S    
C2    C6    A    
C47   C67   A    
C44   C46   S    
C28   O3    A    
C71   H49   S    
C73   H53   S    
C25   C29   A    
C40   C45   A    
C57   H14   S    
C1    O16   A    
C11   O15   S    
C74   C75   S    
C2    C20   A    
C51   C52   S    
C1    O1    A    
C63   H29   S    
C68   C69   S    
C39   C43   A    
C21   C34   A    
C76   H62   S    
C75   H58   S    
C58   C59   S    
C27   H12   S    
C66   H37   S    
C58   H17   S    
C44   O9    S    
C65   H36   S    
C68   H41   S    
C33   F8    S    
O2    Zn1   S    
C40   O4    S    
C37   C38   S    
C51   H3    S    
C63   H30   S    
O20   Zn2   S    
C31   C32   A    
C55   H13   S    
C76   H61   S    
C69   H42   S    
C41   O8    S    
C62   C63   S    
C17   C18   A    
C26   C27   A    
C52   H4    S    
C34   C45   A    
O3    Zn2   S    
C51   O5    S    
C44   H45   S    
C74   O13   S    
C6    H65   S    
C11   N2    A    
C37   O6    S    
C41   N3    A    
C68   O10   S    
C48   C49   A    
C16   O20   A    
C55   C57   S    
C43   C44   S    
O17   Zn1   S    
C70   H46   S    
C15   O10   S    
C2    C5    A    
C72   H51   S    
C50   C77   A    
O16   Zn2   S    
C58   H18   S    
C52   C53   S    
C48   F4    S    
C73   H54   S    
C57   H15   S    
C74   H55   S    
C54   C55   S    
C42   N4    A    
C23   C48   A    
C32   H23   S    
C12   F9    S    
C14   C19   A    
C74   H57   S    
C3    C26   A    
O1    Zn1   S    
C56   H64   S    
C3    C5    A    
C34   C67   A    
C12   C50   A    
C13   O12   S    
C6    C7    A    
C75   H59   S    
C24   C56   A    
C59   H19   S    
C30   C36   A    
C42   F11   S    
C53   H8    S    
C64   C65   S    
C7    O11   S    
C4    C77   S    
C60   H22   S    
C32   C33   A    
C63   H31   S    
C47   N1    A    
C76   H60   S    
C69   H43   S    
C64   H33   S    
C17   C78   A    
C59   H20   S    
C49   C77   A    
C39   C46   S    
C69   C70   S    
C54   H10   S    
C60   H21   S    
C10   C11   A    
C15   C78   A    
O18   Zn2   S    
C71   C72   S    
C20   C21   A    
C65   C66   S    
C4    O18   A    
C61   H25   S    
C14   C15   A    
C54   H9    S    
C3    C22   A    
C5    C9    A    
C54   O6    S    
N3    Zn2   S    
