data_mof_unit_40974.cif
_audit_creation_date              2012-12-11T17:25:09-0500
_audit_creation_method            fapswitch 2.2
_symmetry_space_group_name_H-M    P1
_symmetry_Int_Tables_number       1
_space_group_crystal_system       triclinic
_cell_length_a                    6.951052
_cell_length_b                    20.561336
_cell_length_c                    24.432534
_cell_angle_alpha                 90.202079
_cell_angle_beta                  90.704729
_cell_angle_gamma                 89.782452
_cell_volume                      3491.65853939

loop_
_atom_site_label
_atom_site_type_symbol
_atom_type_description
_atom_site_fract_x
_atom_site_fract_y
_atom_site_fract_z
_atom_type_partial_charge
O1    O     O_R   0.507280 0.423750 0.460310 -0.534371
O2    O     O_R   0.171030 0.555650 0.437630 -0.536205
O3    O     O_R   0.004080 0.576250 0.539690 -0.537067
C1    C     C_R   0.339082 0.575609 0.421712 0.725511
O4    O     O_R   0.177330 0.422980 0.453960 -0.536170
O5    O     O_R   0.010420 0.442640 0.556140 -0.535290
C2    C     C_R   0.345241 0.399003 0.443186 0.708701
O6    O     O_R   0.500930 0.557360 0.443860 -0.534913
O7    O     O_3   0.340310 0.506600 0.533500 -0.368738
V1    V     V_3+5 0.064140 0.498780 0.493780 1.436145
O8    O     O_R   0.680890 0.444350 0.562370 -0.538221
C3    C     C_R   0.850556 0.424403 0.578100 0.727978
O9    O     O_R   0.674590 0.577020 0.546040 -0.538325
C4    C     C_R   0.843363 0.600961 0.556649 0.690144
V2    V     V_3+5 0.564550 0.501220 0.506220 1.430480
O10   O     O_3   0.838250 0.493400 0.466500 -0.364512
C5    C     C_R   0.973065 0.836915 0.912730 -0.066859
C6    C     C_R   0.850865 0.661840 0.588564 -0.039436
C7    C     C_R   0.012268 0.720032 0.907181 -0.190196
C8    C     C_R   0.011085 0.777008 0.938671 0.131434
C9    C     C_R   0.937349 0.838676 0.855968 -0.255248
C10   C     C_R   0.940791 0.781181 0.823302 0.100585
C11   C     C_R   0.978521 0.721638 0.850461 0.109642
C12   C     C_R   0.909516 0.780538 0.764887 0.035556
C13   C     C_R   0.915494 0.720370 0.735163 0.053084
C14   C     C_R   0.952958 0.662717 0.764809 -0.174762
C15   C     C_R   0.983589 0.663568 0.820995 -0.192496
C16   C     C_R   0.873698 0.838161 0.735429 -0.224247
C17   C     C_R   0.842577 0.838587 0.678780 0.120340
C18   C     C_R   0.846594 0.779349 0.649046 0.108273
C19   C     C_R   0.883815 0.719643 0.676913 0.054071
C20   C     C_R   0.812521 0.778386 0.591858 -0.162236
C21   C     C_R   0.813650 0.720494 0.562341 -0.173811
C22   C     C_R   0.886334 0.661226 0.645176 -0.198588
H1    H     H_    0.012292 0.617900 0.841670 0.122206
H2    H     H_    0.912355 0.614135 0.662904 0.089700
H3    H     H_    0.784787 0.721480 0.518659 0.108293
H4    H     H_    0.040376 0.673856 0.927131 0.116382
H5    H     H_    0.910094 0.886042 0.838865 0.102577
H6    H     H_    0.960461 0.615449 0.745975 0.119504
H7    H     H_    0.870595 0.884690 0.755588 0.123455
H8    H     H_    0.783327 0.822126 0.568877 0.130183
C23   C     C_R   0.774023 0.299044 0.750478 -0.231700
H9    H     H_    0.667859 0.337796 0.751279 0.127112
C24   C     C_R   0.895411 0.293467 0.705224 0.083709
C25   C     C_R   0.033867 0.242825 0.704056 0.153892
C26   C     C_R   0.045971 0.198700 0.748048 -0.239028
H10   H     H_    0.150987 0.159601 0.747048 0.129639
C27   C     C_R   0.925416 0.204514 0.793446 0.084806
C28   C     C_R   0.787634 0.255330 0.794742 0.153063
C29   C     C_1   0.876729 0.340404 0.660769 -0.041884
C30   C     C_1   0.946333 0.158344 0.838385 -0.040413
C31   C     C_1   0.960872 0.120301 0.876178 -0.200191
C32   C     C_1   0.863135 0.379015 0.623354 -0.195923
H11   H     H_    0.699099 0.704083 0.297538 0.114316
C33   C     C_R   0.596865 0.767719 0.233510 -0.149740
H12   H     H_    0.740760 0.781726 0.221906 0.110803
C34   C     C_R   0.436217 0.793755 0.205713 0.135088
C35   C     C_R   0.251401 0.774496 0.221716 -0.149920
H13   H     H_    0.125335 0.793829 0.200845 0.112393
C36   C     C_R   0.227563 0.730166 0.264870 -0.146815
H14   H     H_    0.083657 0.716207 0.276497 0.113219
C37   C     C_R   0.388202 0.704251 0.292767 0.135941
C38   C     C_R   0.573026 0.723382 0.276656 -0.143124
C39   C     C_1   0.459996 0.840010 0.161004 -0.052806
C40   C     C_1   0.364408 0.658566 0.337913 -0.047410
C41   C     C_1   0.349029 0.620635 0.375864 -0.183378
C42   C     C_1   0.475359 0.878540 0.123503 -0.190333
C43   C     C_R   0.480681 0.162806 0.088521 -0.080347
C44   C     C_R   0.346044 0.338288 0.410649 -0.068019
C45   C     C_R   0.626800 0.269421 0.101909 0.166897
C46   C     C_R   0.596583 0.213266 0.070402 -0.185788
C47   C     C_R   0.400742 0.166764 0.140810 -0.219165
C48   C     C_R   0.430497 0.222348 0.174987 0.041007
C49   C     C_R   0.525114 0.277245 0.152115 0.049306
C50   C     C_R   0.376132 0.224278 0.231642 0.071122
C51   C     C_R   0.406758 0.281905 0.263557 0.048123
C52   C     C_R   0.467487 0.338084 0.236152 -0.238470
C53   C     C_R   0.519610 0.336953 0.181159 -0.036727
C54   C     C_R   0.296989 0.169863 0.257878 -0.185212
C55   C     C_R   0.253685 0.170863 0.313153 -0.161545
C56   C     C_R   0.291448 0.225512 0.346032 0.063744
C57   C     C_R   0.366911 0.282521 0.321315 0.090603
C58   C     C_R   0.248304 0.225205 0.402826 0.007007
C59   C     C_R   0.270463 0.282202 0.433673 -0.200333
C60   C     C_R   0.398370 0.338075 0.355396 -0.206676
H15   H     H_    0.458453 0.382618 0.340230 0.107572
H16   H     H_    0.230612 0.282785 0.476478 0.128639
H17   H     H_    0.187683 0.127766 0.329587 0.160607
H18   H     H_    0.672084 0.207029 0.032135 0.106519
H19   H     H_    0.322088 0.124781 0.154078 0.108997
H20   H     H_    0.466293 0.384957 0.255945 0.151801
H21   H     H_    0.267042 0.124848 0.236926 0.123550
O11   O     O_R   0.323320 0.942780 0.056240 -0.535177
O12   O     O_R   0.647300 0.077050 0.046060 -0.538071
O13   O     O_R   0.813840 0.057330 0.943840 -0.534747
C61   C     C_R   0.479605 0.101354 0.056677 0.708608
O14   O     O_R   0.653250 0.944380 0.062400 -0.537112
O15   O     O_R   0.819830 0.923720 0.960300 -0.537630
C62   C     C_R   0.485224 0.924216 0.078148 0.718240
O16   O     O_R   0.317330 0.076390 0.039790 -0.536229
O17   O     O_3   0.483830 0.993470 0.966560 -0.366568
V3    V     V_3+5 0.760140 0.001210 0.006210 1.417390
O18   O     O_R   0.149290 0.922840 0.953850 -0.542554
C63   C     C_R   0.980576 0.898501 0.943919 0.708203
O19   O     O_R   0.143340 0.055500 0.937510 -0.536898
C64   C     C_R   0.973668 0.075407 0.921764 0.725404
V4    V     V_3+5 0.259690 0.998600 0.993650 1.415764
O20   O     O_3   0.986130 0.006520 0.033440 -0.365082
C65   C     C_3   0.654206 0.264039 0.842713 -0.362719
C66   C     C_3   0.486319 0.216561 0.839220 -0.731246
H22   H     H_    0.404122 0.224482 0.800584 0.227289
H23   H     H_    0.538385 0.165471 0.840555 0.230070
H24   H     H_    0.388701 0.224761 0.874229 0.216325
H25   H     H_    0.734389 0.257143 0.881907 0.177950
H26   H     H_    0.595023 0.314345 0.843508 0.174983
C67   C     C_3   0.171844 0.235384 0.656992 -0.390225
C68   C     C_3   0.074703 0.202972 0.607679 -0.669333
H27   H     H_    0.020850 0.154094 0.619024 0.224754
H28   H     H_    0.952687 0.232968 0.592224 0.233673
H29   H     H_    0.180563 0.197246 0.574322 0.231377
H30   H     H_    0.229065 0.283647 0.645112 0.185097
H31   H     H_    0.298046 0.205273 0.669504 0.181170
C69   C     C_2   0.537979 0.400641 0.153682 0.749734
O21   O     O_2   0.630422 0.444373 0.175428 -0.554202
O22   O     O_R   0.441752 0.411475 0.103914 -0.676819
H32   H     H_    0.462709 0.457012 0.089430 0.294451
C70   C     C_3   0.793880 0.312579 0.085002 -0.371895
C71   C     C_3   0.959080 0.309955 0.126898 -0.700933
H33   H     H_    0.914780 0.330765 0.166769 0.235630
H34   H     H_    0.007084 0.258870 0.133091 0.226744
H35   H     H_    0.082667 0.338519 0.111763 0.245016
H36   H     H_    0.853509 0.296020 0.045264 0.171852
H37   H     H_    0.750050 0.363363 0.077352 0.206192
C72   C     C_2   0.180499 0.166421 0.431839 0.733500
O23   O     O_2   0.047351 0.170775 0.463932 -0.561413
O24   O     O_R   0.273954 0.106752 0.424422 -0.663998
H38   H     H_    0.215792 0.070701 0.447004 0.298272
C73   C     C_3   0.806222 0.904090 0.651765 -0.361430
C74   C     C_3   0.987267 0.929189 0.624150 -0.739596
H39   H     H_    0.037271 0.894900 0.592127 0.225851
H40   H     H_    0.956177 0.976893 0.604733 0.221991
H41   H     H_    0.104257 0.935790 0.655036 0.226930
H42   H     H_    0.684077 0.901425 0.622182 0.173829
H43   H     H_    0.761670 0.941017 0.682519 0.177605
C75   C     C_3   0.050656 0.772412 0.999671 -0.376679
C76   C     C_3   0.863966 0.773600 0.031920 -0.731479
H44   H     H_    0.783498 0.819457 0.024550 0.227699
H45   H     H_    0.771843 0.731817 0.019793 0.226568
H46   H     H_    0.897354 0.770009 0.076370 0.216077
H47   H     H_    0.128731 0.726520 0.009450 0.181892
H48   H     H_    0.145719 0.812646 0.013593 0.178819

loop_
_geom_bond_atom_site_label_1
_geom_bond_atom_site_label_2
_ccdc_geom_bond_type
C13   C19   A    
O15   V3    S    
C58   C72   S    
O22   H32   S    
C47   C48   A    
C4    C6    S    
C7    C11   A    
C66   H22   S    
C74   H41   S    
C1    O6    A    
C70   C71   S    
C2    C44   S    
C55   C56   A    
C72   O23   D    
C26   C27   A    
C24   C25   A    
V4    O20   S    
O11   V4    S    
C14   C15   A    
C48   C50   A    
C9    C10   A    
C16   C17   A    
C76   H45   S    
C74   H40   S    
C75   C76   S    
C70   H37   S    
O5    C3    A    
C18   C19   A    
O19   C64   A    
C24   C29   S    
V2    O10   S    
C16   H7    S    
C28   C65   S    
C5    C8    A    
C33   H12   S    
C36   C37   A    
C68   H27   S    
C76   H44   S    
C65   C66   S    
O8    V2    S    
C58   C59   A    
C7    C8    A    
C33   C38   A    
C43   C47   A    
O1    V2    S    
C11   C15   A    
C18   C20   A    
O7    V1    S    
C22   H2    S    
C71   H35   S    
C55   H17   S    
C39   C42   T    
O16   V4    S    
C40   C41   T    
C67   H31   S    
C37   C40   S    
C35   H13   S    
O1    C2    A    
O9    C4    A    
C36   H14   S    
O15   C63   A    
O18   C63   A    
O12   V3    S    
C74   H39   S    
C17   C73   S    
C35   C36   A    
C48   C49   A    
C50   C54   A    
C76   H46   S    
C12   C13   A    
C47   H19   S    
O4    C2    A    
C52   C53   A    
C15   H1    S    
C34   C35   A    
C51   C52   A    
C51   C57   A    
C5    C9    A    
C75   H47   S    
C25   C67   S    
C68   H29   S    
C43   C46   A    
O2    C1    A    
C67   H30   S    
C42   C62   S    
C17   C18   A    
C7    H4    S    
C5    C63   S    
C46   H18   S    
C73   H42   S    
C31   C64   S    
C34   C39   S    
C26   H10   S    
C9    H5    S    
O11   C62   A    
O8    C3    A    
C27   C30   S    
H11   C38   S    
C19   C22   A    
C66   H23   S    
C50   C51   A    
O17   V4    S    
C6    C22   A    
O3    C4    A    
C75   H48   S    
O13   C64   A    
C56   C57   A    
O6    V2    S    
O14   C62   A    
O9    V2    S    
C23   H9    S    
C10   C12   A    
C45   C70   S    
C3    C32   S    
C44   C60   A    
C65   H26   S    
O18   V4    S    
C30   C31   T    
C69   O22   S    
C71   H33   S    
C53   C69   S    
C59   H16   S    
C72   O24   S    
C25   C26   A    
C73   H43   S    
C60   H15   S    
C12   C16   A    
C54   C55   A    
O5    V1    S    
C1    C41   S    
C73   C74   S    
O12   C61   A    
C23   C28   A    
O24   H38   S    
C56   C58   A    
V3    O20   S    
C29   C32   T    
C52   H20   S    
C20   C21   A    
C13   C14   A    
C45   C46   A    
C23   C24   A    
O3    V1    S    
V1    O10   S    
C70   H36   S    
C45   C49   A    
C14   H6    S    
O19   V4    S    
C33   C34   A    
C21   H3    S    
C66   H24   S    
C8    C75   S    
O7    V2    S    
O17   V3    S    
C6    C21   A    
C68   H28   S    
C37   C38   A    
O4    V1    S    
C57   C60   A    
C27   C28   A    
O13   V3    S    
C20   H8    S    
C10   C11   A    
C54   H21   S    
C67   C68   S    
C44   C59   A    
C49   C53   A    
C65   H25   S    
C61   O16   A    
O14   V3    S    
C43   C61   S    
C69   O21   D    
C71   H34   S    
O2    V1    S    
