data_mof_unit_55145.cif
_audit_creation_date              2012-12-10T17:27:04-0500
_audit_creation_method            fapswitch 2.2
_symmetry_space_group_name_H-M    P1
_symmetry_Int_Tables_number       1
_space_group_crystal_system       triclinic
_cell_length_a                    18.319128
_cell_length_b                    18.487159
_cell_length_c                    11.988769
_cell_angle_alpha                 90.004145
_cell_angle_beta                  87.886602
_cell_angle_gamma                 89.998772
_cell_volume                      4057.45821483

loop_
_atom_site_label
_atom_site_type_symbol
_atom_type_description
_atom_site_fract_x
_atom_site_fract_y
_atom_site_fract_z
_atom_type_partial_charge
C1    C     C_R   0.401528 0.101632 0.520053 1.027573
C2    C     C_R   0.534789 0.998209 0.022672 0.011447
C3    C     C_R   0.965211 0.498194 0.977328 0.011428
C4    C     C_R   0.034789 0.498216 0.022672 0.011436
C5    C     C_R   0.586519 0.010092 0.833810 0.726061
C6    C     C_R   0.413473 0.010042 0.166194 0.726229
C7    C     C_R   0.086522 0.510076 0.833807 0.726218
C8    C     C_R   0.913471 0.510028 0.166197 0.726399
C9    C     C_R   0.595746 0.004658 0.950130 -0.343709
C10   C     C_R   0.404250 0.004599 0.049873 -0.343661
C11   C     C_R   0.095747 0.504653 0.950128 -0.343669
C12   C     C_R   0.602057 0.901239 0.478614 0.933079
C13   C     C_R   0.904249 0.504597 0.049874 -0.343629
C14   C     C_R   0.458695 0.995989 0.860068 -0.032203
C15   C     C_R   0.541307 0.996023 0.139932 -0.032247
C16   C     C_R   0.958695 0.495999 0.860068 -0.032134
C17   C     C_R   0.041308 0.496031 0.139931 -0.032204
C18   C     C_R   0.652394 0.158253 0.469634 -0.223578
C19   C     C_R   0.338188 0.849153 0.535784 -0.247606
C20   C     C_R   0.347666 0.158321 0.530380 -0.223691
C21   C     C_R   0.661836 0.849182 0.464191 -0.247998
C22   C     C_R   0.152345 0.658308 0.469623 -0.223520
C23   C     C_R   0.598483 0.101617 0.479951 1.027705
C24   C     C_R   0.838202 0.349135 0.535768 -0.247079
C25   C     C_R   0.847720 0.658383 0.530393 -0.223654
C26   C     C_R   0.161814 0.349155 0.464208 -0.247662
C27   C     C_R   0.257934 0.775042 0.653276 -0.193657
C28   C     C_R   0.744594 0.221024 0.359079 -0.177999
C29   C     C_R   0.742023 0.774976 0.346717 -0.193784
C30   C     C_R   0.255616 0.221274 0.640999 -0.178125
C31   C     C_R   0.757894 0.275089 0.653272 -0.193539
C32   C     C_R   0.244410 0.721231 0.359006 -0.178142
C33   C     C_R   0.242060 0.275023 0.346718 -0.193664
C34   C     C_R   0.397945 0.901235 0.521378 0.933254
C35   C     C_R   0.755822 0.721507 0.641082 -0.178288
C36   C     C_R   0.316690 0.823113 0.643416 0.411102
C37   C     C_R   0.693888 0.165397 0.368562 0.381659
C38   C     C_R   0.683252 0.823034 0.356583 0.411164
C39   C     C_R   0.306273 0.165601 0.631528 0.381638
C40   C     C_R   0.816638 0.323173 0.643418 0.410990
C41   C     C_R   0.193749 0.665563 0.368482 0.381691
C42   C     C_R   0.183303 0.323095 0.356578 0.411100
C43   C     C_R   0.806428 0.665785 0.631617 0.381690
C44   C     C_R   0.301830 0.824144 0.441705 0.303541
C45   C     C_R   0.901537 0.601644 0.520055 1.027440
C46   C     C_R   0.665726 0.203244 0.562299 0.381109
C47   C     C_R   0.698303 0.824308 0.558241 0.303384
C48   C     C_R   0.334290 0.203251 0.437669 0.381103
C49   C     C_R   0.801932 0.324023 0.441665 0.303842
C50   C     C_R   0.165714 0.703254 0.562323 0.381029
C51   C     C_R   0.198185 0.324168 0.558286 0.303516
C52   C     C_R   0.834307 0.703265 0.437645 0.381009
C53   C     C_R   0.259922 0.762474 0.452458 -0.056273
C54   C     C_R   0.728288 0.245792 0.557415 -0.067534
C55   C     C_R   0.740223 0.762640 0.547563 -0.056015
C56   C     C_R   0.102055 0.401235 0.478619 0.933140
C57   C     C_R   0.271745 0.245823 0.442582 -0.067514
C58   C     C_R   0.760034 0.262349 0.452477 -0.056600
C59   C     C_R   0.228260 0.745823 0.557413 -0.067523
C60   C     C_R   0.240093 0.262496 0.547539 -0.056268
C61   C     C_R   0.771781 0.745862 0.442585 -0.067505
C62   C     C_R   0.098474 0.601629 0.479950 1.027516
C63   C     C_R   0.897945 0.401234 0.521374 0.933432
C64   C     C_R   0.465211 0.998186 0.977328 0.011442
H1    H     H_    0.594703 0.993715 0.175602 0.196119
H2    H     H_    0.773321 0.231063 0.279900 0.188353
H3    H     H_    0.762113 0.758129 0.264693 0.200724
H4    H     H_    0.226967 0.231411 0.720216 0.188391
H5    H     H_    0.649673 0.009287 0.983726 0.165643
H6    H     H_    0.350319 0.009188 0.016279 0.165633
H7    H     H_    0.149675 0.509272 0.983723 0.165617
H8    H     H_    0.850317 0.509179 0.016280 0.165606
H9    H     H_    0.311937 0.036993 0.192546 0.349047
H10   H     H_    0.688036 0.037117 0.807469 0.349094
H11   H     H_    0.811925 0.536937 0.192559 0.348965
H12   H     H_    0.405301 0.993649 0.824397 0.196173
H13   H     H_    0.188048 0.537056 0.807454 0.349033
H14   H     H_    0.479778 0.218104 0.687152 0.397440
H15   H     H_    0.231906 0.964207 0.442689 0.353155
H16   H     H_    0.520183 0.218026 0.312597 0.397402
H17   H     H_    0.767672 0.964463 0.556451 0.352776
H18   H     H_    0.979803 0.718086 0.687293 0.397482
H19   H     H_    0.731398 0.464063 0.441694 0.353627
H20   H     H_    0.020155 0.717969 0.312410 0.397441
H21   H     H_    0.268019 0.464239 0.557189 0.353052
H22   H     H_    0.716550 0.132267 0.216504 0.343815
H23   H     H_    0.094703 0.493727 0.175602 0.196148
H24   H     H_    0.328209 0.824051 0.804712 0.344680
H25   H     H_    0.283734 0.132650 0.783709 0.343818
H26   H     H_    0.671581 0.823782 0.195320 0.344646
H27   H     H_    0.216298 0.632580 0.216312 0.343796
H28   H     H_    0.828031 0.324258 0.804740 0.344725
H29   H     H_    0.784007 0.632991 0.783914 0.343798
H30   H     H_    0.171769 0.324003 0.195287 0.344689
H31   H     H_    0.905300 0.493665 0.824397 0.196194
H32   H     H_    0.737690 0.258389 0.735303 0.200853
H33   H     H_    0.273065 0.731350 0.279792 0.188368
H34   H     H_    0.262206 0.258242 0.264690 0.200797
H35   H     H_    0.727255 0.731732 0.720335 0.188421
H36   H     H_    0.237780 0.758279 0.735303 0.200780
N1    N     N_R   0.480750 1.000000 0.209750 -0.131479
N2    N     N_R   0.519250 1.000000 0.790250 -0.131516
N3    N     N_R   0.980750 0.500000 0.209750 -0.131459
N4    N     N_R   0.019250 0.500000 0.790250 -0.131486
O1    O     O_R   0.418020 0.076820 0.422210 -0.539818
O2    O     O_R   0.569630 0.923170 0.391410 -0.583775
O3    O     O_R   0.569630 0.076830 0.391410 -0.581447
O4    O     O_R   0.430370 0.923170 0.608590 -0.583880
O5    O     O_R   0.930370 0.576830 0.608590 -0.581267
O6    O     O_R   0.069630 0.423170 0.391410 -0.583833
O7    O     O_R   0.069630 0.576830 0.391410 -0.581387
O8    O     O_R   0.930370 0.423170 0.608590 -0.583961
O9    O     O_3   0.355769 0.028247 0.236840 -0.625399
O10   O     O_3   0.644209 0.028346 0.763174 -0.625308
O11   O     O_3   0.855759 0.528196 0.236851 -0.625477
O12   O     O_R   0.581980 0.923180 0.577790 -0.555616
O13   O     O_3   0.144220 0.528293 0.763161 -0.625405
O14   O     O_2   0.609570 0.174778 0.768720 -0.295614
O15   O     O_2   0.602253 0.299804 0.704114 -0.262119
O16   O     O_3   0.513349 0.207484 0.622557 -0.521319
O17   O     O_2   0.339089 0.879602 0.242185 -0.275046
O18   O     O_2   0.208483 0.863486 0.282168 -0.262925
O19   O     O_3   0.271877 0.967480 0.384976 -0.504795
O20   O     O_2   0.390338 0.174672 0.231215 -0.295756
O21   O     O_2   0.397703 0.299727 0.295693 -0.262098
O22   O     O_3   0.486641 0.207433 0.377232 -0.521223
O23   O     O_R   0.581980 0.076820 0.577790 -0.539750
O24   O     O_2   0.661223 0.879813 0.757789 -0.275197
O25   O     O_2   0.791816 0.863945 0.717359 -0.262556
O26   O     O_3   0.728039 0.967764 0.614704 -0.504557
O27   O     O_2   0.109616 0.674709 0.768753 -0.295712
O28   O     O_2   0.102293 0.799761 0.704271 -0.262006
O29   O     O_3   0.013358 0.707481 0.622676 -0.521321
O30   O     O_2   0.839351 0.379453 0.242164 -0.274901
O31   O     O_2   0.708734 0.363129 0.281765 -0.263445
O32   O     O_3   0.771814 0.467262 0.384703 -0.505169
O33   O     O_2   0.890280 0.674601 0.231172 -0.295889
O34   O     O_R   0.418020 0.923180 0.422210 -0.555442
O35   O     O_2   0.897667 0.799681 0.295524 -0.261943
O36   O     O_3   0.986634 0.707420 0.377086 -0.521209
O37   O     O_2   0.160934 0.379635 0.757815 -0.275070
O38   O     O_2   0.291542 0.363548 0.717789 -0.262905
O39   O     O_3   0.228109 0.467520 0.615003 -0.504747
O40   O     O_3   0.682777 0.119266 0.279914 -0.741465
O41   O     O_3   0.350411 0.847779 0.737466 -0.727875
O42   O     O_3   0.317435 0.119555 0.720254 -0.741300
O43   O     O_3   0.649424 0.847571 0.262551 -0.727773
O44   O     O_3   0.182593 0.619499 0.279766 -0.741402
O45   O     O_R   0.918020 0.576820 0.422210 -0.539879
O46   O     O_3   0.850272 0.347939 0.737484 -0.727894
O47   O     O_3   0.817637 0.619813 0.720415 -0.741216
O48   O     O_3   0.149569 0.347741 0.262531 -0.727789
O49   O     O_R   0.081980 0.423180 0.577790 -0.555515
O50   O     O_R   0.081980 0.576820 0.577790 -0.539829
O51   O     O_R   0.918020 0.423180 0.422210 -0.555330
O52   O     O_R   0.430370 0.076830 0.608590 -0.581342
S1    S     S_3+6 0.597480 0.221878 0.669115 0.066630
S2    S     S_3+6 0.279905 0.883513 0.331943 0.056451
S3    S     S_3+6 0.402486 0.221818 0.330759 0.066631
S4    S     S_3+6 0.720269 0.883804 0.667827 0.056590
S5    S     S_3+6 0.097503 0.721850 0.669201 0.066678
S6    S     S_3+6 0.780052 0.383292 0.331751 0.056235
S7    S     S_3+6 0.902463 0.721786 0.330661 0.066680
S8    S     S_3+6 0.220106 0.383555 0.668039 0.056472
Zn1   Zn    Zn3+2 0.491750 1.000000 0.375560 1.113118
Zn2   Zn    Zn3+2 0.508250 1.000000 0.624440 1.113067
Zn3   Zn    Zn3+2 0.991750 0.500000 0.375560 1.113167
Zn4   Zn    Zn3+2 0.008250 0.500000 0.624440 1.113121

loop_
_geom_bond_atom_site_label_1
_geom_bond_atom_site_label_2
_ccdc_geom_bond_type
O3    Zn1   S    
N3    Zn3   S    
C8    C13   A    
C37   O40   S    
C5    O10   S    
C44   S2    S    
C7    O13   S    
C28   H2    S    
O45   Zn3   S    
O12   Zn2   S    
H21   O39   S    
C53   C59   A    
H22   O40   S    
C48   C57   A    
O32   S6    S    
O22   S3    S    
C31   C40   A    
O36   S7    S    
C7    C11   A    
O8    Zn4   S    
C26   C42   A    
O34   Zn1   S    
C50   C59   A    
C47   C55   A    
C18   C37   A    
C9    H5    S    
H13   O13   S    
C52   C61   A    
O38   S8    D    
C45   O5    A    
C14   N2    A    
C22   C41   A    
N4    Zn4   S    
O27   S5    D    
H30   O48   S    
C31   H32   S    
C15   H1    S    
O20   S3    D    
O17   S2    D    
H9    O9    S    
C32   H33   S    
O26   S4    S    
C33   H34   S    
C6    N1    A    
C63   O8    A    
O28   S5    D    
C8    O11   S    
C29   H3    S    
C44   C53   A    
C16   N4    A    
C21   C38   A    
O51   Zn3   S    
C1    C20   S    
C30   C60   A    
C29   C38   A    
H24   O41   S    
C35   C43   A    
C45   O45   A    
C3    C13   A    
C22   C50   A    
C23   O3    A    
N2    Zn2   S    
C50   S5    S    
C19   C34   S    
O50   Zn4   S    
C35   H35   S    
C18   C46   A    
C56   O6    A    
H27   O44   S    
C2    C64   A    
C47   S4    S    
H25   O42   S    
C48   S3    S    
C29   C61   A    
C27   H36   S    
C62   O7    A    
C35   C55   A    
C18   C23   S    
O2    Zn1   S    
O33   S7    D    
C20   C39   A    
C57   C60   A    
C46   S1    S    
H15   O19   S    
C12   C21   S    
C34   O34   A    
C49   C58   A    
C62   O50   A    
C26   C56   S    
C14   H12   S    
C1    O52   A    
H14   O16   S    
C6    O9    S    
C5    C9    A    
H26   O43   S    
O5    Zn4   S    
C22   C62   S    
O6    Zn3   S    
O52   Zn2   S    
O15   S1    D    
C14   C64   A    
C46   C54   A    
O18   S2    D    
C40   O46   S    
C51   S8    S    
C15   N1    A    
C4    C11   A    
N1    Zn1   S    
C2    C15   A    
C49   S6    S    
C20   C48   A    
C4    C17   A    
C10   H6    S    
C25   C43   A    
O19   S2    S    
O39   S8    S    
C24   C63   S    
C7    N4    A    
O49   Zn4   S    
H28   O46   S    
O16   S1    S    
O31   S6    D    
H29   O47   S    
H11   O11   S    
C33   C42   A    
C32   C41   A    
C3    C4    A    
C25   C45   S    
C32   C53   A    
C43   O47   S    
C19   C44   A    
O24   S4    D    
C23   O23   A    
C54   C58   A    
C24   C49   A    
O4    Zn2   S    
C5    N2    A    
C16   H31   S    
C33   C57   A    
C17   H23   S    
C10   C64   A    
C56   O49   A    
H19   O32   S    
O29   S5    S    
C6    C10   A    
O21   S3    D    
C13   H8    S    
C28   C58   A    
C27   C36   A    
C19   C36   A    
C34   O4    A    
H18   O29   S    
O35   S7    D    
C17   N3    A    
C25   C52   A    
C63   O51   A    
C27   C59   A    
C26   C51   A    
C12   O2    A    
H17   O26   S    
C41   O44   S    
H16   O22   S    
C28   C37   A    
O23   Zn2   S    
C55   C61   A    
C39   O42   S    
C24   C40   A    
O1    Zn1   S    
C30   C39   A    
C11   H7    S    
C31   C54   A    
C8    N3    A    
C38   O43   S    
C52   S7    S    
O30   S6    D    
C36   O41   S    
O7    Zn3   S    
H20   O36   S    
O37   S8    D    
O14   S1    D    
C51   C60   A    
C21   C47   A    
C2    C9    A    
O25   S4    D    
C30   H4    S    
C3    C16   A    
C1    O1    A    
C42   O48   S    
C12   O12   A    
H10   O10   S    
