data_mof_unit_36680.cif
_audit_creation_date              2012-12-10T17:35:50-0500
_audit_creation_method            fapswitch 2.2
_symmetry_space_group_name_H-M    P1
_symmetry_Int_Tables_number       1
_space_group_crystal_system       triclinic
_cell_length_a                    10.495359
_cell_length_b                    11.980047
_cell_length_c                    12.942152
_cell_angle_alpha                 92.590402
_cell_angle_beta                  90.519565
_cell_angle_gamma                 85.607014
_cell_volume                      1620.81576759

loop_
_atom_site_label
_atom_site_type_symbol
_atom_type_description
_atom_site_fract_x
_atom_site_fract_y
_atom_site_fract_z
_atom_type_partial_charge
C1    C     C_R   0.498448 0.520778 0.700540 0.906085
C2    C     C_R   0.625690 0.157646 0.569538 0.050919
C3    C     C_R   0.564711 0.855484 0.528638 -0.058485
C4    C     C_R   0.435486 0.144515 0.471118 -0.069283
C5    C     C_R   0.552740 0.973687 0.525640 0.106375
C6    C     C_R   0.448309 0.026232 0.472995 0.093609
C7    C     C_R   0.742686 0.499711 0.502259 0.913479
C8    C     C_R   0.257274 0.500367 0.498484 0.885780
C9    C     C_3   0.971616 0.400653 0.529548 0.597655
C10   C     C_3   0.028247 0.599448 0.472383 0.586817
C11   C     C_3   0.047586 0.481320 0.596959 -0.331019
C12   C     C_R   0.498856 0.478673 0.300058 0.892267
C13   C     C_3   0.952387 0.518770 0.405000 -0.347129
C14   C     C_3   0.122480 0.501554 0.498876 -0.087874
C15   C     C_3   0.877479 0.498560 0.502934 -0.087233
C16   C     C_3   0.047994 0.419138 0.431983 -0.327783
C17   C     C_3   0.951828 0.580956 0.569899 -0.310923
C18   C     C_R   0.498118 0.465872 0.189779 -0.164761
C19   C     C_R   0.491797 0.530338 0.811768 -0.155535
C20   C     C_R   0.424310 0.638707 0.965329 -0.194368
C21   C     C_R   0.573151 0.361261 0.037655 -0.192990
C22   C     C_R   0.442231 0.631252 0.859574 -0.305136
C23   C     C_R   0.527513 0.436275 0.870481 0.423525
C24   C     C_R   0.562612 0.370759 0.143434 -0.295299
C25   C     C_3   0.038777 0.225270 0.584003 0.089636
C26   C     C_3   0.993690 0.114466 0.618001 -0.350629
C27   C     C_3   0.105860 0.034457 0.649853 -0.969446
C28   C     C_3   0.959982 0.776788 0.423545 0.073884
C29   C     C_3   0.003174 0.881413 0.375123 -0.364486
C30   C     C_3   0.889220 0.959938 0.344107 -0.943722
C31   C     C_3   0.245538 0.612640 0.199395 0.094062
C32   C     C_3   0.154725 0.631803 0.107362 -0.389862
C33   C     C_3   0.017944 0.610317 0.134457 -0.939632
C34   C     C_R   0.440910 0.551963 0.130620 0.444547
C35   C     C_3   0.474670 0.258441 0.821660 0.085983
C36   C     C_3   0.534220 0.138566 0.831127 -0.337289
C37   C     C_3   0.438964 0.052244 0.801530 -0.955887
C38   C     C_R   0.521590 0.447993 0.977483 0.001166
C39   C     C_R   0.461914 0.546979 0.024707 0.014968
C40   C     C_R   0.359986 0.959381 0.423466 -0.364846
C41   C     C_R   0.641941 0.040464 0.574010 -0.375378
C42   C     C_R   0.375815 0.842268 0.428489 0.078135
H1    H     H_    0.091373 0.465893 0.673922 0.144561
H2    H     H_    0.643588 0.813974 0.570004 0.121216
H3    H     H_    0.695067 0.208740 0.606475 0.182465
H4    H     H_    0.306611 0.791289 0.391380 0.162361
H5    H     H_    0.278948 0.997282 0.381922 0.142985
H6    H     H_    0.723496 0.002519 0.614899 0.141516
H7    H     H_    0.094572 0.262552 0.648672 0.138105
H8    H     H_    0.101442 0.208012 0.515195 0.135322
H9    H     H_    0.927512 0.130666 0.684508 0.224630
H10   H     H_    0.940997 0.074590 0.553312 0.229434
H11   H     H_    0.175035 0.018936 0.585514 0.270630
H12   H     H_    0.907082 0.534143 0.328697 0.155633
H13   H     H_    0.070301 0.953264 0.669914 0.270994
H14   H     H_    0.155233 0.070337 0.718459 0.265911
H15   H     H_    0.910692 0.802128 0.497721 0.142289
H16   H     H_    0.891420 0.737703 0.369394 0.146982
H17   H     H_    0.063685 0.926326 0.431439 0.229183
H18   H     H_    0.061323 0.856576 0.305273 0.223714
H19   H     H_    0.832269 0.918767 0.282666 0.269101
H20   H     H_    0.923788 0.037460 0.313998 0.265593
H21   H     H_    0.826996 0.983182 0.411739 0.269875
H22   H     H_    0.209309 0.667316 0.265828 0.198028
H23   H     H_    0.091813 0.353576 0.377114 0.148282
H24   H     H_    0.244163 0.524774 0.224407 0.107493
H25   H     H_    0.156888 0.719618 0.083550 0.228133
H26   H     H_    0.186015 0.574356 0.041130 0.220283
H27   H     H_    0.013336 0.522467 0.157306 0.263023
H28   H     H_    0.955055 0.624064 0.066038 0.268977
H29   H     H_    0.982553 0.668729 0.198668 0.265980
H30   H     H_    0.422429 0.264328 0.746834 0.180666
H31   H     H_    0.402819 0.275348 0.884683 0.109136
H32   H     H_    0.619229 0.124233 0.780650 0.235125
H33   H     H_    0.566598 0.126129 0.911978 0.204231
H34   H     H_    0.907903 0.646599 0.624631 0.148697
H35   H     H_    0.354664 0.063324 0.853279 0.258354
H36   H     H_    0.485208 0.966468 0.809153 0.268082
H37   H     H_    0.406813 0.061147 0.720116 0.273705
H38   H     H_    0.607404 0.304827 0.189124 0.189154
H39   H     H_    0.412774 0.703136 0.814791 0.189469
H40   H     H_    0.382165 0.716562 0.000331 0.192640
H41   H     H_    0.625251 0.287458 0.003758 0.185626
H42   H     H_    0.356254 0.186091 0.430221 0.123238
N1    N     N_R   0.523490 0.207800 0.519350 -0.106060
N2    N     N_R   0.476510 0.792200 0.480650 -0.103974
O1    O     O_R   0.506270 0.421700 0.658830 -0.594805
O2    O     O_3   0.068149 0.702738 0.441817 -0.659689
O3    O     O_3   0.369703 0.643228 0.176323 -0.650786
O4    O     O_3   0.572863 0.334071 0.824207 -0.637012
O5    O     O_R   0.493730 0.578300 0.341170 -0.579655
O6    O     O_R   0.491200 0.609310 0.646410 -0.631677
O7    O     O_R   0.508800 0.390690 0.353590 -0.633019
O8    O     O_R   0.693580 0.406210 0.506230 -0.584048
O9    O     O_R   0.306420 0.593790 0.493770 -0.594614
O10   O     O_R   0.678510 0.593830 0.493810 -0.649941
O11   O     O_R   0.321490 0.406170 0.506190 -0.655822
O12   O     O_3   0.931113 0.297321 0.559534 -0.642335
Zn1   Zn    Zn3+2 0.510060 0.374730 0.508290 0.951897
Zn2   Zn    Zn3+2 0.489940 0.625270 0.491710 0.960818

loop_
_geom_bond_atom_site_label_1
_geom_bond_atom_site_label_2
_ccdc_geom_bond_type
C1    O1    A    
C31   H24   S    
C9    O12   S    
C20   H40   S    
C40   H5    S    
C12   O5    A    
C35   C36   S    
C28   H15   S    
C7    O10   A    
C37   H37   S    
C10   O2    S    
C26   C27   S    
C18   C24   A    
C36   C37   S    
C9    C16   S    
C38   C39   A    
C11   C14   S    
C27   H13   S    
C10   C17   S    
C2    N1    A    
C42   H4    S    
C25   H8    S    
C24   H38   S    
C35   H31   S    
C21   C38   A    
C21   H41   S    
C31   O3    S    
C28   O2    S    
C17   H34   S    
C11   H1    S    
C42   N2    A    
O5    Zn2   S    
N2    Zn2   S    
O7    Zn1   S    
C33   H27   S    
C32   H26   S    
C40   C42   A    
C30   H21   S    
C3    N2    A    
C8    O9    A    
O11   Zn1   S    
O1    Zn1   S    
C2    H3    S    
C3    H2    S    
C1    C19   S    
C34   C39   A    
C22   H39   S    
C29   H17   S    
C19   C22   A    
C4    C6    A    
C10   C14   S    
C20   C39   A    
O9    Zn2   S    
C4    N1    A    
C25   C26   S    
C37   H35   S    
C19   C23   A    
C8    O11   A    
C29   C30   S    
N1    Zn1   S    
C36   H33   S    
C26   H10   S    
C9    C11   S    
C31   C32   S    
C4    H42   S    
C29   H18   S    
C23   O4    S    
C18   C34   A    
C36   H32   S    
C33   H28   S    
C32   H25   S    
C20   C22   A    
C35   H30   S    
C1    O6    A    
C13   C15   S    
C14   C16   S    
C12   O7    A    
C30   H19   S    
C21   C24   A    
O6    Zn2   S    
C13   H12   S    
C15   C17   S    
C7    O8    A    
C5    C41   A    
C28   C29   S    
C8    C14   S    
C27   H14   S    
C31   H22   S    
C3    C5    A    
C10   C13   S    
C11   C17   S    
C27   H11   S    
C28   H16   S    
C23   C38   A    
C37   H36   S    
C32   C33   S    
C30   H20   S    
C9    C15   S    
C34   O3    S    
C26   H9    S    
C5    C6    A    
O8    Zn1   S    
O10   Zn2   S    
C7    C15   S    
C41   H6    S    
C6    C40   A    
C25   H7    S    
C33   H29   S    
C35   O4    S    
C25   O12   S    
C13   C16   S    
C12   C18   S    
C16   H23   S    
C2    C41   A    
