data_mof_unit_9004.cif
_audit_creation_date              2012-10-26T20:00:55-0400
_audit_creation_method            fapswitch 2.2
_symmetry_space_group_name_H-M    P1
_symmetry_Int_Tables_number       1
_space_group_crystal_system       triclinic
_cell_length_a                    11.834696
_cell_length_b                    13.09154
_cell_length_c                    13.445274
_cell_angle_alpha                 96.533437
_cell_angle_beta                  77.147917
_cell_angle_gamma                 98.079994
_cell_volume                      2003.42512343

loop_
_atom_site_label
_atom_site_type_symbol
_atom_type_description
_atom_site_fract_x
_atom_site_fract_y
_atom_site_fract_z
_atom_type_partial_charge
C1    C     C_R   0.521014 0.699296 0.497241 0.573410
C2    C     C_R   0.400636 0.448867 0.801142 0.014312
C3    C     C_R   0.469156 0.183083 0.488582 -0.016322
C4    C     C_R   0.437316 0.483347 0.694064 0.561177
C5    C     C_R   0.535829 0.809244 0.481083 0.023520
C6    C     C_R   0.649660 0.959035 0.400064 0.023100
C7    C     C_R   0.633403 0.852049 0.410955 0.029269
C8    C     C_R   0.446585 0.869546 0.527500 0.065919
C9    C     C_R   0.451781 0.969415 0.497184 -0.012187
C10   C     C_R   0.558951 0.020482 0.448267 0.008096
C11   C     C_R   0.568433 0.129259 0.447602 0.060499
C12   C     C_R   0.448499 0.426873 0.965955 0.013298
C13   C     C_R   0.357145 0.123633 0.510955 -0.054706
C14   C     C_R   0.349572 0.014883 0.505025 -0.032138
C15   C     C_R   0.939626 0.593821 0.606687 -0.065060
C16   C     C_R   0.480410 0.298685 0.496269 0.532499
C17   C     C_R   0.823753 0.588684 0.592577 0.076642
C18   C     C_R   0.861203 0.462665 0.450223 0.233034
C19   C     C_R   0.981678 0.467975 0.457823 0.011414
C20   C     C_R   0.020132 0.533883 0.537911 -0.009082
C21   C     C_R   0.141180 0.545195 0.541456 0.237767
C22   C     C_R   0.180523 0.417445 0.404511 0.043740
C23   C     C_R   0.483479 0.431088 0.858309 -0.009907
C24   C     C_R   0.067046 0.413308 0.387142 0.037463
C25   C     C_R   0.561742 0.500218 0.304024 0.528927
C26   C     C_R   0.741524 0.473113 0.035018 0.090217
C27   C     C_R   0.594062 0.486403 0.191292 -0.038763
C28   C     C_R   0.280739 0.429003 0.847718 0.080128
C29   C     C_R   0.247534 0.393574 0.946390 -0.011791
C30   C     C_R   0.329386 0.401487 0.007715 -0.147226
C31   C     C_R   0.246309 0.170715 0.542400 0.078003
C32   C     C_R   0.181078 0.181092 0.469380 -0.064391
C33   C     C_R   0.065632 0.203492 0.501162 -0.117552
C34   C     C_R   0.534903 0.442302 0.026492 0.014878
C35   C     C_R   0.015219 0.217001 0.604995 -0.107028
C36   C     C_R   0.079734 0.207418 0.677675 -0.134375
C37   C     C_R   0.195685 0.186229 0.646909 -0.088930
C38   C     C_R   0.754804 0.997678 0.325701 0.121626
C39   C     C_R   0.860270 0.030212 0.357515 -0.067584
C40   C     C_R   0.964107 0.048316 0.284855 -0.117793
C41   C     C_R   0.963368 0.032727 0.180513 -0.097908
C42   C     C_R   0.858604 0.999884 0.148519 -0.116171
C43   C     C_R   0.754384 0.983534 0.220726 -0.062856
C44   C     C_R   0.249197 0.949544 0.469316 0.054656
C45   C     C_R   0.654046 0.444399 0.977212 0.058498
C46   C     C_R   0.133144 0.952271 0.522606 -0.089843
C47   C     C_R   0.041092 0.907738 0.476412 -0.129120
C48   C     C_R   0.063164 0.850827 0.381406 -0.106047
C49   C     C_R   0.178020 0.841609 0.330447 -0.118009
C50   C     C_R   0.270523 0.891849 0.373231 -0.082133
C51   C     C_R   0.974277 0.661451 0.695293 0.057571
C52   C     C_R   0.990554 0.769695 0.694872 -0.058984
C53   C     C_R   0.029968 0.832775 0.774201 -0.106832
C54   C     C_R   0.055872 0.788114 0.854446 -0.098576
C55   C     C_R   0.042003 0.680578 0.855160 -0.112305
C56   C     C_R   0.682706 0.419099 0.871106 -0.160953
C57   C     C_R   0.000567 0.617310 0.776188 -0.088182
C58   C     C_R   0.751242 0.668428 0.652380 0.098327
C59   C     C_R   0.697702 0.659002 0.755490 -0.072023
C60   C     C_R   0.638689 0.738173 0.813996 -0.115783
C61   C     C_R   0.637936 0.830468 0.771458 -0.119247
C62   C     C_R   0.699176 0.844503 0.671593 -0.125893
C63   C     C_R   0.757636 0.764820 0.613478 -0.074260
C64   C     C_R   0.131723 0.335702 0.980686 0.020658
C65   C     C_R   0.044952 0.379733 0.054653 -0.094781
C66   C     C_R   0.936581 0.321636 0.086248 -0.076134
C67   C     C_R   0.598330 0.411848 0.812543 -0.144793
C68   C     C_R   0.913031 0.221687 0.041554 -0.097277
C69   C     C_R   0.999885 0.177021 0.968793 -0.137669
C70   C     C_R   0.109549 0.233176 0.939827 -0.113698
C71   C     C_R   0.506635 0.462547 0.133784 -0.151082
C72   C     C_R   0.710938 0.493678 0.140875 -0.095024
Cu1   Cu    Cu3+1 0.386470 0.492430 0.492410 0.953404
Cu2   Cu    Cu3+1 0.613530 0.507570 0.507590 0.941622
H1    H     H_    0.779230 0.517423 0.183431 0.140214
H2    H     H_    0.038436 0.214355 0.757788 0.105951
H3    H     H_    0.243737 0.175566 0.703900 0.090011
H4    H     H_    0.862160 0.038898 0.438182 0.096556
H5    H     H_    0.045807 0.071538 0.309077 0.104781
H6    H     H_    0.044140 0.045058 0.124482 0.112581
H7    H     H_    0.858237 0.985797 0.067719 0.097411
H8    H     H_    0.674253 0.955284 0.195037 0.098364
H9    H     H_    0.113233 0.991883 0.598148 0.109660
H10   H     H_    0.952372 0.916947 0.515182 0.091910
H11   H     H_    0.991373 0.814680 0.347019 0.126097
H12   H     H_    0.243227 0.373371 0.352380 0.118630
H13   H     H_    0.195480 0.798052 0.256404 0.106474
H14   H     H_    0.358924 0.888241 0.329819 0.106374
H15   H     H_    0.759136 0.753603 0.385914 0.247866
H16   H     H_    0.664138 0.729121 0.305537 0.237025
H17   H     H_    0.393597 0.812894 0.666114 0.224706
H18   H     H_    0.302016 0.888170 0.643711 0.232616
H19   H     H_    0.226321 0.688359 0.537274 0.282017
H20   H     H_    0.246781 0.621584 0.634961 0.297982
H21   H     H_    0.973900 0.804900 0.632536 0.107927
H22   H     H_    0.041468 0.916149 0.772917 0.087323
H23   H     H_    0.771285 0.410524 0.831107 0.100581
H24   H     H_    0.087025 0.836712 0.915825 0.100781
H25   H     H_    0.062503 0.646637 0.917712 0.114086
H26   H     H_    0.990003 0.533923 0.776737 0.101102
H27   H     H_    0.105255 0.390316 0.234165 0.226102
H28   H     H_    0.059791 0.281172 0.293217 0.224354
H29   H     H_    0.706185 0.592671 0.791604 0.117667
H30   H     H_    0.596031 0.728845 0.892996 0.111259
H31   H     H_    0.592877 0.892101 0.816773 0.105260
H32   H     H_    0.702356 0.917262 0.639441 0.105076
H33   H     H_    0.808041 0.777624 0.537732 0.090129
H34   H     H_    0.416805 0.463504 0.173446 0.125043
H35   H     H_    0.840737 0.329133 0.361788 0.245700
H36   H     H_    0.861904 0.439154 0.300495 0.231336
H37   H     H_    0.865835 0.553347 0.941160 0.233745
H38   H     H_    0.888338 0.428170 0.940660 0.231256
H39   H     H_    0.139721 0.376543 0.786773 0.234826
H40   H     H_    0.140561 0.496664 0.844925 0.220089
H41   H     H_    0.060886 0.458581 0.087327 0.118508
H42   H     H_    0.869264 0.354708 0.143204 0.130360
H43   H     H_    0.827582 0.178910 0.063813 0.114470
H44   H     H_    0.982526 0.098939 0.934914 0.094815
H45   H     H_    0.299943 0.378166 0.084769 0.097495
H46   H     H_    0.176955 0.197212 0.884719 0.099207
H47   H     H_    0.711623 0.225976 0.466894 0.253905
H48   H     H_    0.667716 0.231538 0.352955 0.253009
H49   H     H_    0.625393 0.391402 0.731512 0.156846
H50   H     H_    0.217607 0.166639 0.388485 0.088132
H51   H     H_    0.013650 0.208216 0.445800 0.108548
H52   H     H_    0.925480 0.233131 0.629099 0.103815
N1    N     N_R   0.215880 0.481050 0.481000 -0.236295
N2    N     N_3   0.678834 0.183912 0.406543 -0.647344
N3    N     N_R   0.784100 0.518950 0.519000 -0.224694
N4    N     N_3   0.712290 0.787319 0.344052 -0.637483
N5    N     N_3   0.354550 0.830862 0.608762 -0.627041
N6    N     N_3   0.188654 0.636987 0.592610 -0.591472
N7    N     N_3   0.044179 0.357897 0.294376 -0.683410
N8    N     N_3   0.819539 0.404260 0.366951 -0.562927
N9    N     N_3   0.861540 0.493625 0.987024 -0.669795
N10   N     N_3   0.192394 0.445938 0.796183 -0.596225
O1    O     O_R   0.419710 0.645650 0.494620 -0.499070
O2    O     O_R   0.611450 0.658430 0.507430 -0.507859
O3    O     O_R   0.357340 0.490460 0.641450 -0.465859
O4    O     O_R   0.549080 0.503250 0.654260 -0.519384
O5    O     O_R   0.388550 0.341570 0.492570 -0.496631
O6    O     O_R   0.580290 0.354350 0.505380 -0.496863
O7    O     O_R   0.450920 0.496750 0.345740 -0.518591
O8    O     O_R   0.642660 0.509540 0.358550 -0.482288

loop_
_geom_bond_atom_site_label_1
_geom_bond_atom_site_label_2
_ccdc_geom_bond_type
C24   N7    S    
C66   C68   A    
Cu1   O1    S    
C26   C72   A    
Cu1   Cu2   S    
C49   H13   S    
C2    C4    S    
C19   C20   A    
C41   H6    S    
C1    O1    A    
Cu1   O5    S    
C53   C54   A    
Cu2   O2    S    
C12   C23   A    
C29   C30   A    
C66   H42   S    
C1    C5    S    
C36   C37   A    
C38   C39   A    
H17   N5    S    
C30   H45   S    
C69   H44   S    
C52   H21   S    
C18   C19   A    
C41   C42   A    
C23   C67   A    
C32   H50   S    
C7    N4    S    
C26   N9    S    
C36   H2    S    
C26   C45   A    
C46   C47   A    
C35   C36   A    
C45   C56   A    
C70   H46   S    
C8    C9    A    
H39   N10   S    
C47   C48   A    
C6    C38   S    
C18   N8    S    
C51   C57   A    
C15   C51   S    
C21   N1    A    
H19   N6    S    
C61   H31   S    
C9    C10   A    
C61   C62   A    
C3    C13   A    
C50   H14   S    
C17   C58   S    
Cu2   O6    S    
C29   C64   S    
C59   C60   A    
C13   C14   A    
C53   H22   S    
C65   H41   S    
C25   O7    A    
C42   H7    S    
C56   H23   S    
C72   H1    S    
C44   C46   A    
C15   C20   A    
C17   N3    A    
C51   C52   A    
C1    O2    A    
C39   H4    S    
H18   N5    S    
H47   N2    S    
C39   C40   A    
C5    C7    A    
C68   C69   A    
Cu1   O3    S    
C58   C59   A    
Cu1   N1    S    
C57   H26   S    
C37   H3    S    
H20   N6    S    
H15   N4    S    
C31   C37   A    
C60   C61   A    
C35   H52   S    
C16   O6    A    
C9    C14   A    
C21   N6    S    
C62   C63   A    
C68   H43   S    
C4    O4    A    
C31   C32   A    
C8    N5    S    
C33   H51   S    
C40   H5    S    
C34   C45   A    
C47   H10   S    
C40   C41   A    
C49   C50   A    
C64   C70   A    
C55   C57   A    
C22   C24   A    
H36   N8    S    
C25   O8    A    
C42   C43   A    
H38   N9    S    
C63   H33   S    
C27   C71   A    
C52   C53   A    
C14   C44   S    
Cu1   O7    S    
C44   C50   A    
C58   C63   A    
C15   C17   A    
Cu2   O8    S    
C54   C55   A    
C28   C29   A    
C12   C30   A    
H35   N8    S    
C28   N10   S    
C13   C31   S    
C67   H49   S    
C6    C10   A    
C5    C8    A    
C6    C7    A    
C62   H32   S    
H27   N7    S    
C25   C27   S    
C56   C67   A    
C59   H29   S    
C64   C65   A    
C19   C24   A    
H28   N7    S    
C38   C43   A    
C32   C33   A    
C4    O3    A    
H37   N9    S    
C22   N1    A    
Cu2   O4    S    
C48   C49   A    
C33   C35   A    
C16   O5    A    
C11   N2    S    
C22   H12   S    
H48   N2    S    
C69   C70   A    
C3    C11   A    
C10   C11   A    
C27   C72   A    
C46   H9    S    
H16   N4    S    
C20   C21   A    
C65   C66   A    
Cu2   N3    S    
C55   H25   S    
C2    C23   A    
C43   H8    S    
H40   N10   S    
C48   H11   S    
C54   H24   S    
C18   N3    A    
C2    C28   A    
C60   H30   S    
C12   C34   A    
C34   C71   A    
C3    C16   S    
C71   H34   S    
