data_mof_unit_53897.cif
_audit_creation_date              2012-12-10T18:38:37-0500
_audit_creation_method            fapswitch 2.2
_symmetry_space_group_name_H-M    P1
_symmetry_Int_Tables_number       1
_space_group_crystal_system       triclinic
_cell_length_a                    15.835434
_cell_length_b                    15.066792
_cell_length_c                    13.962926
_cell_angle_alpha                 91.314949
_cell_angle_beta                  91.506221
_cell_angle_gamma                 91.72395
_cell_volume                      3327.80519889

loop_
_atom_site_label
_atom_site_type_symbol
_atom_type_description
_atom_site_fract_x
_atom_site_fract_y
_atom_site_fract_z
_atom_type_partial_charge
C1    C     C_R   0.498145 0.329870 0.499081 0.788880
C2    C     C_R   0.535027 0.911317 0.561577 -0.179842
C3    C     C_R   0.478017 0.047592 0.496763 0.077767
C4    C     C_R   0.479681 0.950405 0.496051 0.077211
C5    C     C_R   0.577538 0.526891 0.113354 -0.287405
C6    C     C_R   0.470653 0.419186 0.886500 -0.284830
C7    C     C_R   0.569651 0.533601 0.214105 0.057423
C8    C     C_R   0.465140 0.427952 0.785624 0.066182
C9    C     C_R   0.435680 0.458894 0.201093 0.293654
C10   C     C_R   0.541307 0.565678 0.799331 0.303058
C11   C     C_R   0.443589 0.450928 0.100705 -0.278879
C12   C     C_R   0.498674 0.669906 0.500639 0.784165
C13   C     C_R   0.548631 0.556596 0.899613 -0.274725
C14   C     C_R   0.513474 0.484898 0.054522 0.111308
C15   C     C_R   0.513204 0.484563 0.945594 0.112210
C16   C     C_R   0.339956 0.499849 0.498953 0.808158
C17   C     C_R   0.660089 0.500026 0.501035 0.818191
C18   C     C_3   0.971951 0.431853 0.550561 0.416150
C19   C     C_3   0.028518 0.568580 0.447503 0.404111
C20   C     C_3   0.024023 0.422785 0.458898 -0.026519
C21   C     C_3   0.976319 0.577661 0.539121 -0.022829
C22   C     C_1   0.250359 0.499582 0.496981 -0.155700
C23   C     C_R   0.456474 0.189494 0.575736 -0.207200
C24   C     C_1   0.749787 0.500236 0.502894 -0.158512
C25   C     C_3   0.031145 0.508378 0.589986 -0.037007
C26   C     C_3   0.969117 0.492106 0.408040 -0.030517
C27   C     C_3   0.083043 0.499591 0.498198 -0.072316
C28   C     C_3   0.917186 0.500567 0.500314 -0.086405
C29   C     C_1   0.174858 0.499478 0.497008 0.044311
C30   C     C_1   0.825335 0.500396 0.502437 0.036450
C31   C     C_R   0.449305 0.096761 0.576799 0.107152
C32   C     C_R   0.431151 0.896570 0.429061 0.094211
C33   C     C_3   0.063462 0.338609 0.417899 -0.377281
C34   C     C_R   0.438204 0.804250 0.432538 -0.182979
C35   C     C_3   0.998947 0.272444 0.370644 -0.336180
C36   C     C_3   0.040889 0.186512 0.341157 -0.854374
C37   C     C_3   0.938172 0.661364 0.582538 -0.383875
C38   C     C_3   0.004269 0.735150 0.607983 -0.278637
C39   C     C_3   0.969827 0.803060 0.678500 -0.878766
C40   C     C_3   0.351039 0.422960 0.236192 -0.361669
C41   C     C_3   0.356618 0.333255 0.286672 -0.281528
C42   C     C_3   0.283512 0.269056 0.257351 -0.924403
C43   C     C_3   0.577224 0.653852 0.764906 -0.381518
C44   C     C_3   0.663046 0.646586 0.716058 -0.287137
C45   C     C_R   0.491034 0.233037 0.497547 -0.049979
C46   C     C_3   0.725806 0.720920 0.748960 -0.918308
C47   C     C_3   0.922206 0.482931 0.310497 -0.389844
C48   C     C_3   0.981448 0.478645 0.225493 -0.315999
C49   C     C_3   0.935318 0.440949 0.135502 -0.856229
C50   C     C_3   0.074732 0.512707 0.689667 -0.341137
C51   C     C_3   0.017515 0.546314 0.768958 -0.316175
C52   C     C_3   0.049230 0.518678 0.867676 -0.810360
C53   C     C_3   0.413340 0.053620 0.664986 -0.418959
C54   C     C_3   0.326797 0.007943 0.644110 -0.355129
C55   C     C_3   0.287973 0.973698 0.735596 -0.814775
C56   C     C_R   0.491768 0.766010 0.500460 -0.043320
C57   C     C_3   0.373627 0.934151 0.352154 -0.414025
C58   C     C_3   0.294170 0.974165 0.393635 -0.348596
C59   C     C_3   0.232259 0.000023 0.314182 -0.797225
C60   C     C_R   0.518238 0.183868 0.418782 -0.188237
C61   C     C_R   0.540217 0.819796 0.564621 -0.225181
C62   C     C_R   0.512914 0.091788 0.419126 -0.187222
Cu1   Cu    Cu3+1 0.500000 0.499990 0.596430 0.947330
Cu2   Cu    Cu3+1 0.500000 0.500010 0.403570 0.938755
H1    H     H_    0.392520 0.420555 0.057189 0.130354
H2    H     H_    0.441909 0.360898 0.917570 0.133753
H3    H     H_    0.620423 0.565837 0.256280 0.132577
H4    H     H_    0.432628 0.376051 0.743090 0.122631
H5    H     H_    0.090955 0.200125 0.288784 0.257683
H6    H     H_    0.069168 0.154721 0.404915 0.253580
H7    H     H_    0.992932 0.139688 0.307194 0.257305
H8    H     H_    0.948072 0.256201 0.420590 0.269001
H9    H     H_    0.970101 0.301218 0.305743 0.227867
H10   H     H_    0.110387 0.358560 0.364187 0.192815
H11   H     H_    0.098165 0.306241 0.477112 0.207883
H12   H     H_    0.579521 0.608976 0.943213 0.129834
H13   H     H_    0.912183 0.832937 0.647651 0.267045
H14   H     H_    0.954147 0.771143 0.746979 0.250843
H15   H     H_    0.018257 0.856725 0.693673 0.256237
H16   H     H_    0.062520 0.707133 0.639487 0.228789
H17   H     H_    0.021055 0.770551 0.542103 0.288171
H18   H     H_    0.891031 0.687171 0.530654 0.201762
H19   H     H_    0.903865 0.641502 0.647297 0.194063
H20   H     H_    0.222177 0.300423 0.269972 0.257291
H21   H     H_    0.287138 0.249723 0.180355 0.260550
H22   H     H_    0.287027 0.208358 0.300692 0.254510
H23   H     H_    0.434618 0.228134 0.636110 0.134917
H24   H     H_    0.416644 0.300621 0.269698 0.223879
H25   H     H_    0.353616 0.343849 0.365151 0.230191
H26   H     H_    0.316597 0.473540 0.276242 0.214699
H27   H     H_    0.306253 0.412753 0.173881 0.171056
H28   H     H_    0.698666 0.786949 0.736754 0.257428
H29   H     H_    0.742153 0.714834 0.826339 0.263654
H30   H     H_    0.784476 0.716248 0.707783 0.249779
H31   H     H_    0.692077 0.582058 0.731880 0.239962
H32   H     H_    0.653964 0.651650 0.637517 0.222025
H33   H     H_    0.529744 0.690350 0.724314 0.196656
H34   H     H_    0.401399 0.761596 0.382528 0.158215
H35   H     H_    0.586632 0.700881 0.827172 0.168444
H36   H     H_    0.006640 0.227674 0.595579 0.351030
H37   H     H_    0.962689 0.686565 0.302438 0.328996
H38   H     H_    0.912566 0.371631 0.146889 0.256702
H39   H     H_    0.880644 0.482290 0.116706 0.257734
H40   H     H_    0.979176 0.440774 0.074743 0.253622
H41   H     H_    0.005119 0.546517 0.209744 0.261499
H42   H     H_    0.036334 0.436996 0.241877 0.234625
H43   H     H_    0.880805 0.422132 0.311366 0.212206
H44   H     H_    0.880385 0.540277 0.301917 0.180924
H45   H     H_    0.545687 0.216529 0.358152 0.152653
H46   H     H_    0.047037 0.445151 0.872423 0.274964
H47   H     H_    0.115110 0.544058 0.881534 0.248627
H48   H     H_    0.008355 0.546643 0.923558 0.241403
H49   H     H_    0.016732 0.619819 0.768713 0.210504
H50   H     H_    0.951641 0.521012 0.757229 0.264033
H51   H     H_    0.096379 0.445000 0.705641 0.234616
H52   H     H_    0.131660 0.557516 0.687750 0.183673
H53   H     H_    0.329992 0.925162 0.769805 0.253525
H54   H     H_    0.277921 0.029643 0.786828 0.251985
H55   H     H_    0.225945 0.940099 0.717948 0.246182
H56   H     H_    0.584092 0.791495 0.614868 0.147114
H57   H     H_    0.283253 0.055679 0.610913 0.218652
H58   H     H_    0.333466 0.950514 0.594185 0.231247
H59   H     H_    0.457993 0.005387 0.694556 0.199579
H60   H     H_    0.406064 0.104596 0.722857 0.196061
H61   H     H_    0.263144 0.047433 0.265363 0.244296
H62   H     H_    0.209372 0.940122 0.272229 0.275632
H63   H     H_    0.177092 0.032103 0.346193 0.244336
H64   H     H_    0.262040 0.925006 0.439606 0.242535
H65   H     H_    0.311660 0.034602 0.437412 0.217069
H66   H     H_    0.408498 0.984598 0.310769 0.192329
H67   H     H_    0.537863 0.054665 0.359397 0.137846
H68   H     H_    0.353440 0.880736 0.299372 0.210575
H69   H     H_    0.575070 0.952146 0.610103 0.143073
H70   H     H_    0.634129 0.554348 0.082153 0.136500
N1    N     N_R   0.500000 0.500020 0.258690 -0.175185
N2    N     N_R   0.500000 0.499980 0.741310 -0.174460
O1    O     O_R   0.500010 0.371450 0.581430 -0.582738
O2    O     O_2   0.861445 0.292181 0.559004 -0.317312
O3    O     O_3   0.006424 0.272969 0.648067 -0.534677
O4    O     O_2   0.138404 0.708389 0.447163 -0.294435
O5    O     O_2   0.124355 0.619363 0.299678 -0.315958
O6    O     O_3   0.002602 0.725085 0.341542 -0.524218
O7    O     O_R   0.499990 0.628550 0.418570 -0.576498
O8    O     O_R   0.500010 0.371460 0.418560 -0.596480
O9    O     O_R   0.499990 0.628540 0.581440 -0.595185
O10   O     O_R   0.379080 0.499990 0.581420 -0.577184
O11   O     O_R   0.620920 0.500010 0.418580 -0.587896
O12   O     O_R   0.379080 0.500000 0.418550 -0.588805
O13   O     O_R   0.620920 0.500000 0.581450 -0.572971
O14   O     O_2   0.890092 0.376740 0.707384 -0.265673
S1    S     S_3+6 0.929060 0.341921 0.617762 -0.004487
S2    S     S_3+6 0.076723 0.656741 0.382226 -0.022583

loop_
_geom_bond_atom_site_label_1
_geom_bond_atom_site_label_2
_ccdc_geom_bond_type
C41   H25   S    
C45   C60   A    
C34   C56   A    
C23   C45   A    
C22   C29   T    
C8    N2    A    
C41   C42   S    
C57   H68   S    
C35   C36   S    
C49   H40   S    
C55   H55   S    
C53   C54   S    
C59   H62   S    
C58   H64   S    
C51   H49   S    
C20   C26   S    
C39   H13   S    
C60   C62   A    
C19   C21   S    
C43   H35   S    
C38   C39   S    
C11   C14   A    
C46   H28   S    
C52   H48   S    
C58   H65   S    
C59   H63   S    
C27   C29   S    
C16   O10   A    
C50   H51   S    
O6    S2    S    
C19   C26   S    
C25   C50   S    
Cu1   O13   S    
C60   H45   S    
C34   H34   S    
C6    C15   A    
C33   H11   S    
C48   H42   S    
C47   C48   S    
C36   H6    S    
C42   H22   S    
C19   C27   S    
O4    S2    D    
Cu1   O10   S    
C50   H52   S    
C2    C61   A    
C54   H58   S    
Cu2   N1    S    
C23   H23   S    
Cu2   O12   S    
C61   H56   S    
Cu1   O1    S    
C18   C25   S    
C32   C57   S    
C44   C46   S    
C19   S2    S    
C5    H70   S    
C17   C24   S    
C51   C52   S    
C51   H50   S    
C39   H14   S    
C2    H69   S    
C57   H66   S    
C18   C28   S    
C53   H59   S    
C49   H38   S    
C5    C7    A    
C6    C8    A    
Cu2   O8    S    
C52   H47   S    
C23   C31   A    
C58   C59   S    
C10   C13   A    
C9    C40   S    
C3    C4    S    
C32   C34   A    
C12   O9    A    
C2    C4    A    
C43   C44   S    
C7    N1    A    
C37   C38   S    
C44   H32   S    
H36   O3    S    
H37   O6    S    
C48   H41   S    
C46   H30   S    
C13   H12   S    
C52   H46   S    
C14   C15   S    
C50   C51   S    
C42   H20   S    
C42   H21   S    
C4    C32   A    
C31   C53   S    
C3    C31   A    
C9    C11   A    
C5    C14   A    
C12   C56   S    
C26   C47   S    
C20   C33   S    
C9    N1    A    
C48   C49   S    
Cu2   O7    S    
C21   C28   S    
C35   H8    S    
C8    H4    S    
C47   H43   S    
C13   C15   A    
C38   H17   S    
C37   H18   S    
C59   H61   S    
C18   S1    S    
C1    O1    A    
C36   H5    S    
C55   H53   S    
C3    C62   A    
C41   H24   S    
C21   C25   S    
C54   C55   S    
C35   H9    S    
C16   C22   S    
C17   O11   A    
C10   C43   S    
O14   S1    D    
C62   H67   S    
C54   H57   S    
C17   O13   A    
C43   H33   S    
C10   N2    A    
C53   H60   S    
C49   H39   S    
C36   H7    S    
C20   C27   S    
O2    S1    D    
C25   C27   S    
C26   C28   S    
C12   O7    A    
C16   O12   A    
Cu1   N2    S    
C28   C30   S    
Cu2   O11   S    
C1    O8    A    
C1    C45   S    
C57   C58   S    
C46   H29   S    
C38   H16   S    
O3    S1    S    
C33   C35   S    
C18   C20   S    
C40   H27   S    
C24   C30   T    
C7    H3    S    
Cu1   Cu2   S    
C33   H10   S    
C6    H2    S    
C21   C37   S    
C47   H44   S    
C44   H31   S    
C56   C61   A    
C37   H19   S    
C40   C41   S    
C40   H26   S    
Cu1   O9    S    
C11   H1    S    
O5    S2    D    
C39   H15   S    
C55   H54   S    
