data_mof_unit_21155.cif
_audit_creation_date              2012-12-10T17:15:55-0500
_audit_creation_method            fapswitch 2.2
_symmetry_space_group_name_H-M    P1
_symmetry_Int_Tables_number       1
_space_group_crystal_system       triclinic
_cell_length_a                    10.275103
_cell_length_b                    10.65659
_cell_length_c                    10.396514
_cell_angle_alpha                 91.583777
_cell_angle_beta                  94.933759
_cell_angle_gamma                 79.391647
_cell_volume                      1114.70919353

loop_
_atom_site_label
_atom_site_type_symbol
_atom_type_description
_atom_site_fract_x
_atom_site_fract_y
_atom_site_fract_z
_atom_type_partial_charge
C1    C     C_R   0.445637 0.501967 0.264849 0.843294
C2    C     C_2   0.504622 0.387704 0.926992 -0.033758
C3    C     C_2   0.077363 0.478170 0.497397 0.415297
C4    C     C_R   0.505396 0.259204 0.505499 0.882367
C5    C     C_2   0.934421 0.487840 0.527730 0.444328
C6    C     C_R   0.554713 0.486247 0.734967 0.885696
C7    C     C_R   0.496679 0.740226 0.497090 0.893743
C8    C     C_R   0.730192 0.061678 0.399485 0.358761
C9    C     C_R   0.782628 0.992430 0.292183 0.063406
C10   C     C_R   0.724424 0.891671 0.239920 0.097149
C11   C     C_R   0.624248 0.852388 0.302932 -0.211041
C12   C     C_R   0.609356 0.038183 0.443689 -0.017913
C13   C     C_R   0.572968 0.921216 0.411134 -0.012489
C14   C     C_R   0.520410 0.123858 0.517211 -0.133562
C15   C     C_R   0.428520 0.080557 0.587431 -0.201998
C16   C     C_R   0.419739 0.953927 0.582700 0.396700
C17   C     C_R   0.490135 0.874394 0.491978 -0.167398
C18   C     C_2   0.420412 0.480950 0.126476 -0.085447
C19   C     C_2   0.502743 0.387130 0.067417 0.180757
C20   C     C_2   0.581411 0.457966 0.871800 0.258920
Cl1   Cl    Cl    0.903089 0.526768 0.689091 -0.448815
Cl2   Cl    Cl    0.142348 0.344350 0.403786 -0.513114
Cl3   Cl    Cl    0.863013 0.445205 0.284757 -0.430702
Cl4   Cl    Cl    0.088733 0.703705 0.601854 -0.370000
Cl5   Cl    Cl    0.841892 0.135328 0.501952 -0.494665
Cl6   Cl    Cl    0.322696 0.901062 0.694959 -0.483934
Cl7   Cl    Cl    0.700333 0.531192 0.962954 -0.516678
H1    H     H_    0.365395 0.145002 0.648289 0.205090
H2    H     H_    0.321711 0.350228 0.872572 0.247904
H3    H     H_    0.653434 0.231711 0.077828 0.209297
H4    H     H_    0.539224 0.234061 0.184066 0.153104
H5    H     H_    0.586700 0.768452 0.266721 0.166584
H6    H     H_    0.227700 0.562509 0.090575 0.241274
H7    H     H_    0.336844 0.659169 0.069085 0.206540
H8    H     H_    0.978625 0.002013 0.307953 0.262036
H9    H     H_    0.880504 0.117302 0.216369 0.246222
H10   H     H_    0.809264 0.727362 0.156096 0.265708
H11   H     H_    0.696407 0.824292 0.058501 0.228608
H12   H     H_    0.445073 0.221353 0.877784 0.194912
N1    N     N_2   0.157290 0.551390 0.551110 0.028075
N2    N     N_2   0.842740 0.448550 0.448960 0.050706
N3    N     N_3   0.318180 0.566541 0.053439 -0.413510
N4    N     N_3   0.897947 0.020195 0.238456 -0.379533
N5    N     N_3   0.775204 0.822423 0.129528 -0.366812
N6    N     N_3   0.419415 0.316886 0.850142 -0.458755
N7    N     N_3   0.594867 0.291345 0.140460 -0.373061
O1    O     O_R   0.568950 0.489660 0.307530 -0.547831
O2    O     O_R   0.348880 0.522640 0.340350 -0.590604
O3    O     O_R   0.610060 0.300270 0.483590 -0.575139
O4    O     O_R   0.389990 0.333260 0.516410 -0.574993
O5    O     O_R   0.651120 0.477360 0.659650 -0.540149
O6    O     O_R   0.431050 0.510340 0.692470 -0.584219
O7    O     O_R   0.610010 0.666740 0.483590 -0.598297
O8    O     O_R   0.389940 0.699730 0.516410 -0.539508
Zn1   Zn    Zn3+2 0.646940 0.477980 0.478090 1.125539
Zn2   Zn    Zn3+2 0.353060 0.522020 0.521910 1.111904

loop_
_geom_bond_atom_site_label_1
_geom_bond_atom_site_label_2
_ccdc_geom_bond_type
C11   H5    S    
C1    O2    A    
H11   N5    S    
C20   Cl7   S    
C6    O5    A    
C6    C20   S    
C9    C10   A    
C3    Cl2   S    
Cl3   N2    S    
C13   C17   A    
C4    O3    A    
H12   N6    S    
H8    N4    S    
H10   N5    S    
C18   N3    S    
C15   H1    S    
C19   N7    S    
H7    N3    S    
N1    Zn2   S    
C16   Cl6   S    
C8    Cl5   S    
C11   C13   A    
C1    C18   S    
H6    N3    S    
C1    O1    A    
Cl4   N1    S    
C12   C14   A    
C3    N1    D    
O5    Zn1   S    
O7    Zn1   S    
C2    N6    S    
C4    C14   S    
O8    Zn2   S    
C9    N4    S    
C10   C11   A    
C7    O7    A    
C2    C20   D    
C15   C16   A    
O6    Zn2   S    
C5    Cl1   S    
C12   C13   A    
C8    C9    A    
O1    Zn1   S    
C18   C19   D    
C4    O4    A    
O2    Zn2   S    
C5    N2    D    
C14   C15   A    
N2    Zn1   S    
H9    N4    S    
C7    O8    A    
C6    O6    A    
C2    C19   S    
O3    Zn1   S    
C10   N5    S    
H3    N7    S    
O4    Zn2   S    
C8    C12   A    
H2    N6    S    
C16   C17   A    
C3    C5    S    
H4    N7    S    
C7    C17   S    
