data_mof_unit_30825.cif
_audit_creation_date              2012-10-26T18:33:57-0400
_audit_creation_method            fapswitch 2.2
_symmetry_space_group_name_H-M    P1
_symmetry_Int_Tables_number       1
_space_group_crystal_system       triclinic
_cell_length_a                    11.088072
_cell_length_b                    10.792157
_cell_length_c                    9.592105
_cell_angle_alpha                 89.133929
_cell_angle_beta                  103.059505
_cell_angle_gamma                 92.039246
_cell_volume                      1117.40644631

loop_
_atom_site_label
_atom_site_type_symbol
_atom_type_description
_atom_site_fract_x
_atom_site_fract_y
_atom_site_fract_z
_atom_type_partial_charge
C1    C     C_R   0.499297 0.262805 0.500602 0.551402
C2    C     C_2   0.873257 0.499262 0.595833 -0.002195
C3    C     C_2   0.067191 0.488876 0.511689 -0.131307
C4    C     C_2   0.931997 0.488209 0.488607 -0.131239
C5    C     C_R   0.403781 0.062399 0.406724 -0.051570
C6    C     C_R   0.596243 0.937619 0.593293 -0.051305
C7    C     C_R   0.405102 0.933004 0.404745 -0.049011
C8    C     C_R   0.594958 0.067021 0.595210 -0.049414
C9    C     C_R   0.501211 0.871348 0.498204 -0.028294
C10   C     C_R   0.498818 0.128664 0.501796 -0.028326
C11   C     C_3   0.942957 0.511850 0.750656 -0.377102
C12   C     C_R   0.500714 0.737200 0.499400 0.551911
C13   C     C_3   0.057540 0.505812 0.248715 -0.378257
C14   C     C_3   0.329744 0.328665 0.824404 -0.345647
C15   C     C_3   0.671447 0.670103 0.176034 -0.344457
C16   C     C_1   0.302740 0.127051 0.314622 0.212763
C17   C     C_1   0.697242 0.872974 0.685480 0.213183
C18   C     C_1   0.305691 0.863307 0.310315 0.233494
C19   C     C_1   0.694459 0.136755 0.689475 0.232806
C20   C     C_R   0.262587 0.499302 0.440718 0.578220
C21   C     C_R   0.737377 0.500046 0.559265 0.577885
C22   C     C_R   0.421640 0.423027 0.057417 0.031313
C23   C     C_R   0.578479 0.576861 0.942626 0.031643
C24   C     C_R   0.420857 0.421478 0.909525 0.116536
C25   C     C_R   0.579391 0.578272 0.090563 0.116192
C26   C     C_2   0.126592 0.497338 0.404080 -0.001597
Cu1   Cu    Cu3+1 0.500000 0.500020 0.640660 0.962495
Cu2   Cu    Cu3+1 0.500000 0.499980 0.359340 0.961307
H1    H     H_    0.878094 0.479321 0.379608 0.150420
H2    H     H_    0.998847 0.588373 0.232450 0.135030
H3    H     H_    0.327815 0.323991 0.710577 0.197700
H4    H     H_    0.350998 0.234374 0.869208 0.116759
H5    H     H_    0.234737 0.350061 0.834010 0.091605
H6    H     H_    0.671945 0.676167 0.289403 0.199352
H7    H     H_    0.766365 0.646381 0.168341 0.092970
H8    H     H_    0.652508 0.764458 0.130176 0.115090
H9    H     H_    0.120601 0.483408 0.621063 0.146537
H10   H     H_    0.359314 0.361653 0.100260 0.138836
H11   H     H_    0.640963 0.638082 0.899837 0.137412
H12   H     H_    0.880209 0.523728 0.824287 0.165306
H13   H     H_    0.996419 0.427373 0.785279 0.133947
H14   H     H_    0.007044 0.594427 0.762598 0.142076
H15   H     H_    0.120899 0.515055 0.174435 0.168313
H16   H     H_    0.998587 0.420765 0.218620 0.138279
N1    N     N_R   0.500030 0.500030 0.852080 -0.226102
N2    N     N_R   0.499970 0.499970 0.147920 -0.226706
N3    N     N_1   0.222213 0.178588 0.241447 -0.304858
N4    N     N_1   0.777736 0.821450 0.758736 -0.308292
N5    N     N_1   0.226536 0.807713 0.235175 -0.284678
N6    N     N_1   0.773682 0.192406 0.764452 -0.280770
O1    O     O_R   0.499990 0.319660 0.618740 -0.510010
O2    O     O_R   0.500010 0.680340 0.381260 -0.510122
O3    O     O_R   0.499990 0.319630 0.381170 -0.494322
O4    O     O_R   0.500010 0.680370 0.618830 -0.493785
O5    O     O_R   0.320690 0.500020 0.575130 -0.527106
O6    O     O_R   0.679310 0.499980 0.424870 -0.528236
O7    O     O_R   0.320680 0.499990 0.337560 -0.488343
O8    O     O_R   0.679320 0.500010 0.662440 -0.487731

loop_
_geom_bond_atom_site_label_1
_geom_bond_atom_site_label_2
_ccdc_geom_bond_type
C21   O6    A    
C2    C4    D    
Cu2   O3    S    
C5    C7    A    
C23   N1    A    
C1    O1    A    
C13   H2    S    
C15   H6    S    
C4    H1    S    
C17   N4    T    
C13   H15   S    
C14   H3    S    
C7    C18   S    
Cu1   N1    S    
C14   H5    S    
Cu2   O6    S    
Cu1   O4    S    
C21   O8    A    
Cu2   O7    S    
C13   H16   S    
Cu2   O2    S    
C19   N6    T    
Cu2   N2    S    
C20   C26   S    
C2    C21   S    
C20   O5    A    
C23   H11   S    
C2    C11   S    
C16   N3    T    
C15   H7    S    
C12   O2    A    
Cu1   O1    S    
C11   H13   S    
Cu1   O5    S    
C23   C25   A    
C11   H12   S    
C9    C12   S    
C22   C24   A    
C13   C26   S    
C15   C25   S    
C8    C19   S    
C24   N1    A    
C3    C4    S    
C22   H10   S    
C15   H8    S    
C5    C10   A    
C6    C9    A    
C3    H9    S    
C11   H14   S    
C8    C10   A    
C14   C24   S    
Cu1   Cu2   S    
C7    C9    A    
C6    C17   S    
C1    O3    A    
C5    C16   S    
C6    C8    A    
C22   N2    A    
C20   O7    A    
C25   N2    A    
C3    C26   D    
C12   O4    A    
C1    C10   S    
C18   N5    T    
C14   H4    S    
Cu1   O8    S    
