data_mof_unit_13031.cif
_audit_creation_date              2013-03-05T15:43:04-0500
_audit_creation_method            fapswitch 2.2
_symmetry_space_group_name_H-M    P1
_symmetry_Int_Tables_number       1
_space_group_crystal_system       triclinic
_cell_length_a                    9.835083
_cell_length_b                    10.915874
_cell_length_c                    15.414582
_cell_angle_alpha                 89.512605
_cell_angle_beta                  72.982277
_cell_angle_gamma                 91.351927
_cell_volume                      1581.78030195

loop_
_atom_site_label
_atom_site_type_symbol
_atom_site_description
_atom_site_fract_x
_atom_site_fract_y
_atom_site_fract_z
_atom_type_partial_charge
O1    O     O_R   0.117050 0.321960 0.499980 -0.527280
O2    O     O_R   0.882890 0.321920 0.500020 -0.610538
C1    C     C_R   0.996601 0.265189 0.505494 0.746367
O3    O     O_R   0.052910 0.500040 0.629810 -0.541495
O4    O     O_R   0.818750 0.499990 0.629840 -0.585395
C2    C     C_R   0.916568 0.498572 0.672032 0.780335
Cu1   Cu    Cu3+1 0.138640 0.500020 0.499980 0.977852
Cu2   Cu    Cu3+1 0.861360 0.499980 0.500020 0.918981
O5    O     O_R   0.117110 0.678080 0.499980 -0.586281
O6    O     O_R   0.882950 0.678040 0.500020 -0.577236
O7    O     O_R   0.181250 0.500010 0.370160 -0.595523
O8    O     O_R   0.947090 0.499960 0.370190 -0.563178
C3    C     C_R   0.001514 0.733716 0.499011 0.812184
C4    C     C_R   0.083530 0.497679 0.327772 0.780781
C5    C     C_R   0.869750 0.494422 0.771491 -0.079639
C6    C     C_R   0.130423 0.479709 0.229219 -0.048869
C7    C     C_R   0.902556 0.557698 0.914042 -0.150312
C8    C     C_R   0.949206 0.557433 0.819751 -0.121877
C9    C     C_R   0.743015 0.430058 0.818548 0.037513
C10   C     C_R   0.678532 0.459555 0.911056 0.086068
C11   C     C_R   0.766980 0.510037 0.960041 0.098626
C12   C     C_R   0.530937 0.442660 0.956596 -0.041110
C13   C     C_R   0.481343 0.451384 0.052714 0.036502
C14   C     C_R   0.585008 0.461775 0.101403 0.091336
C15   C     C_R   0.721792 0.505891 0.054475 -0.253609
C16   C     C_R   0.431393 0.425646 0.907876 -0.279892
C17   C     C_R   0.287747 0.399972 0.951237 0.308507
C18   C     C_R   0.235343 0.416139 0.045663 0.034492
C19   C     C_R   0.331582 0.451171 0.094909 0.035346
C20   C     C_R   0.088022 0.409031 0.091013 -0.158642
C21   C     C_R   0.036886 0.436042 0.182890 -0.216236
C22   C     C_R   0.274405 0.495577 0.182653 -0.207544
H1    H     H_    0.796921 0.529180 0.091477 0.135206
H2    H     H_    0.339627 0.548381 0.214292 0.143386
H3    H     H_    0.924278 0.424266 0.217219 0.148705
H4    H     H_    0.969891 0.599280 0.950774 0.145080
H5    H     H_    0.049120 0.603573 0.784567 0.177362
H6    H     H_    0.463509 0.434237 0.835220 0.190135
H7    H     H_    0.010785 0.384219 0.056365 0.188186
C23   C     C_2   0.894485 0.924281 0.550101 -0.086055
C24   C     C_2   0.002904 0.865074 0.495129 -0.271192
H8    H     H_    0.811642 0.872493 0.600078 0.142799
H9    H     H_    0.086940 0.911595 0.442718 0.168407
C25   C     C_2   0.877773 0.056832 0.538570 -0.019380
C26   C     C_2   0.993808 0.132944 0.525200 0.154466
C27   C     C_2   0.413591 0.404840 0.519564 -0.010203
N1    N     N_2   0.346430 0.498660 0.500980 -0.156935
H10   H     H_    0.353620 0.320488 0.543581 0.183877
C28   C     C_2   0.574910 0.401534 0.498559 -0.146701
N2    N     N_2   0.652550 0.498630 0.501000 -0.298931
H11   H     H_    0.625963 0.316253 0.476500 0.162116
H12   H     H_    0.602266 0.558820 0.550079 0.220478
C29   C     C_3   0.733349 0.101528 0.537082 -0.415232
C30   C     C_3   0.615266 0.001520 0.556041 -0.446374
C31   C     C_3   0.477013 0.053296 0.549156 -0.681467
H13   H     H_    0.437965 0.123182 0.601989 0.259408
H14   H     H_    0.493748 0.095519 0.480939 0.261528
H15   H     H_    0.396276 0.977613 0.559297 0.288899
H16   H     H_    0.646486 0.927055 0.505831 0.235151
H17   H     H_    0.596076 0.962512 0.625527 0.229828
H18   H     H_    0.698924 0.173588 0.588890 0.218913
H19   H     H_    0.745977 0.140160 0.468208 0.208408
N3    N     N_R   0.122810 0.086798 0.537365 0.115756
O9    O     O_R   0.240488 0.096958 0.471364 -0.440212
O10   O     O_R   0.123718 0.040343 0.615225 -0.370813
C32   C     C_3   0.439745 0.601225 0.448097 -0.113456
C33   C     C_3   0.385019 0.703220 0.397785 -0.335487
C34   C     C_3   0.509213 0.772220 0.329965 -0.954989
H20   H     H_    0.585305 0.809384 0.364698 0.267657
H21   H     H_    0.565905 0.710484 0.274929 0.257578
H22   H     H_    0.468306 0.849955 0.298831 0.265020
H23   H     H_    0.316071 0.670289 0.358176 0.250899
H24   H     H_    0.332382 0.774201 0.446498 0.250060
H25   H     H_    0.478259 0.657410 0.495722 0.139290
H26   H     H_    0.528081 0.561514 0.393877 0.178613
N4    N     N_R   0.196648 0.363516 0.897424 0.112135
O11   O     O_R   0.111412 0.268264 0.921885 -0.371060
O12   O     O_R   0.220422 0.407574 0.815456 -0.380476
C35   C     C_3   0.703962 0.311987 0.776610 -0.379202
C36   C     C_3   0.680446 0.200719 0.841763 -0.322857
C37   C     C_3   0.659522 0.082587 0.794411 -0.829598
H27   H     H_    0.566547 0.089661 0.767726 0.262657
H28   H     H_    0.756142 0.064204 0.737707 0.267476
H29   H     H_    0.639922 0.004505 0.843532 0.248750
H30   H     H_    0.774187 0.191582 0.867593 0.250578
H31   H     H_    0.584901 0.212183 0.900580 0.229970
H32   H     H_    0.612433 0.322898 0.749566 0.198489
H33   H     H_    0.793145 0.287979 0.716517 0.196059
C38   C     C_3   0.565564 0.408908 0.196623 -0.409657
C39   C     C_3   0.511410 0.274956 0.205523 -0.334152
C40   C     C_3   0.500939 0.221535 0.299144 -0.797542
H34   H     H_    0.606467 0.225686 0.311835 0.232414
H35   H     H_    0.423712 0.273286 0.352395 0.283452
H36   H     H_    0.463810 0.124227 0.303091 0.260943
H37   H     H_    0.404530 0.267926 0.195140 0.234628
H38   H     H_    0.585495 0.219430 0.153061 0.222231
H39   H     H_    0.669822 0.409972 0.211274 0.188411
H40   H     H_    0.498592 0.464593 0.251214 0.196329

loop_
_geom_bond_atom_site_label_1
_geom_bond_atom_site_label_2
_geom_bond_distance
_ccdc_geom_bond_type
C5    C8    1.400276 A    
C31   H13   1.110866 S    
N3    O10   1.301463 A    
C9    C10   1.423856 A    
C14   C38   1.529720 S    
C3    C24   1.434198 S    
C37   H27   1.110981 S    
Cu1   Cu2   2.726881 S    
C30   H17   1.110993 S    
C29   C30   1.536879 S    
C6    C21   1.397557 A    
Cu1   O7    1.920740 S    
C27   C28   1.524992 S    
C16   C17   1.395208 A    
C13   C19   1.425331 A    
C18   C19   1.423653 A    
C8    H5    1.083271 S    
N4    O12   1.301469 A    
C19   C22   1.399771 A    
C20   C21   1.393837 A    
O7    C4    1.310705 A    
C32   H25   1.103652 S    
C33   H23   1.093807 S    
O5    C3    1.305355 A    
C36   H31   1.108813 S    
C2    C5    1.465999 S    
C27   N1    1.305714 D    
C29   H18   1.111808 S    
C25   C29   1.519132 S    
C34   H20   1.111392 S    
C28   H11   1.077885 S    
N2    H12   1.026350 S    
C13   C14   1.435111 A    
C33   H24   1.110616 S    
C7    H4    1.083914 S    
N1    C32   1.502776 S    
C23   H8    1.086448 S    
C32   C33   1.545520 S    
C24   H9    1.084458 S    
O3    Cu1   1.930891 S    
C35   H32   1.105522 S    
C35   H33   1.111519 S    
C37   H28   1.110442 S    
C30   H16   1.112386 S    
C27   H10   1.083295 S    
C33   C34   1.532296 S    
C39   H37   1.109663 S    
N4    O11   1.301235 A    
O3    C2    1.307637 A    
C40   H34   1.110983 S    
C16   H6    1.073608 S    
C26   N3    1.437506 S    
C7    C11   1.399638 A    
N3    O9    1.299871 A    
C38   H39   1.112466 S    
O1    C1    1.303889 A    
C22   H2    1.073330 S    
C5    C9    1.412164 A    
C36   H30   1.112207 S    
C40   H35   1.110398 S    
C29   H19   1.110456 S    
Cu2   O8    1.930894 S    
C7    C8    1.390266 A    
C14   C15   1.399583 A    
C9    C35   1.537103 S    
Cu2   O6    1.950257 S    
C23   C24   1.336296 D    
C10   C12   1.422207 A    
C31   H14   1.110012 S    
C21   H3    1.082687 S    
C17   N4    1.439793 S    
Cu2   N2    2.048997 S    
C37   H29   1.110307 S    
C25   C26   1.360074 D    
Cu1   O5    1.960140 S    
C11   C15   1.392024 A    
C30   C31   1.516338 S    
O1    Cu1   1.950258 S    
O2    Cu2   1.960141 S    
O8    C4    1.310390 A    
C36   C37   1.526228 S    
O6    C3    1.298138 A    
O4    Cu2   1.920740 S    
C39   H38   1.111983 S    
C6    C22   1.393502 A    
C38   H40   1.102098 S    
C18   C20   1.412429 A    
O2    C1    1.314668 A    
C40   H36   1.110371 S    
C39   C40   1.526155 S    
O4    C2    1.309791 A    
C34   H22   1.111029 S    
C32   H26   1.113612 S    
C1    C26   1.470615 S    
C20   H7    1.079764 S    
C4    C6    1.469097 S    
C35   C36   1.538639 S    
C23   C25   1.475157 S    
C10   C11   1.414030 A    
C34   H21   1.111454 S    
C28   N2    1.298906 D    
C12   C16   1.407520 A    
C31   H15   1.109800 S    
C15   H1    1.084538 S    
C17   C18   1.408879 A    
C12   C13   1.422595 A    
C38   C39   1.535444 S    
Cu1   N1    2.048600 S    
