data_mof_unit_41321.cif
_audit_creation_date              2012-10-26T20:23:38-0400
_audit_creation_method            fapswitch 2.2
_symmetry_space_group_name_H-M    P1
_symmetry_Int_Tables_number       1
_space_group_crystal_system       triclinic
_cell_length_a                    12.727906
_cell_length_b                    13.888665
_cell_length_c                    15.881506
_cell_angle_alpha                 90.3384
_cell_angle_beta                  92.713011
_cell_angle_gamma                 97.474253
_cell_volume                      2780.25154082

loop_
_atom_site_label
_atom_site_type_symbol
_atom_type_description
_atom_site_fract_x
_atom_site_fract_y
_atom_site_fract_z
_atom_type_partial_charge
C1    C     C_R   0.484098 0.315902 0.500265 0.547599
C2    C     C_1   0.145635 0.482946 0.480936 0.165171
C3    C     C_R   0.500656 0.499619 0.339607 0.543191
C4    C     C_R   0.499344 0.500387 0.660393 0.543178
C5    C     C_3   0.467790 0.411655 0.967239 0.238542
C6    C     C_3   0.532210 0.588417 0.032764 0.238547
C7    C     C_3   0.568581 0.437094 0.025435 -0.064904
C8    C     C_3   0.431419 0.562977 0.974566 -0.064896
C9    C     C_1   0.501824 0.497879 0.250247 -0.012268
C10   C     C_1   0.498177 0.502152 0.749753 -0.012281
C11   C     C_3   0.402818 0.468840 0.024664 0.237696
C12   C     C_R   0.515901 0.684097 0.499732 0.547603
C13   C     C_3   0.597183 0.531232 0.975339 0.237687
C14   C     C_3   0.503048 0.494859 0.083503 -0.008493
C15   C     C_3   0.496953 0.505212 0.916498 -0.008510
C16   C     C_1   0.502333 0.496084 0.174919 0.003525
C17   C     C_1   0.497668 0.503969 0.825081 0.003510
C18   C     C_1   0.522937 0.786710 0.492036 -0.029999
C19   C     C_1   0.477058 0.213290 0.507960 -0.030006
C20   C     C_R   0.647130 0.367393 0.047056 0.019033
C21   C     C_R   0.709866 0.337660 0.983762 -0.072055
C22   C     C_R   0.783421 0.273357 0.002143 -0.130061
C23   C     C_2   0.526647 0.976368 0.472591 0.290904
C24   C     C_R   0.793764 0.236954 0.083477 -0.116256
C25   C     C_R   0.730305 0.264626 0.146368 -0.124217
C26   C     C_R   0.657413 0.329644 0.128467 -0.114225
C27   C     C_R   0.352870 0.632676 0.952939 0.019048
C28   C     C_R   0.290137 0.662419 0.016231 -0.072057
C29   C     C_R   0.216581 0.726721 0.997844 -0.130062
C30   C     C_R   0.206235 0.763112 0.916506 -0.116249
C31   C     C_R   0.269690 0.735428 0.853616 -0.124253
C32   C     C_R   0.342583 0.670413 0.871524 -0.114251
C33   C     C_3   0.421108 0.245749 0.982939 -0.011731
C34   C     C_2   0.473346 0.023631 0.527397 0.290914
C35   C     C_3   0.354467 0.157930 0.941169 -0.385702
C36   C     C_3   0.578883 0.754327 0.017076 -0.011737
C37   C     C_3   0.645540 0.842139 0.058846 -0.385683
C38   C     C_3   0.773498 0.590389 0.008521 0.007906
C39   C     C_3   0.883399 0.584096 0.976872 -0.385954
C40   C     C_3   0.226498 0.409680 0.991492 0.007926
C41   C     C_3   0.116607 0.416065 0.023125 -0.385941
C42   C     C_3   0.376016 0.030665 0.648852 -0.008562
C43   C     C_3   0.324812 0.967759 0.717693 -0.371325
C44   C     C_3   0.624412 0.969390 0.351358 -0.008549
C45   C     C_1   0.473886 0.127272 0.516605 -0.020795
C46   C     C_3   0.675645 0.032295 0.282530 -0.371363
C47   C     C_3   0.966574 0.598640 0.660496 -0.010002
C48   C     C_3   0.037096 0.644674 0.733767 -0.359716
C49   C     C_3   0.033428 0.401212 0.339550 -0.010010
C50   C     C_3   0.962917 0.355178 0.266275 -0.359752
C51   C     C_1   0.526105 0.872727 0.483386 -0.020827
C52   C     C_2   0.027638 0.479429 0.470379 0.250606
C53   C     C_2   0.972360 0.520563 0.529605 0.250607
C54   C     C_1   0.854364 0.517050 0.519055 0.165168
Cu1   Cu    Cu3+1 0.395330 0.493960 0.494680 1.001453
Cu2   Cu    Cu3+1 0.604670 0.506040 0.505320 1.001409
H1    H     H_    0.702108 0.364636 0.920232 0.154522
H2    H     H_    0.391408 0.651526 0.821929 0.116709
H3    H     H_    0.382343 0.264629 0.041149 0.153772
H4    H     H_    0.500131 0.224321 0.000406 0.152836
H5    H     H_    0.393058 0.135544 0.884230 0.159617
H6    H     H_    0.346624 0.096477 0.985834 0.097814
H7    H     H_    0.274128 0.175626 0.922392 0.143580
H8    H     H_    0.499858 0.775761 0.999623 0.152835
H9    H     H_    0.617634 0.735451 0.958858 0.153758
H10   H     H_    0.725886 0.824440 0.077595 0.143555
H11   H     H_    0.653364 0.903600 0.014190 0.097795
H12   H     H_    0.832162 0.251536 0.953251 0.103971
H13   H     H_    0.606977 0.864514 0.115804 0.159671
H14   H     H_    0.763396 0.543331 0.064826 0.145714
H15   H     H_    0.769818 0.666505 0.028292 0.160083
H16   H     H_    0.898077 0.632986 0.922433 0.154521
H17   H     H_    0.944604 0.606319 0.027894 0.092815
H18   H     H_    0.889886 0.508383 0.956972 0.156944
H19   H     H_    0.230131 0.333539 0.971769 0.160035
H20   H     H_    0.236635 0.456688 0.935157 0.145707
H21   H     H_    0.110161 0.491808 0.042957 0.156937
H22   H     H_    0.055394 0.393811 0.972115 0.092799
H23   H     H_    0.850497 0.186955 0.097684 0.103493
H24   H     H_    0.101902 0.367243 0.077606 0.154559
H25   H     H_    0.313628 0.068150 0.616357 0.139326
H26   H     H_    0.438616 0.085040 0.679246 0.135420
H27   H     H_    0.385311 0.929958 0.751980 0.157662
H28   H     H_    0.289353 0.013762 0.763139 0.090578
H29   H     H_    0.261372 0.912905 0.689563 0.158791
H30   H     H_    0.562114 0.914767 0.320917 0.135505
H31   H     H_    0.686871 0.932208 0.384095 0.139276
H32   H     H_    0.738787 0.087400 0.310706 0.158790
H33   H     H_    0.711493 0.986342 0.237282 0.090615
H34   H     H_    0.737444 0.235632 0.209125 0.109738
H35   H     H_    0.615081 0.069796 0.248006 0.157659
H36   H     H_    0.912705 0.536607 0.685099 0.139076
H37   H     H_    0.919550 0.654624 0.634072 0.138027
H38   H     H_    0.090897 0.707640 0.711239 0.156586
H39   H     H_    0.987493 0.670363 0.782729 0.092435
H40   H     H_    0.085203 0.590800 0.762085 0.168873
H41   H     H_    0.080335 0.345188 0.366059 0.137999
H42   H     H_    0.087403 0.463156 0.314927 0.139135
H43   H     H_    0.914938 0.409099 0.237869 0.168876
H44   H     H_    0.012522 0.329351 0.217379 0.092427
H45   H     H_    0.608586 0.348524 0.178063 0.116717
H46   H     H_    0.908997 0.292306 0.288826 0.156566
H47   H     H_    0.297896 0.635452 0.079763 0.154535
H48   H     H_    0.167843 0.748549 0.046735 0.103989
H49   H     H_    0.149502 0.813110 0.902294 0.103495
H50   H     H_    0.262545 0.764410 0.790856 0.109759
N1    N     N_1   0.238040 0.484880 0.486690 -0.202649
N2    N     N_1   0.761960 0.515120 0.513310 -0.202661
O1    O     O_R   0.399110 0.356330 0.494860 -0.497973
O2    O     O_3   0.568833 0.677267 0.074897 -0.563662
O3    O     O_3   0.696809 0.563324 0.942480 -0.570589
O4    O     O_3   0.303193 0.436752 0.057527 -0.570587
O5    O     O_3   0.420362 0.971095 0.591398 -0.579672
O6    O     O_3   0.579575 0.028900 0.408561 -0.579693
O7    O     O_3   0.030905 0.566299 0.598889 -0.587447
O8    O     O_3   0.969097 0.433713 0.401083 -0.587454
O9    O     O_R   0.600890 0.643670 0.505140 -0.497990
O10   O     O_R   0.575890 0.366540 0.503840 -0.479717
O11   O     O_R   0.424110 0.633460 0.496160 -0.479678
O12   O     O_R   0.411620 0.494890 0.374590 -0.494945
O13   O     O_R   0.588380 0.505110 0.625410 -0.494957
O14   O     O_R   0.588400 0.505100 0.383570 -0.485544
O15   O     O_R   0.411600 0.494900 0.616430 -0.485550
O16   O     O_3   0.431164 0.322802 0.925112 -0.563661

loop_
_geom_bond_atom_site_label_1
_geom_bond_atom_site_label_2
_ccdc_geom_bond_type
Cu1   Cu2   S    
C38   H14   S    
C48   H39   S    
C37   H13   S    
C43   H27   S    
Cu2   O9    S    
C42   H26   S    
C32   H2    S    
C41   H24   S    
C40   O4    S    
C46   H33   S    
Cu1   O11   S    
C53   C54   S    
C34   O5    S    
C47   O7    S    
C5    O16   S    
C50   H43   S    
C48   H38   S    
C28   C29   A    
C9    C16   T    
C5    C11   S    
C26   H45   S    
C41   H21   S    
C30   C31   A    
C11   C14   S    
C10   C17   T    
C2    N1    T    
C47   H36   S    
C39   H18   S    
Cu2   N2    S    
C24   H23   S    
C1    O1    A    
C49   H42   S    
C7    C14   S    
C47   C48   S    
C33   O16   S    
C39   H16   S    
C44   H31   S    
C3    O14   A    
C27   C32   A    
C44   O6    S    
C33   H3    S    
C21   C22   A    
Cu1   O1    S    
C43   H28   S    
C6    O2    S    
C42   H25   S    
C44   H30   S    
C44   C46   S    
C18   C51   T    
C46   H32   S    
Cu1   O12   S    
C52   O8    S    
Cu1   O15   S    
C1    C19   S    
C43   H29   S    
C24   C25   A    
C41   H22   S    
C5    C7    S    
C36   H9    S    
C6    C8    S    
C46   H35   S    
C25   C26   A    
C7    C20   S    
C40   H20   S    
C4    O15   A    
Cu1   N1    S    
Cu2   O14   S    
C21   H1    S    
C29   C30   A    
C3    C9    S    
C6    C14   S    
C12   O11   A    
C42   O5    S    
C23   C51   S    
C31   C32   A    
C23   C34   D    
C37   H10   S    
C47   H37   S    
C35   H5    S    
C34   C45   S    
C22   H12   S    
C2    C52   S    
C40   C41   S    
C50   H46   S    
C33   H4    S    
C13   C15   S    
C30   H49   S    
C36   O2    S    
C31   H50   S    
C14   C16   S    
C42   C43   S    
C4    C10   S    
C52   C53   D    
C15   C17   S    
C38   H15   S    
C36   C37   S    
C48   H40   S    
C11   O4    S    
Cu2   O10   S    
C25   H34   S    
C19   C45   T    
C8    C15   S    
C50   H44   S    
C40   H19   S    
C54   N2    T    
Cu2   O13   S    
C13   O3    S    
C23   O6    S    
C28   H47   S    
C38   C39   S    
C20   C26   A    
C8    C11   S    
C37   H11   S    
C33   C35   S    
C4    O13   A    
C35   H6    S    
C22   C24   A    
C1    O10   A    
C39   H17   S    
C5    C15   S    
C3    O12   A    
C49   H41   S    
C12   O9    A    
C7    C13   S    
C49   O8    S    
C20   C21   A    
C29   H48   S    
C49   C50   S    
C12   C18   S    
C27   C28   A    
C8    C27   S    
C35   H7    S    
C38   O3    S    
C36   H8    S    
C53   O7    S    
C6    C13   S    
