data_mof_unit_18262.cif
_audit_creation_date              2013-03-05T15:49:41-0500
_audit_creation_method            fapswitch 2.2
_symmetry_space_group_name_H-M    P1
_symmetry_Int_Tables_number       1
_space_group_crystal_system       triclinic
_cell_length_a                    23.529475
_cell_length_b                    12.93922
_cell_length_c                    11.659597
_cell_angle_alpha                 100.703092
_cell_angle_beta                  94.242682
_cell_angle_gamma                 90.497576
_cell_volume                      3477.57385929

loop_
_atom_site_label
_atom_site_type_symbol
_atom_site_description
_atom_site_fract_x
_atom_site_fract_y
_atom_site_fract_z
_atom_type_partial_charge
O1    O     O_R   0.502990 0.354470 0.582000 -0.599813
O2    O     O_R   0.497010 0.645530 0.418000 -0.588669
O3    O     O_R   0.495870 0.341410 0.386200 -0.559155
O4    O     O_R   0.504130 0.658590 0.613800 -0.551309
C1    C     C_R   0.506608 0.299232 0.478209 0.829351
C2    C     C_R   0.493265 0.700623 0.522085 0.842123
O5    O     O_R   0.421440 0.506500 0.597920 -0.549385
O6    O     O_R   0.578560 0.493500 0.402080 -0.567750
O7    O     O_R   0.414320 0.493440 0.402120 -0.515325
O8    O     O_R   0.585680 0.506560 0.597880 -0.545819
C3    C     C_R   0.390636 0.508401 0.501491 0.875703
C4    C     C_R   0.608927 0.502012 0.499935 0.939236
Cu1   Cu    Cu3+1 0.504210 0.507730 0.615930 1.006467
Cu2   Cu    Cu3+1 0.495790 0.492270 0.384070 1.011343
C5    C     C_R   0.877354 0.584714 0.436302 0.532144
C6    C     C_R   0.119651 0.490363 0.593530 0.528493
N1    N     N_R   0.851594 0.543921 0.519493 -0.455479
N2    N     N_R   0.147444 0.550324 0.529980 -0.456735
C7    C     C_R   0.882102 0.512314 0.610147 0.568508
C8    C     C_R   0.118624 0.618170 0.471285 0.573152
C9    C     C_R   0.942135 0.510283 0.613664 -0.106692
C10   C     C_R   0.058225 0.615661 0.460500 -0.098400
C11   C     C_R   0.969729 0.559347 0.532631 -0.083058
C12   C     C_R   0.029827 0.561535 0.535588 -0.080320
C13   C     C_R   0.937187 0.603286 0.446690 -0.070297
C14   C     C_R   0.061954 0.508385 0.613279 -0.074637
C15   C     C_R   0.975248 0.463779 0.696790 0.280847
C16   C     C_R   0.025881 0.664760 0.378798 0.264284
C17   C     C_R   0.035217 0.472380 0.704042 0.104407
C18   C     C_R   0.965491 0.661188 0.373408 0.074962
O9    O     O_2   0.844548 0.605091 0.343866 -0.555463
O10   O     O_2   0.147486 0.411900 0.633506 -0.540442
O11   O     O_2   0.853690 0.483640 0.695814 -0.480615
O12   O     O_2   0.148870 0.685921 0.423573 -0.474734
C19   C     C_R   0.230142 0.495805 0.416465 0.107019
C20   C     C_R   0.763659 0.434538 0.465144 0.130188
C21   C     C_R   0.289317 0.501640 0.405791 0.209058
C22   C     C_R   0.703786 0.424335 0.461832 0.140789
C23   C     C_R   0.327751 0.526552 0.507252 -0.247827
C24   C     C_R   0.671061 0.512691 0.500035 -0.190230
C25   C     C_R   0.305088 0.571292 0.615435 0.183606
C26   C     C_R   0.697301 0.612805 0.534368 0.193497
C27   C     C_R   0.245640 0.584517 0.621190 0.113353
C28   C     C_R   0.757208 0.623181 0.546790 0.109318
C29   C     C_R   0.208215 0.541190 0.523365 0.213585
C30   C     C_R   0.790332 0.533676 0.511257 0.225134
C31   C     C_R   0.482707 0.815250 0.535590 -0.093378
C32   C     C_R   0.516980 0.184428 0.466147 -0.089568
C33   C     C_R   0.503323 0.010890 0.346045 -0.199119
C34   C     C_R   0.495053 0.988626 0.656105 -0.189850
C35   C     C_R   0.517157 0.117351 0.354786 0.148591
C36   C     C_R   0.482334 0.881744 0.647185 0.143690
C37   C     C_R   0.523179 0.137738 0.567865 0.085269
C38   C     C_R   0.475431 0.862377 0.434748 0.083919
C39   C     C_R   0.505392 0.031390 0.557241 0.058246
C40   C     C_R   0.493310 0.968527 0.445156 0.062384
H1    H     H_    0.502517 0.960532 0.260942 0.147344
H2    H     H_    0.494864 0.038525 0.741280 0.140142
N3    N     N_R   0.510550 0.519360 0.790130 -0.201410
N4    N     N_R   0.489450 0.480640 0.209870 -0.205813
C41   C     C_R   0.448931 0.397103 0.016957 -0.302455
C42   C     C_R   0.551049 0.602517 0.983153 -0.321428
C43   C     C_R   0.453936 0.405472 0.139030 0.500472
C44   C     C_R   0.547334 0.592004 0.860925 0.463427
C45   C     C_R   0.521423 0.545917 0.159208 -0.015217
C46   C     C_R   0.477462 0.455826 0.840953 0.031892
C47   C     C_R   0.517964 0.538076 0.036034 0.016683
C48   C     C_R   0.480974 0.463352 0.964176 0.016374
H3    H     H_    0.448491 0.398916 0.785699 0.143683
H4    H     H_    0.549965 0.603614 0.214487 0.149783
H5    H     H_    0.420594 0.337705 0.963548 0.171769
H6    H     H_    0.580197 0.660561 0.036443 0.172801
Br1   Br    Br    0.941573 0.374347 0.791645 -0.456825
Br2   Br    Br    0.062583 0.727511 0.262992 -0.479626
Br3   Br    Br    0.596776 0.684099 0.802431 -0.481315
Br4   Br    Br    0.409822 0.303586 0.196656 -0.487700
C49   C     C_3   0.068966 0.456469 0.816539 -0.343467
C50   C     C_3   0.054568 0.539379 0.921669 -0.773938
H7    H     H_    0.064614 0.619425 0.905945 0.254305
H8    H     H_    0.008992 0.535090 0.938815 0.281199
H9    H     H_    0.080511 0.526863 0.001291 0.263636
H10   H     H_    0.060964 0.376124 0.833375 0.247133
H11   H     H_    0.115475 0.465440 0.813699 0.242475
C51   C     C_3   0.932802 0.727792 0.296628 -0.320686
C52   C     C_3   0.919826 0.668165 0.170819 -0.651367
H12   H     H_    0.959437 0.655318 0.124693 0.254115
H13   H     H_    0.899373 0.590219 0.168723 0.278100
H14   H     H_    0.890745 0.714901 0.122153 0.233775
H15   H     H_    0.893333 0.758719 0.335344 0.224224
H16   H     H_    0.956986 0.801401 0.294795 0.219001
C53   C     C_3   0.190590 0.440676 0.313240 -0.322233
C54   C     C_3   0.201389 0.322667 0.286299 -0.743198
H17   H     H_    0.245648 0.306996 0.262147 0.290768
H18   H     H_    0.194017 0.287172 0.363849 0.262825
H19   H     H_    0.171608 0.284381 0.211902 0.244368
H20   H     H_    0.144986 0.448645 0.329804 0.202919
H21   H     H_    0.195818 0.475769 0.234632 0.249447
C55   C     C_3   0.798876 0.340375 0.417570 -0.327441
C56   C     C_3   0.799691 0.325610 0.284713 -0.735591
H22   H     H_    0.755840 0.313907 0.241699 0.282328
H23   H     H_    0.819826 0.395448 0.260102 0.272629
H24   H     H_    0.824823 0.255419 0.252194 0.240110
H25   H     H_    0.843560 0.348406 0.455691 0.205133
H26   H     H_    0.782083 0.267752 0.442153 0.244288
Br5   Br    Br    0.313745 0.494550 0.250059 -0.479664
Br6   Br    Br    0.665876 0.290383 0.401467 -0.630946
Br7   Br    Br    0.353816 0.624063 0.756623 -0.562586
Br8   Br    Br    0.650767 0.736455 0.550078 -0.498595
C57   C     C_3   0.222271 0.649145 0.730017 -0.326567
C58   C     C_3   0.228508 0.766808 0.730383 -0.753871
H27   H     H_    0.273811 0.790316 0.728154 0.271651
H28   H     H_    0.203641 0.787037 0.653158 0.270762
H29   H     H_    0.211927 0.812151 0.810987 0.245952
H30   H     H_    0.176636 0.632290 0.736625 0.194470
H31   H     H_    0.243663 0.629620 0.811037 0.248280
C59   C     C_3   0.785472 0.729093 0.600186 -0.346325
C60   C     C_3   0.781186 0.753766 0.732485 -0.725085
H32   H     H_    0.736010 0.757070 0.754059 0.297059
H33   H     H_    0.802931 0.692605 0.773923 0.267778
H34   H     H_    0.802185 0.831197 0.769399 0.237035
H35   H     H_    0.831246 0.732069 0.584648 0.196851
H36   H     H_    0.765890 0.792449 0.559250 0.240518
C61   C     C_3   0.441873 0.805480 0.322706 -0.415152
C62   C     C_3   0.384097 0.762921 0.347782 -0.703255
H37   H     H_    0.389050 0.701417 0.402037 0.242207
H38   H     H_    0.358919 0.827794 0.394056 0.245137
H39   H     H_    0.359952 0.727847 0.263945 0.273663
H40   H     H_    0.431041 0.859236 0.261137 0.202406
H41   H     H_    0.466931 0.742319 0.273791 0.230319
C63   C     C_3   0.553487 0.196216 0.683275 -0.416930
C64   C     C_3   0.611261 0.243883 0.666365 -0.688576
H42   H     H_    0.638189 0.182522 0.619021 0.273245
H43   H     H_    0.606420 0.308923 0.617289 0.268574
H44   H     H_    0.633508 0.276360 0.753120 0.234534
H45   H     H_    0.525944 0.256465 0.729846 0.213940
H46   H     H_    0.564229 0.142609 0.744970 0.202074
C65   C     C_3   0.465188 0.845613 0.757198 -0.359660
C66   C     C_3   0.412859 0.902989 0.805320 -0.809722
H47   H     H_    0.422613 0.987604 0.839529 0.243135
H48   H     H_    0.377265 0.894991 0.735869 0.264929
H49   H     H_    0.398792 0.867786 0.878740 0.271551
H50   H     H_    0.452922 0.761692 0.742060 0.265453
H51   H     H_    0.501418 0.859490 0.825340 0.228217
C67   C     C_3   0.534790 0.153148 0.244907 -0.354975
C68   C     C_3   0.583533 0.088533 0.190147 -0.774712
H52   H     H_    0.618332 0.081682 0.257867 0.296015
H53   H     H_    0.568296 0.008608 0.146049 0.234536
H54   H     H_    0.601047 0.127853 0.122978 0.251485
H55   H     H_    0.497687 0.145637 0.179174 0.223490
H56   H     H_    0.550677 0.235533 0.262740 0.259327

loop_
_geom_bond_atom_site_label_1
_geom_bond_atom_site_label_2
_geom_bond_distance
_ccdc_geom_bond_type
C46   C48   1.418041 A    
C38   C61   1.533654 S    
C22   Br6   1.929314 S    
C15   C17   1.409502 A    
C63   H45   1.107338 S    
C41   C48   1.391152 A    
C39   C40   1.412980 A    
C64   H44   1.110740 S    
C16   Br2   1.948274 S    
C68   H52   1.110547 S    
C61   C62   1.530496 S    
C23   C25   1.429749 A    
C49   C50   1.532147 S    
O5    C3    1.296164 A    
N3    C44   1.380560 A    
C59   H36   1.109734 S    
C42   C47   1.390016 A    
N4    C43   1.382692 A    
O1    C1    1.295227 A    
C19   C21   1.409671 A    
C12   C14   1.415639 A    
C60   H33   1.110844 S    
N3    C46   1.367908 A    
C50   H8    1.108072 S    
C5    C13   1.418627 A    
C46   H3    1.082622 S    
C43   Br4   1.917084 S    
C49   H11   1.103049 S    
C45   H4    1.082736 S    
C33   H1    1.079989 S    
C59   C60   1.527166 S    
O4    Cu1   1.956789 S    
C41   C43   1.403277 A    
C58   H27   1.109458 S    
C67   H56   1.103883 S    
C53   H20   1.106581 S    
C32   C35   1.421788 A    
C33   C35   1.396084 A    
C34   C36   1.395619 A    
C11   C12   1.411861 A    
C20   C30   1.417172 A    
C42   C44   1.402319 A    
C8    O12   1.346591 S    
C41   H5    1.083943 S    
C37   C39   1.415290 A    
C9    C15   1.421797 A    
C10   C16   1.419926 A    
Cu1   Cu2   2.665857 S    
C61   H41   1.107169 S    
C25   C27   1.415685 A    
O2    C2    1.297813 A    
C26   C28   1.408967 A    
C68   H53   1.109584 S    
C28   C30   1.416178 A    
C52   H13   1.109088 S    
C6    C14   1.407902 A    
C32   C37   1.426507 A    
C1    C32   1.489882 S    
C38   C40   1.413743 A    
C65   H50   1.099722 S    
C59   H35   1.106831 S    
C47   C48   1.403892 A    
C34   H2    1.079672 S    
N1    C30   1.440856 S    
O4    C2    1.297179 A    
C7    O11   1.347002 S    
C60   H34   1.110381 S    
C53   C54   1.528130 S    
C50   H7    1.111277 S    
C45   C47   1.417003 A    
C52   H12   1.108692 S    
C66   H49   1.110861 S    
C54   H19   1.110537 S    
C53   H21   1.109798 S    
C4    C24   1.467188 S    
O7    Cu2   1.943764 S    
C21   Br5   1.931136 S    
C67   H55   1.109426 S    
O7    C3    1.305585 A    
C56   H22   1.109750 S    
O6    C4    1.286768 A    
C54   H18   1.111158 S    
C36   C65   1.524044 S    
C42   H6    1.084049 S    
C51   C52   1.532802 S    
C3    C23   1.504635 S    
C27   C29   1.412799 A    
C58   H29   1.110445 S    
O3    Cu2   1.956789 S    
O8    C4    1.294156 A    
C57   H30   1.104938 S    
C31   C38   1.421961 A    
Cu1   N3    2.002879 S    
C56   H23   1.110131 S    
C8    C10   1.416985 A    
N4    C45   1.366879 A    
C62   H39   1.110325 S    
C10   C12   1.417613 A    
O1    Cu1   1.948284 S    
C51   H15   1.108043 S    
C64   H42   1.110961 S    
C19   C29   1.411775 A    
N2    C29   1.442385 S    
O3    C1    1.300885 A    
C65   H51   1.110996 S    
C68   H54   1.110916 S    
C62   H38   1.111030 S    
C52   H14   1.110437 S    
C13   C18   1.431162 A    
C5    N1    1.363246 A    
O6    Cu2   1.942923 S    
C25   Br7   1.944318 S    
C7    C9    1.410713 A    
C63   H46   1.106313 S    
C67   C68   1.532584 S    
C64   H43   1.104319 S    
O8    Cu1   1.943761 S    
C5    O9    1.346446 S    
C31   C36   1.421029 A    
C66   H48   1.111249 S    
C6    O10   1.348739 S    
C33   C40   1.401678 A    
Cu2   N4    2.002879 S    
C65   C66   1.531465 S    
C34   C39   1.403631 A    
C9    C11   1.422552 A    
C63   C64   1.528892 S    
C16   C18   1.417643 A    
C21   C23   1.419922 A    
C15   Br1   1.944005 S    
C60   H32   1.109668 S    
C20   C22   1.410823 A    
C22   C24   1.405442 A    
C50   H9    1.111039 S    
C61   H40   1.107061 S    
C49   H10   1.110245 S    
C55   H26   1.109801 S    
C24   C26   1.405858 A    
C54   H17   1.109418 S    
N1    C7    1.361314 A    
C44   Br3   1.906243 S    
N2    C8    1.365156 A    
C11   C13   1.421012 A    
C18   C51   1.527073 S    
O2    Cu2   1.948283 S    
C58   H28   1.110780 S    
C66   H47   1.109217 S    
C57   H31   1.109071 S    
C51   H16   1.109673 S    
C2    C31   1.487208 S    
O5    Cu1   1.942923 S    
C56   H24   1.110363 S    
C17   C49   1.530522 S    
C28   C59   1.521154 S    
C14   C17   1.417500 A    
C6    N2    1.361998 A    
C55   C56   1.526752 S    
C35   C67   1.524387 S    
C20   C55   1.520958 S    
C37   C63   1.536962 S    
C27   C57   1.526033 S    
C57   C58   1.527442 S    
C26   Br8   1.934803 S    
C55   H25   1.107057 S    
C62   H37   1.106703 S    
C19   C53   1.525546 S    
