data_mof_unit_33162.cif
_audit_creation_date              2012-12-10T19:55:52-0500
_audit_creation_method            fapswitch 2.2
_symmetry_space_group_name_H-M    P1
_symmetry_Int_Tables_number       1
_space_group_crystal_system       triclinic
_cell_length_a                    18.302381
_cell_length_b                    18.318764
_cell_length_c                    59.582718
_cell_angle_alpha                 90.121918
_cell_angle_beta                  90.062932
_cell_angle_gamma                 90.026556
_cell_volume                      19976.6553911

loop_
_atom_site_label
_atom_site_type_symbol
_atom_type_description
_atom_site_fract_x
_atom_site_fract_y
_atom_site_fract_z
_atom_type_partial_charge
C1    C     C_R   0.500013 0.999987 0.939322 0.972389
C2    C     C_R   0.999738 0.499907 0.939419 0.995399
C3    C     C_R   0.999909 0.500263 0.439381 0.990511
C4    C     C_R   0.499796 0.999839 0.439413 0.973422
C5    C     C_R   0.574204 0.996783 0.094592 0.353717
C6    C     C_R   0.989288 0.573640 0.095418 0.378760
C7    C     C_R   0.441004 0.005276 0.098613 0.378504
C8    C     C_R   0.007926 0.441038 0.097976 0.388697
C9    C     C_R   0.064261 0.496257 0.596338 0.330173
C10   C     C_R   0.516300 0.075694 0.594492 0.356458
C11   C     C_R   0.930384 0.500396 0.596782 0.372876
C12   C     C_R   0.479182 0.948396 0.598965 0.327218
C13   C     C_R   0.518970 0.991533 0.131677 0.109921
C14   C     C_R   0.998072 0.514816 0.131924 0.097384
C15   C     C_R   0.998966 0.492267 0.631824 0.131547
C16   C     C_R   0.504180 0.023972 0.632023 0.129070
C17   C     C_R   0.530468 0.986307 0.202394 -0.179121
C18   C     C_R   0.999943 0.530239 0.202625 -0.191871
C19   C     C_R   0.992983 0.496129 0.702526 -0.190270
C20   C     C_R   0.512706 0.047970 0.702649 -0.187049
C21   C     C_R   0.523235 0.920578 0.190102 -0.130778
C22   C     C_R   0.064359 0.544462 0.190247 -0.115774
C23   C     C_R   0.535701 0.053607 0.190817 -0.117210
C24   C     C_R   0.934855 0.510584 0.191229 -0.098755
C25   C     C_R   0.999399 0.428692 0.691044 -0.105373
C26   C     C_R   0.576974 0.031149 0.690485 -0.114527
C27   C     C_R   0.990526 0.562121 0.690230 -0.116629
C28   C     C_R   0.446185 0.058753 0.690995 -0.110734
C29   C     C_R   0.514623 0.854125 0.201820 0.499269
C30   C     C_R   0.129093 0.563134 0.201806 0.497939
C31   C     C_R   0.542971 0.118927 0.203163 0.495815
C32   C     C_R   0.870945 0.495944 0.203687 0.489537
C33   C     C_R   0.004794 0.363323 0.703421 0.485062
C34   C     C_R   0.643807 0.024455 0.702142 0.495482
C35   C     C_R   0.983487 0.628950 0.701815 0.494751
C36   C     C_R   0.381951 0.073478 0.703257 0.491034
C37   C     C_R   0.504073 0.001395 0.084940 -0.297850
C38   C     C_R   0.999591 0.504975 0.084923 -0.316705
C39   C     C_R   0.997216 0.500079 0.584897 -0.288678
C40   C     C_R   0.498724 0.007386 0.585080 -0.280440
C41   C     C_R   0.994306 0.499846 0.914992 -0.325592
C42   C     C_R   0.500645 0.011265 0.914947 -0.335869
C43   C     C_R   0.506851 0.999119 0.415032 -0.343865
C44   C     C_R   0.999814 0.508226 0.414971 -0.316014
C45   C     C_R   0.974862 0.432928 0.762018 -0.031921
C46   C     C_R   0.580316 0.033156 0.761955 -0.040368
C47   C     C_R   0.992246 0.566665 0.761618 -0.041044
C48   C     C_R   0.454747 0.082569 0.762283 -0.040134
C49   C     C_R   0.515566 0.919215 0.261899 -0.022259
C50   C     C_R   0.069813 0.542076 0.261722 -0.038612
C51   C     C_R   0.556764 0.047878 0.261831 -0.040986
C52   C     C_R   0.934964 0.538267 0.262205 -0.033099
C53   C     C_R   0.981498 0.500538 0.773597 -0.029543
C54   C     C_R   0.517960 0.058105 0.773942 -0.028341
C55   C     C_R   0.536653 0.983768 0.273669 -0.031980
C56   C     C_R   0.002829 0.540975 0.273774 -0.029147
C57   C     C_R   0.954214 0.369830 0.774508 0.439456
C58   C     C_R   0.638337 0.000111 0.774380 0.465417
C59   C     C_R   0.009693 0.631118 0.774054 0.465555
C60   C     C_R   0.398000 0.116702 0.774979 0.463382
C61   C     C_R   0.487612 0.859560 0.274749 0.445957
C62   C     C_R   0.136332 0.534112 0.274068 0.456169
C63   C     C_R   0.588485 0.106965 0.274117 0.462342
C64   C     C_R   0.869506 0.548921 0.274755 0.438571
C65   C     C_R   0.498588 0.000203 0.060486 0.911147
C66   C     C_R   0.999972 0.500320 0.060483 0.886857
C67   C     C_R   0.998337 0.500038 0.560441 0.923024
C68   C     C_R   0.499819 0.999090 0.560567 0.921814
C69   C     C_R   0.953172 0.372124 0.797894 -0.223455
C70   C     C_R   0.638561 0.002719 0.797766 -0.226372
C71   C     C_R   0.002992 0.631771 0.797327 -0.227038
C72   C     C_R   0.398330 0.112842 0.798350 -0.224818
C73   C     C_R   0.490912 0.861186 0.298186 -0.236816
C74   C     C_R   0.135750 0.536388 0.297457 -0.227262
C75   C     C_R   0.585439 0.107785 0.297438 -0.223134
C76   C     C_R   0.871445 0.548212 0.298144 -0.223215
C77   C     C_R   0.966079 0.437211 0.809459 -0.108508
C78   C     C_R   0.578890 0.030167 0.809632 -0.115954
C79   C     C_R   0.987468 0.567943 0.809120 -0.116372
C80   C     C_R   0.457190 0.082314 0.809904 -0.113811
C81   C     C_R   0.514125 0.923326 0.309678 -0.104073
C82   C     C_R   0.070203 0.539424 0.309363 -0.112721
C83   C     C_R   0.558532 0.047980 0.309268 -0.116824
C84   C     C_R   0.937648 0.542803 0.309690 -0.108133
C85   C     C_R   0.978168 0.501924 0.797366 -0.070896
C86   C     C_R   0.518186 0.057230 0.797801 -0.068383
C87   C     C_R   0.536676 0.984882 0.297508 -0.070293
C88   C     C_R   0.003592 0.541357 0.297586 -0.069036
C89   C     C_R   0.984487 0.568070 0.832637 0.596819
C90   C     C_R   0.456495 0.076495 0.833436 0.589713
C91   C     C_R   0.966587 0.439175 0.833000 0.585601
C92   C     C_R   0.577033 0.027519 0.833209 0.606371
C93   C     C_R   0.553914 0.049554 0.332770 0.587352
C94   C     C_R   0.939428 0.539431 0.333217 0.591756
C95   C     C_R   0.512419 0.926287 0.333236 0.593835
C96   C     C_R   0.069641 0.537326 0.332934 0.603171
C97   C     C_R   0.921523 0.481894 0.881352 0.390481
C98   C     C_R   0.512041 0.964438 0.876900 0.363263
C99   C     C_R   0.047408 0.525009 0.878574 0.365123
C100  C     C_R   0.505119 0.095602 0.883401 0.392343
C101  C     C_R   0.452551 0.987567 0.378028 0.391359
C102  C     C_R   0.028012 0.460930 0.377874 0.357082
C103  C     C_R   0.584441 0.002096 0.381992 0.398922
C104  C     C_R   0.979856 0.584180 0.382146 0.359637
C105  C     C_R   0.930124 0.474102 0.904657 0.253474
C106  C     C_R   0.510909 0.952203 0.900185 0.261769
C107  C     C_R   0.052054 0.527635 0.902079 0.255703
C108  C     C_R   0.495455 0.082755 0.906459 0.263787
C109  C     C_R   0.445603 0.985021 0.401471 0.260789
C110  C     C_R   0.029265 0.452876 0.401355 0.253817
C111  C     C_R   0.576153 0.009114 0.405281 0.267638
C112  C     C_R   0.972244 0.572697 0.405362 0.243541
C113  C     C_R   0.981343 0.504226 0.868191 -0.040964
C114  C     C_R   0.511234 0.036331 0.868479 -0.033449
C115  C     C_R   0.522480 0.993279 0.368253 -0.052463
C116  C     C_R   0.005093 0.527373 0.368323 -0.008750
C117  C     C_R   0.521594 0.918305 0.237959 -0.000043
C118  C     C_R   0.067318 0.548449 0.237910 -0.006109
C119  C     C_R   0.545412 0.050291 0.238297 -0.009313
C120  C     C_R   0.935319 0.525669 0.238666 0.006195
C121  C     C_R   0.987806 0.431451 0.738504 0.007814
C122  C     C_R   0.580821 0.039171 0.738113 -0.005289
C123  C     C_R   0.986993 0.565309 0.737819 -0.010311
C124  C     C_R   0.450993 0.072128 0.738589 -0.002522
C125  C     C_R   0.532473 0.984878 0.226275 0.070585
C126  C     C_R   0.000814 0.535032 0.226439 0.071469
C127  C     C_R   0.989143 0.497625 0.726328 0.071834
C128  C     C_R   0.514887 0.053419 0.726498 0.075479
C129  C     C_R   0.517924 0.853409 0.225218 -0.286153
C130  C     C_R   0.128905 0.568082 0.225161 -0.301714
C131  C     C_R   0.544303 0.116683 0.226498 -0.289152
C132  C     C_R   0.872948 0.500866 0.227127 -0.308451
C133  C     C_R   0.002304 0.366132 0.726893 -0.308514
C134  C     C_R   0.645292 0.032205 0.725455 -0.305165
C135  C     C_R   0.978326 0.629387 0.725133 -0.293749
C136  C     C_R   0.384669 0.076371 0.726691 -0.302708
C137  C     C_R   0.639447 0.859305 0.999703 0.860318
C138  C     C_R   0.140453 0.639604 0.999713 0.833052
C139  C     C_R   0.360867 0.141153 0.999451 0.830021
C140  C     C_R   0.859279 0.360570 0.999701 0.841176
C141  C     C_R   0.359922 0.859761 0.999966 0.853830
C142  C     C_R   0.859659 0.639888 0.999962 0.855335
C143  C     C_R   0.639699 0.140654 0.999875 0.844651
C144  C     C_R   0.140333 0.359601 0.000117 0.851813
C145  C     C_R   0.139324 0.359210 0.499637 0.856794
C146  C     C_R   0.640617 0.139499 0.499722 0.850851
C147  C     C_R   0.860273 0.640392 0.499718 0.835397
C148  C     C_R   0.358940 0.860751 0.499484 0.841646
C149  C     C_R   0.860139 0.359579 0.499889 0.855575
C150  C     C_R   0.359423 0.139774 0.499882 0.855772
C151  C     C_R   0.140352 0.640341 0.500109 0.856214
C152  C     C_R   0.640501 0.860098 0.499886 0.859798
C153  C     C_R   0.239394 0.813552 0.988616 0.077352
C154  C     C_R   0.194938 0.248411 0.984113 0.071397
C155  C     C_R   0.756163 0.190652 0.986562 0.079771
C156  C     C_R   0.810630 0.757367 0.987124 0.090538
C157  C     C_R   0.757506 0.810354 0.987068 0.059816
C158  C     C_R   0.809316 0.243550 0.986578 0.078410
C159  C     C_R   0.247928 0.195258 0.983909 0.046543
C160  C     C_R   0.186209 0.760501 0.988618 0.081739
C161  C     C_R   0.741247 0.311657 0.487672 0.087011
C162  C     C_R   0.685936 0.739085 0.488935 0.078376
C163  C     C_R   0.251490 0.694842 0.484120 0.070158
C164  C     C_R   0.309190 0.256076 0.486373 0.078841
C165  C     C_R   0.256364 0.309251 0.486459 0.072393
C166  C     C_R   0.304704 0.747798 0.483919 0.051326
C167  C     C_R   0.738782 0.685796 0.488974 0.083162
C168  C     C_R   0.688098 0.258645 0.487712 0.058450
C169  C     C_R   0.306887 0.800940 0.998769 -0.255712
C170  C     C_R   0.201112 0.308278 0.998512 -0.234955
C171  C     C_R   0.691588 0.200488 0.998527 -0.239818
C172  C     C_R   0.800408 0.692330 0.998803 -0.247984
C173  C     C_R   0.691240 0.799657 0.998046 -0.249149
C174  C     C_R   0.799217 0.309342 0.997875 -0.257404
C175  C     C_R   0.311469 0.202684 0.996572 -0.246497
C176  C     C_R   0.199340 0.691939 0.997832 -0.251312
C177  C     C_R   0.807709 0.300273 0.498552 -0.246427
C178  C     C_R   0.699572 0.807319 0.498479 -0.255543
C179  C     C_R   0.191568 0.701163 0.498455 -0.231458
C180  C     C_R   0.299487 0.191599 0.498379 -0.245578
C181  C     C_R   0.190516 0.299146 0.497693 -0.248706
C182  C     C_R   0.297340 0.811319 0.496570 -0.236989
C183  C     C_R   0.808119 0.699365 0.497670 -0.253492
C184  C     C_R   0.700038 0.191413 0.497944 -0.252720
C185  C     C_R   0.323667 0.729500 0.006238 0.323383
C186  C     C_R   0.268648 0.320797 0.009754 0.334333
C187  C     C_R   0.676769 0.269923 0.008096 0.310842
C188  C     C_R   0.730828 0.677133 0.008085 0.309118
C189  C     C_R   0.674477 0.729183 0.006167 0.363995
C190  C     C_R   0.728962 0.326392 0.006182 0.347240
C191  C     C_R   0.327206 0.271744 0.005946 0.376464
C192  C     C_R   0.271375 0.673691 0.003812 0.360079
C193  C     C_R   0.823963 0.229747 0.506917 0.314757
C194  C     C_R   0.771939 0.824757 0.505097 0.330175
C195  C     C_R   0.178832 0.768810 0.509569 0.327708
C196  C     C_R   0.229747 0.176554 0.507672 0.314356
C197  C     C_R   0.173346 0.228702 0.505743 0.355660
C198  C     C_R   0.228169 0.827194 0.505811 0.375544
C199  C     C_R   0.827382 0.771844 0.502804 0.354324
C200  C     C_R   0.771433 0.173745 0.505011 0.358132
C201  C     C_3   0.126298 0.813775 0.992933 -0.446691
C202  C     C_3   0.194175 0.134410 0.982261 -0.428919
C203  C     C_3   0.869868 0.189279 0.987971 -0.443148
C204  C     C_3   0.811654 0.870929 0.989047 -0.441794
C205  C     C_3   0.870550 0.812524 0.989114 -0.448661
C206  C     C_3   0.811226 0.130568 0.987958 -0.448154
C207  C     C_3   0.135208 0.192732 0.982453 -0.429799
C208  C     C_3   0.184830 0.872653 0.992961 -0.449959
C209  C     C_3   0.627865 0.312530 0.490839 -0.437205
C210  C     C_3   0.685518 0.626449 0.493957 -0.449557
C211  C     C_3   0.365562 0.694064 0.482368 -0.436982
C212  C     C_3   0.310803 0.369734 0.487698 -0.443366
C213  C     C_3   0.369483 0.311063 0.487427 -0.447504
C214  C     C_3   0.307151 0.635143 0.482555 -0.430964
C215  C     C_3   0.626836 0.685147 0.493945 -0.450037
C216  C     C_3   0.686443 0.371327 0.490807 -0.448138
C217  C     C_R   0.525022 0.923556 0.166440 0.517654
C218  C     C_R   0.061792 0.539792 0.166652 0.533671
C219  C     C_R   0.531753 0.053512 0.167213 0.538494
C220  C     C_R   0.935993 0.505608 0.167610 0.543594
C221  C     C_R   0.000850 0.428940 0.667401 0.537084
C222  C     C_R   0.572254 0.021906 0.666993 0.536849
C223  C     C_R   0.994187 0.559007 0.666667 0.539280
C224  C     C_R   0.445799 0.053088 0.667368 0.527674
C225  C     C_R   0.582036 0.990939 0.118014 0.079247
C226  C     C_R   0.981908 0.577113 0.118900 0.080668
C227  C     C_R   0.448446 0.996313 0.121990 0.088774
C228  C     C_R   0.013910 0.447320 0.121463 0.079457
C229  C     C_R   0.065695 0.497133 0.619965 0.076572
C230  C     C_R   0.521145 0.083902 0.617982 0.071574
C231  C     C_R   0.931466 0.490692 0.620206 0.076593
C232  C     C_R   0.484119 0.955738 0.622539 0.097933
H1    H     H_    0.519281 0.800309 0.232890 0.224820
H2    H     H_    0.177877 0.588991 0.232906 0.209846
H3    H     H_    0.542044 0.168400 0.235112 0.214062
H4    H     H_    0.825863 0.481256 0.236145 0.209116
H5    H     H_    0.015605 0.316895 0.735873 0.207967
H6    H     H_    0.698235 0.034494 0.733326 0.210407
H7    H     H_    0.965489 0.680978 0.732904 0.216364
H8    H     H_    0.333019 0.078444 0.735276 0.215359
H9    H     H_    0.088023 0.817931 0.978492 0.206333
H10   H     H_    0.198134 0.104907 0.965987 0.204725
H11   H     H_    0.904050 0.188884 0.972562 0.205632
H12   H     H_    0.812769 0.905775 0.973800 0.206865
H13   H     H_    0.905721 0.813795 0.973920 0.207261
H14   H     H_    0.811701 0.096223 0.972555 0.209410
H15   H     H_    0.104958 0.196606 0.966309 0.204598
H16   H     H_    0.180113 0.910909 0.978574 0.208518
H17   H     H_    0.591120 0.315068 0.475994 0.206790
H18   H     H_    0.680198 0.587236 0.479784 0.205927
H19   H     H_    0.395082 0.697824 0.466117 0.203531
H20   H     H_    0.310547 0.403987 0.472325 0.205812
H21   H     H_    0.402795 0.311345 0.471837 0.209221
H22   H     H_    0.303224 0.604736 0.466431 0.204487
H23   H     H_    0.587547 0.679589 0.479800 0.208266
H24   H     H_    0.683343 0.407874 0.475966 0.206644
H25   H     H_    0.100037 0.805822 0.009575 0.184061
H26   H     H_    0.193750 0.099199 0.997444 0.191854
H27   H     H_    0.900658 0.192826 0.004041 0.187091
H28   H     H_    0.807216 0.900978 0.005224 0.190813
H29   H     H_    0.900555 0.808724 0.005316 0.186824
H30   H     H_    0.808003 0.099823 0.004000 0.189665
H31   H     H_    0.100143 0.191108 0.997682 0.190833
H32   H     H_    0.192464 0.899190 0.009609 0.185439
H33   H     H_    0.599786 0.306583 0.507283 0.189192
H34   H     H_    0.694517 0.601340 0.510712 0.183911
H35   H     H_    0.400826 0.693820 0.497581 0.195079
H36   H     H_    0.308085 0.400399 0.503806 0.191353
H37   H     H_    0.401440 0.307981 0.503252 0.196059
H38   H     H_    0.308768 0.600288 0.497814 0.193246
H39   H     H_    0.601471 0.694039 0.510684 0.186519
H40   H     H_    0.692347 0.399784 0.507220 0.186691
H41   H     H_    0.940061 0.322514 0.806913 0.208454
H42   H     H_    0.684511 0.978938 0.806599 0.205712
H43   H     H_    0.013993 0.682314 0.806195 0.206409
H44   H     H_    0.352529 0.135912 0.807431 0.204831
H45   H     H_    0.471427 0.813968 0.307338 0.206331
H46   H     H_    0.187414 0.532186 0.306263 0.205116
H47   H     H_    0.606535 0.155143 0.306248 0.205519
H48   H     H_    0.820394 0.553484 0.307198 0.208445
N1    N     N_R   0.526258 0.989283 0.155702 -0.332714
N2    N     N_R   0.998607 0.520215 0.156016 -0.334148
N3    N     N_R   0.999125 0.493345 0.655924 -0.326684
N4    N     N_R   0.507414 0.032500 0.656083 -0.333633
N5    N     N_R   0.976023 0.504005 0.844108 -0.306571
N6    N     N_R   0.515596 0.048525 0.844606 -0.301349
N7    N     N_R   0.530439 0.989405 0.344261 -0.306002
N8    N     N_R   0.004815 0.535922 0.344332 -0.299061
O1    O     O_3   0.500000 0.000000 0.999950 -0.495424
O2    O     O_3   0.000000 0.500000 0.999950 -0.496181
O3    O     O_3   0.000000 0.500000 0.499950 -0.496726
O4    O     O_3   0.500000 0.000000 0.499950 -0.493459
O5    O     O_R   0.439340 0.000000 0.950010 -0.651278
O6    O     O_R   0.000000 0.439340 0.950010 -0.645054
O7    O     O_R   0.560660 0.000000 0.950010 -0.650432
O8    O     O_R   0.000000 0.560660 0.950010 -0.649609
O9    O     O_R   0.939340 0.500000 0.450010 -0.643246
O10   O     O_R   0.500000 0.939340 0.450010 -0.650048
O11   O     O_R   0.060660 0.500000 0.450010 -0.652431
O12   O     O_R   0.500000 0.060660 0.450010 -0.659976
O13   O     O_R   0.500000 0.939270 0.049890 -0.621438
O14   O     O_R   0.060730 0.500000 0.049890 -0.639835
O15   O     O_R   0.500000 0.060730 0.049890 -0.686208
O16   O     O_R   0.939270 0.500000 0.049890 -0.655502
O17   O     O_R   0.000000 0.439270 0.549890 -0.658868
O18   O     O_R   0.560730 0.000000 0.549890 -0.616064
O19   O     O_R   0.000000 0.560730 0.549890 -0.643756
O20   O     O_R   0.439270 0.000000 0.549890 -0.694453
O21   O     O_R   0.646220 0.914570 0.986850 -0.655711
O22   O     O_R   0.085430 0.646220 0.986850 -0.654592
O23   O     O_R   0.353780 0.085430 0.986850 -0.657356
O24   O     O_R   0.914570 0.353780 0.986850 -0.652273
O25   O     O_R   0.353780 0.914570 0.986850 -0.642744
O26   O     O_R   0.914570 0.646220 0.986850 -0.645782
O27   O     O_R   0.646220 0.085430 0.986850 -0.639136
O28   O     O_R   0.085430 0.353780 0.986850 -0.648462
O29   O     O_R   0.146220 0.414570 0.486850 -0.656468
O30   O     O_R   0.585430 0.146220 0.486850 -0.662818
O31   O     O_R   0.853780 0.585430 0.486850 -0.652346
O32   O     O_R   0.414570 0.853780 0.486850 -0.653084
O33   O     O_R   0.853780 0.414570 0.486850 -0.647030
O34   O     O_R   0.414570 0.146220 0.486850 -0.638957
O35   O     O_R   0.146220 0.585430 0.486850 -0.648394
O36   O     O_R   0.585430 0.853780 0.486850 -0.642257
O37   O     O_R   0.414610 0.146160 0.013040 -0.619375
O38   O     O_R   0.853840 0.414610 0.013040 -0.610057
O39   O     O_R   0.585390 0.853840 0.013040 -0.597152
O40   O     O_R   0.146160 0.585390 0.013040 -0.620109
O41   O     O_R   0.585390 0.146160 0.013040 -0.627745
O42   O     O_R   0.146160 0.414610 0.013040 -0.611073
O43   O     O_R   0.414610 0.853840 0.013040 -0.622347
O44   O     O_R   0.853840 0.585390 0.013040 -0.614757
O45   O     O_R   0.914610 0.646160 0.513040 -0.626179
O46   O     O_R   0.353840 0.914610 0.513040 -0.619874
O47   O     O_R   0.085390 0.353840 0.513040 -0.603918
O48   O     O_R   0.646160 0.085390 0.513040 -0.597802
O49   O     O_R   0.085390 0.646160 0.513040 -0.606600
O50   O     O_R   0.646160 0.914610 0.513040 -0.624852
O51   O     O_R   0.914610 0.353840 0.513040 -0.617603
O52   O     O_R   0.353840 0.085390 0.513040 -0.632049
O53   O     O_2   0.524890 0.861757 0.154108 -0.550351
O54   O     O_2   0.121768 0.554105 0.154277 -0.546483
O55   O     O_2   0.533323 0.116804 0.155684 -0.545397
O56   O     O_2   0.875072 0.487352 0.156126 -0.540896
O57   O     O_2   0.003368 0.365676 0.655787 -0.534142
O58   O     O_2   0.631550 0.002063 0.655040 -0.545930
O59   O     O_2   0.992364 0.620778 0.654382 -0.549032
O60   O     O_2   0.384477 0.067716 0.655621 -0.537323
O61   O     O_2   0.959134 0.376598 0.844698 -0.563228
O62   O     O_2   0.635806 0.003150 0.844657 -0.564230
O63   O     O_2   0.990671 0.631621 0.843994 -0.564121
O64   O     O_2   0.396563 0.097076 0.845005 -0.560170
O65   O     O_2   0.492376 0.866763 0.345044 -0.567320
O66   O     O_2   0.133294 0.536078 0.344384 -0.568673
O67   O     O_2   0.571518 0.111123 0.344033 -0.558438
O68   O     O_2   0.876273 0.538257 0.344890 -0.569404
Zn1   Zn    Zn3+2 0.500000 0.913250 0.018650 0.980895
Zn2   Zn    Zn3+2 0.086750 0.500000 0.018650 0.969476
Zn3   Zn    Zn3+2 0.500000 0.086750 0.018650 0.937257
Zn4   Zn    Zn3+2 0.913250 0.500000 0.018650 0.958968
Zn5   Zn    Zn3+2 0.000000 0.413250 0.518650 0.961868
Zn6   Zn    Zn3+2 0.586750 0.000000 0.518650 0.988772
Zn7   Zn    Zn3+2 0.000000 0.586750 0.518650 0.973155
Zn8   Zn    Zn3+2 0.413250 0.000000 0.518650 0.941864
Zn9   Zn    Zn3+2 0.586820 0.000000 0.981240 0.951909
Zn10  Zn    Zn3+2 0.000000 0.586820 0.981240 0.948654
Zn11  Zn    Zn3+2 0.413180 0.000000 0.981240 0.945022
Zn12  Zn    Zn3+2 0.000000 0.413180 0.981240 0.953431
Zn13  Zn    Zn3+2 0.086820 0.500000 0.481240 0.950341
Zn14  Zn    Zn3+2 0.500000 0.086820 0.481240 0.946000
Zn15  Zn    Zn3+2 0.913180 0.500000 0.481240 0.951988
Zn16  Zn    Zn3+2 0.500000 0.913180 0.481240 0.952624
O69   O     O_3   0.390947 0.713423 0.015584 -0.625177
C233  C     C_3   0.383488 0.712873 0.039210 0.115380
H49   H     H_    0.349521 0.665642 0.044611 0.154224
H50   H     H_    0.357581 0.764312 0.045361 0.140436
C234  C     C_3   0.459072 0.706439 0.049939 -0.292160
H51   H     H_    0.485005 0.654418 0.044625 0.220424
H52   H     H_    0.493945 0.752485 0.044229 0.281929
C235  C     C_3   0.454404 0.707968 0.075498 -0.960253
H53   H     H_    0.430283 0.760342 0.081306 0.276287
H54   H     H_    0.510087 0.702741 0.082736 0.275211
H55   H     H_    0.420407 0.661864 0.081609 0.263395
O70   O     O_3   0.269589 0.365062 0.028716 -0.612097
C236  C     C_3   0.315907 0.426100 0.026177 0.181901
H56   H     H_    0.281482 0.475822 0.027196 0.207698
H57   H     H_    0.344853 0.428263 0.009882 0.096295
C237  C     C_3   0.370841 0.428559 0.045535 -0.318515
H58   H     H_    0.341299 0.439031 0.061510 0.221389
H59   H     H_    0.398911 0.375155 0.047060 0.254422
C238  C     C_3   0.427884 0.488217 0.041991 -1.005452
H60   H     H_    0.460285 0.476973 0.026610 0.250005
H61   H     H_    0.465629 0.490008 0.056583 0.270564
H62   H     H_    0.400847 0.542125 0.040338 0.289447
O71   O     O_3   0.611494 0.283141 0.019079 -0.627895
C239  C     C_3   0.623808 0.280009 0.042475 0.130778
H63   H     H_    0.661054 0.324681 0.047967 0.164463
H64   H     H_    0.647973 0.226474 0.047322 0.119722
C240  C     C_3   0.551032 0.289067 0.054637 -0.307367
H65   H     H_    0.527130 0.342865 0.050198 0.224459
H66   H     H_    0.512664 0.245445 0.049158 0.269669
C241  C     C_3   0.561010 0.285037 0.080039 -0.992837
H67   H     H_    0.582368 0.230607 0.084935 0.259464
H68   H     H_    0.507684 0.293734 0.088464 0.276252
H69   H     H_    0.599580 0.327984 0.085834 0.268477
O72   O     O_3   0.716580 0.610705 0.018232 -0.640120
C242  C     C_3   0.722389 0.618964 0.041760 0.124819
H70   H     H_    0.674917 0.650367 0.048334 0.158578
H71   H     H_    0.773954 0.647712 0.046524 0.142653
C243  C     C_3   0.722837 0.543310 0.052587 -0.284429
H72   H     H_    0.669466 0.516081 0.049513 0.212155
H73   H     H_    0.766554 0.509443 0.044880 0.285896
C244  C     C_3   0.736285 0.547977 0.077828 -0.971617
H74   H     H_    0.790817 0.572270 0.081271 0.279708
H75   H     H_    0.734756 0.492316 0.085156 0.271319
H76   H     H_    0.693391 0.581701 0.085980 0.265136
O73   O     O_3   0.604580 0.712508 0.013492 -0.629489
C245  C     C_3   0.570812 0.664279 0.998000 0.125802
H77   H     H_    0.528077 0.633033 0.007049 0.166086
H78   H     H_    0.609095 0.622890 0.991031 0.152544
C246  C     C_3   0.534344 0.706690 0.978904 -0.336525
H79   H     H_    0.489317 0.740610 0.985730 0.264796
H80   H     H_    0.574738 0.743758 0.971040 0.198617
C247  C     C_3   0.504411 0.655158 0.960942 -1.005244
H81   H     H_    0.550111 0.631561 0.951064 0.272961
H82   H     H_    0.467981 0.685660 0.949378 0.269567
H83   H     H_    0.472926 0.610027 0.968678 0.259900
O74   O     O_3   0.714230 0.395674 0.014549 -0.631401
C248  C     C_3   0.664337 0.432357 0.000294 0.127020
H84   H     H_    0.639994 0.478224 0.009921 0.162286
H85   H     H_    0.617451 0.397472 0.995395 0.147994
C249  C     C_3   0.702711 0.464333 0.979581 -0.332681
H86   H     H_    0.735192 0.512892 0.984644 0.252660
H87   H     H_    0.740725 0.423898 0.972210 0.200634
C250  C     C_3   0.647860 0.485814 0.961456 -1.007953
H88   H     H_    0.623181 0.436146 0.953880 0.271623
H89   H     H_    0.676058 0.516961 0.948039 0.275770
H90   H     H_    0.603621 0.519917 0.968604 0.262154
O75   O     O_3   0.397128 0.287874 0.013396 -0.630363
C251  C     C_3   0.437497 0.320926 0.995689 0.084636
H91   H     H_    0.482620 0.352748 0.003449 0.186363
H92   H     H_    0.404342 0.360264 0.985757 0.084679
C252  C     C_3   0.470532 0.264470 0.979518 -0.294514
H93   H     H_    0.500894 0.222590 0.989062 0.268626
H94   H     H_    0.426034 0.237633 0.969990 0.180587
C253  C     C_3   0.522330 0.299140 0.962571 -0.986527
H95   H     H_    0.495888 0.346197 0.954097 0.258098
H96   H     H_    0.537775 0.258038 0.949705 0.288925
H97   H     H_    0.573054 0.317305 0.970968 0.268304
O76   O     O_3   0.291017 0.601906 0.007526 -0.636909
C254  C     C_3   0.325758 0.574020 0.988024 0.085055
H98   H     H_    0.373871 0.541729 0.993482 0.149734
H99   H     H_    0.347319 0.616887 0.976469 0.140619
C255  C     C_3   0.273264 0.524474 0.974955 -0.364037
H100  H     H_    0.251615 0.481129 0.986071 0.220237
H101  H     H_    0.226297 0.557017 0.968863 0.207094
C256  C     C_3   0.310905 0.489071 0.954863 -0.975424
H102  H     H_    0.330463 0.531595 0.943038 0.270188
H103  H     H_    0.271594 0.453093 0.945917 0.278405
H104  H     H_    0.358020 0.455606 0.960485 0.251940
O77   O     O_3   0.891382 0.214664 0.516390 -0.635789
C257  C     C_3   0.884556 0.215931 0.540031 0.125550
H105  H     H_    0.853833 0.167123 0.545908 0.161384
H106  H     H_    0.855784 0.266271 0.545840 0.139037
C258  C     C_3   0.960793 0.214921 0.550552 -0.292244
H107  H     H_    0.988363 0.162646 0.546328 0.216449
H108  H     H_    0.993781 0.260598 0.543639 0.283119
C259  C     C_3   0.957270 0.222773 0.576025 -0.977616
H109  H     H_    0.931923 0.275772 0.580691 0.276124
H110  H     H_    0.013432 0.221037 0.583079 0.268372
H111  H     H_    0.924951 0.177432 0.583393 0.267052
O78   O     O_3   0.788892 0.892965 0.513641 -0.622952
C260  C     C_3   0.793325 0.887643 0.537290 0.111997
H112  H     H_    0.841471 0.854291 0.542280 0.157951
H113  H     H_    0.742983 0.862195 0.544384 0.138697
C261  C     C_3   0.801294 0.964040 0.547339 -0.291438
H114  H     H_    0.851408 0.990358 0.540671 0.224449
H115  H     H_    0.753279 0.997673 0.542507 0.281935
C262  C     C_3   0.806497 0.961308 0.572878 -0.965917
H116  H     H_    0.756260 0.936623 0.580059 0.277557
H117  H     H_    0.812468 0.017577 0.579607 0.273313
H118  H     H_    0.854786 0.928735 0.578098 0.264632
O79   O     O_3   0.134066 0.769806 0.528396 -0.615294
C263  C     C_3   0.074560 0.818242 0.526133 0.178696
H119  H     H_    0.023663 0.785482 0.527065 0.204297
H120  H     H_    0.072838 0.847930 0.509953 0.100918
C264  C     C_3   0.074337 0.872025 0.545802 -0.316495
H121  H     H_    0.062083 0.842085 0.561565 0.219806
H122  H     H_    0.129085 0.897296 0.547657 0.255060
C265  C     C_3   0.017514 0.931949 0.542434 -1.001680
H123  H     H_    0.030782 0.964854 0.527338 0.253838
H124  H     H_    0.016917 0.968635 0.557291 0.271240
H125  H     H_    0.962481 0.907512 0.540355 0.283462
O80   O     O_3   0.215897 0.110895 0.518261 -0.632022
C266  C     C_3   0.223145 0.120841 0.541685 0.131246
H126  H     H_    0.177415 0.154755 0.548258 0.154295
H127  H     H_    0.276091 0.147710 0.545997 0.133106
C267  C     C_3   0.220756 0.046161 0.553013 -0.295954
H128  H     H_    0.165769 0.021891 0.550460 0.221373
H129  H     H_    0.262005 0.009525 0.545208 0.277240
C268  C     C_3   0.236386 0.051866 0.578110 -0.991938
H130  H     H_    0.292389 0.073434 0.580992 0.263263
H131  H     H_    0.232444 0.996873 0.585822 0.266465
H132  H     H_    0.196005 0.088422 0.586323 0.271886
O81   O     O_3   0.103564 0.213205 0.513494 -0.632455
C269  C     C_3   0.067811 0.165090 0.498390 0.128231
H133  H     H_    0.020373 0.140722 0.507212 0.168171
H134  H     H_    0.102639 0.118118 0.493607 0.145767
C270  C     C_3   0.039047 0.205347 0.477548 -0.343414
H135  H     H_    0.992205 0.240524 0.482419 0.250124
H136  H     H_    0.082102 0.240830 0.470351 0.197105
C271  C     C_3   0.015067 0.151899 0.459287 -0.991362
H137  H     H_    0.063385 0.123304 0.452238 0.269662
H138  H     H_    0.987485 0.182098 0.445541 0.275471
H139  H     H_    0.976843 0.110641 0.466102 0.258287
O82   O     O_3   0.211682 0.897425 0.512817 -0.632643
C272  C     C_3   0.179606 0.936598 0.494677 0.085479
H140  H     H_    0.146033 0.981141 0.502000 0.184557
H141  H     H_    0.141875 0.902412 0.484385 0.086464
C273  C     C_3   0.237170 0.970710 0.479139 -0.301346
H142  H     H_    0.276363 0.003189 0.489149 0.269834
H143  H     H_    0.267381 0.926982 0.470258 0.182775
C274  C     C_3   0.203014 0.020056 0.461413 -1.002988
H144  H     H_    0.159428 0.990654 0.452064 0.262022
H145  H     H_    0.245715 0.037717 0.449358 0.275920
H146  H     H_    0.180099 0.069622 0.469301 0.271709
O83   O     O_3   0.899720 0.791106 0.505941 -0.640228
C275  C     C_3   0.927908 0.820460 0.485681 0.076717
H147  H     H_    0.957684 0.871518 0.489922 0.151225
H148  H     H_    0.885301 0.835684 0.473079 0.129194
C276  C     C_3   0.981173 0.766517 0.474751 -0.349992
H149  H     H_    0.024269 0.750873 0.486863 0.218697
H150  H     H_    0.951735 0.716119 0.469826 0.214546
C277  C     C_3   0.017169 0.799121 0.453967 -0.969786
H151  H     H_    0.975188 0.813441 0.441247 0.270307
H152  H     H_    0.055266 0.758647 0.446501 0.275601
H153  H     H_    0.048576 0.848875 0.458517 0.248352
O84   O     O_3   0.788788 0.103101 0.511295 -0.633038
C278  C     C_3   0.832004 0.070196 0.494353 0.115928
H154  H     H_    0.865372 0.026714 0.502280 0.172341
H155  H     H_    0.871531 0.108765 0.486587 0.141841
C279  C     C_3   0.783819 0.035404 0.476188 -0.318796
H156  H     H_    0.747233 0.994150 0.483910 0.261982
H157  H     H_    0.749391 0.077853 0.468200 0.188596
C280  C     C_3   0.830049 0.999096 0.458056 -0.979770
H158  H     H_    0.862102 0.040863 0.448832 0.262249
H159  H     H_    0.793975 0.970040 0.445989 0.279610
H160  H     H_    0.868271 0.959259 0.465642 0.259152
O85   O     O_3   0.932493 0.305380 0.764378 -0.664094
C281  C     C_3   0.857257 0.309948 0.759235 0.059408
H161  H     H_    0.848004 0.350883 0.745726 0.146092
H162  H     H_    0.824732 0.325483 0.774341 0.145656
C282  C     C_3   0.830686 0.235317 0.751062 -0.315084
H163  H     H_    0.862553 0.218492 0.736083 0.213006
H164  H     H_    0.839623 0.194176 0.764474 0.237598
C283  C     C_3   0.749711 0.236760 0.744937 -0.955047
H165  H     H_    0.716385 0.251991 0.759795 0.265741
H166  H     H_    0.732410 0.181775 0.739103 0.273206
H167  H     H_    0.739716 0.276553 0.731232 0.260680
O86   O     O_3   0.694113 0.961144 0.764275 -0.668077
C284  C     C_3   0.668931 0.890662 0.758188 0.064620
H168  H     H_    0.699566 0.873614 0.743003 0.168873
H169  H     H_    0.609863 0.889050 0.753492 0.129714
C285  C     C_3   0.684599 0.835814 0.776958 -0.340470
H170  H     H_    0.743299 0.838794 0.781682 0.243245
H171  H     H_    0.651227 0.849467 0.791951 0.218614
C286  C     C_3   0.666529 0.758061 0.769581 -0.954599
H172  H     H_    0.607807 0.753632 0.765039 0.262469
H173  H     H_    0.678070 0.719725 0.783552 0.269728
H174  H     H_    0.700454 0.742241 0.754906 0.264348
O87   O     O_3   0.036405 0.693960 0.764140 -0.667483
C287  C     C_3   0.111035 0.684685 0.758521 0.064999
H175  H     H_    0.122716 0.720834 0.744022 0.168078
H176  H     H_    0.124701 0.628117 0.752939 0.130299
C288  C     C_3   0.160240 0.707557 0.778155 -0.342153
H177  H     H_    0.145438 0.763628 0.783671 0.240857
H178  H     H_    0.152100 0.669740 0.792488 0.217289
C289  C     C_3   0.240707 0.706222 0.771501 -0.957697
H179  H     H_    0.256943 0.650336 0.766231 0.262730
H180  H     H_    0.274820 0.722753 0.786076 0.270400
H181  H     H_    0.250892 0.744862 0.757503 0.264579
O88   O     O_3   0.341509 0.155337 0.765142 -0.666986
C290  C     C_3   0.366256 0.225383 0.758608 0.069189
H182  H     H_    0.333764 0.242022 0.743721 0.162553
H183  H     H_    0.424719 0.226390 0.753272 0.129049
C291  C     C_3   0.353117 0.280915 0.777449 -0.340278
H184  H     H_    0.294955 0.278531 0.782755 0.239701
H185  H     H_    0.387980 0.267337 0.792130 0.218832
C292  C     C_3   0.370921 0.358352 0.769823 -0.961361
H186  H     H_    0.429145 0.362251 0.764716 0.263860
H187  H     H_    0.361154 0.397100 0.783861 0.267340
H188  H     H_    0.335529 0.374066 0.755467 0.262746
O89   O     O_3   0.454860 0.799309 0.265002 -0.668265
C293  C     C_3   0.377954 0.806571 0.266116 0.046485
H189  H     H_    0.359072 0.841628 0.252039 0.149520
H190  H     H_    0.358774 0.831427 0.282188 0.142057
C294  C     C_3   0.343224 0.730798 0.264191 -0.302964
H191  H     H_    0.364397 0.702096 0.249117 0.228644
H192  H     H_    0.358391 0.698005 0.279163 0.232917
C295  C     C_3   0.260122 0.735409 0.262654 -0.952289
H193  H     H_    0.237544 0.762306 0.277863 0.267164
H194  H     H_    0.236862 0.679565 0.261391 0.285122
H195  H     H_    0.243643 0.766786 0.247544 0.262653
O90   O     O_3   0.202954 0.520685 0.263912 -0.674375
C296  C     C_3   0.207300 0.446531 0.257250 0.067014
H196  H     H_    0.243592 0.443900 0.242365 0.168478
H197  H     H_    0.153789 0.422985 0.251865 0.131114
C297  C     C_3   0.241028 0.400131 0.275944 -0.345203
H198  H     H_    0.293766 0.424737 0.281315 0.240511
H199  H     H_    0.203682 0.398818 0.290622 0.220265
C298  C     C_3   0.254506 0.322012 0.268042 -0.948339
H200  H     H_    0.202268 0.296056 0.262852 0.262084
H201  H     H_    0.278564 0.289719 0.281960 0.270662
H202  H     H_    0.293134 0.321502 0.253672 0.265217
O91   O     O_3   0.624387 0.164444 0.263877 -0.668968
C299  C     C_3   0.694744 0.141994 0.256807 0.067950
H203  H     H_    0.708511 0.173578 0.241500 0.166895
H204  H     H_    0.697786 0.083174 0.251936 0.129347
C300  C     C_3   0.751505 0.159255 0.274973 -0.339266
H205  H     H_    0.747564 0.217842 0.279716 0.240525
H206  H     H_    0.740431 0.125737 0.290111 0.218654
C301  C     C_3   0.828842 0.143277 0.266800 -0.958248
H207  H     H_    0.834327 0.084686 0.262264 0.263255
H208  H     H_    0.868554 0.156119 0.280352 0.269218
H209  H     H_    0.841937 0.177369 0.251938 0.263978
O92   O     O_3   0.802798 0.562547 0.264682 -0.663789
C302  C     C_3   0.798331 0.637671 0.259545 0.059640
H210  H     H_    0.838886 0.652127 0.246345 0.146135
H211  H     H_    0.808424 0.671766 0.274780 0.146595
C303  C     C_3   0.721636 0.654561 0.250789 -0.316188
H212  H     H_    0.710317 0.620893 0.235665 0.212997
H213  H     H_    0.680748 0.640410 0.263860 0.237755
C304  C     C_3   0.713434 0.735043 0.244711 -0.943341
H214  H     H_    0.722973 0.769919 0.259706 0.264865
H215  H     H_    0.657228 0.745250 0.238418 0.275560
H216  H     H_    0.752935 0.750091 0.231355 0.260262
O93   O     O_3   0.370591 0.007736 0.089775 -0.652856
C305  C     C_3   0.355209 0.070693 0.076607 0.087448
H217  H     H_    0.294864 0.077142 0.076719 0.160458
H218  H     H_    0.368966 0.060581 0.058775 0.143213
C306  C     C_3   0.388405 0.143601 0.084970 -0.407779
H219  H     H_    0.374727 0.152720 0.102856 0.232387
H220  H     H_    0.448812 0.143006 0.083375 0.231812
C307  C     C_3   0.359153 0.207773 0.071321 -0.875588
H221  H     H_    0.382884 0.259574 0.077694 0.258496
H222  H     H_    0.298749 0.211128 0.072762 0.261552
H223  H     H_    0.374225 0.201482 0.053391 0.299064
O94   O     O_3   0.016750 0.372270 0.088373 -0.639573
C308  C     C_3   0.955152 0.347847 0.075722 0.091816
H224  H     H_    0.958688 0.287346 0.075084 0.156704
H225  H     H_    0.959933 0.365416 0.058000 0.138591
C309  C     C_3   0.879003 0.367523 0.085316 -0.378263
H226  H     H_    0.874416 0.348841 0.102934 0.231382
H227  H     H_    0.870225 0.427458 0.084993 0.234077
C310  C     C_3   0.818062 0.332045 0.071568 -0.960944
H228  H     H_    0.764202 0.347024 0.078796 0.261690
H229  H     H_    0.823426 0.271658 0.071835 0.250357
H230  H     H_    0.820016 0.351355 0.053929 0.291458
O95   O     O_3   0.634936 0.990485 0.080849 -0.610262
C311  C     C_3   0.659323 0.060556 0.074191 0.098758
H231  H     H_    0.698447 0.082451 0.086778 0.125018
H232  H     H_    0.614221 0.101056 0.072433 0.098647
C312  C     C_3   0.697632 0.054812 0.051435 -0.307285
H233  H     H_    0.658668 0.033042 0.038753 0.207088
H234  H     H_    0.715099 0.110113 0.046006 0.145241
C313  C     C_3   0.764694 0.005359 0.052388 -0.829260
H235  H     H_    0.791738 0.004500 0.035723 0.215682
H236  H     H_    0.748602 0.948665 0.056742 0.284394
H237  H     H_    0.804285 0.026037 0.065035 0.244190
O96   O     O_3   0.978650 0.637425 0.083196 -0.649628
C314  C     C_3   0.040651 0.659562 0.070414 0.080442
H238  H     H_    0.035041 0.719324 0.067811 0.154827
H239  H     H_    0.038264 0.635633 0.053330 0.137734
C315  C     C_3   0.116450 0.646038 0.081228 -0.362793
H240  H     H_    0.117802 0.667831 0.098576 0.234538
H241  H     H_    0.128290 0.586656 0.081935 0.234382
C316  C     C_3   0.177147 0.682648 0.067745 -0.950855
H242  H     H_    0.230807 0.671630 0.075768 0.265481
H243  H     H_    0.168622 0.742642 0.067162 0.252648
H244  H     H_    0.178370 0.660803 0.050373 0.282259
O97   O     O_3   0.862870 0.501250 0.586006 -0.653712
C317  C     C_3   0.848716 0.565945 0.573478 0.074956
H245  H     H_    0.788350 0.570722 0.572214 0.157100
H246  H     H_    0.867390 0.559176 0.555923 0.142568
C318  C     C_3   0.877494 0.638335 0.583669 -0.355451
H247  H     H_    0.858674 0.644346 0.601239 0.231546
H248  H     H_    0.938123 0.639311 0.583656 0.236371
C319  C     C_3   0.850721 0.704035 0.570230 -0.948349
H249  H     H_    0.872104 0.755109 0.577873 0.265687
H250  H     H_    0.790078 0.706371 0.570249 0.250176
H251  H     H_    0.870443 0.700711 0.552653 0.291343
O98   O     O_3   0.461406 0.881245 0.589616 -0.649784
C320  C     C_3   0.386525 0.880049 0.583516 0.096733
H252  H     H_    0.381034 0.894685 0.565570 0.188820
H253  H     H_    0.352033 0.918250 0.593583 0.133022
C321  C     C_3   0.356651 0.802678 0.586253 -0.376719
H254  H     H_    0.390313 0.764131 0.576207 0.230926
H255  H     H_    0.360029 0.786286 0.604166 0.230775
C322  C     C_3   0.277301 0.797702 0.578396 -0.908519
H256  H     H_    0.257065 0.741028 0.580612 0.275941
H257  H     H_    0.272974 0.812289 0.560344 0.284683
H258  H     H_    0.242310 0.835135 0.588387 0.257681
O99   O     O_3   0.128616 0.494861 0.584099 -0.643414
C323  C     C_3   0.149660 0.421334 0.580643 0.088021
H259  H     H_    0.102069 0.384563 0.577396 0.154089
H260  H     H_    0.179412 0.401221 0.595652 0.153177
C324  C     C_3   0.200761 0.416974 0.560419 -0.302779
H261  H     H_    0.172559 0.439190 0.545378 0.216846
H262  H     H_    0.250261 0.450544 0.563690 0.218786
C325  C     C_3   0.223784 0.338300 0.555719 -1.001612
H263  H     H_    0.262080 0.336948 0.541292 0.266171
H264  H     H_    0.175283 0.304392 0.551557 0.284457
H265  H     H_    0.251644 0.314741 0.570597 0.260492
O100  O     O_3   0.532884 0.133931 0.580598 -0.630835
C326  C     C_3   0.467360 0.169582 0.574433 0.060487
H266  H     H_    0.437097 0.188914 0.589527 0.131538
H267  H     H_    0.431005 0.132627 0.564665 0.146748
C327  C     C_3   0.486037 0.235330 0.559794 -0.307103
H268  H     H_    0.523489 0.272257 0.569158 0.227125
H269  H     H_    0.514348 0.216431 0.544332 0.210956
C328  C     C_3   0.417534 0.277631 0.553210 -1.013652
H270  H     H_    0.433122 0.325863 0.543038 0.264564
H271  H     H_    0.388495 0.297049 0.568445 0.273302
H272  H     H_    0.380326 0.242565 0.543137 0.257202
C329  C     C_3   0.380381 0.987732 0.136431 -0.310010
C330  C     C_3   0.342099 0.060309 0.140806 -0.840253
H273  H     H_    0.382221 0.103289 0.145436 0.283207
H274  H     H_    0.310623 0.077294 0.125808 0.267736
H275  H     H_    0.302804 0.053880 0.154853 0.237027
H276  H     H_    0.341643 0.949295 0.128218 0.224285
H277  H     H_    0.393179 0.962786 0.152887 0.180646
C331  C     C_3   0.038995 0.382096 0.135218 -0.302114
C332  C     C_3   0.978180 0.326414 0.138896 -0.844495
H278  H     H_    0.927228 0.353690 0.144515 0.285637
H279  H     H_    0.967667 0.295135 0.123282 0.268696
H280  H     H_    0.995249 0.286973 0.152018 0.236360
H281  H     H_    0.085829 0.355127 0.126722 0.223591
H282  H     H_    0.059933 0.399240 0.151883 0.187003
C333  C     C_3   0.657696 0.982564 0.128222 -0.330840
C334  C     C_3   0.688392 0.906090 0.124269 -0.777532
H283  H     H_    0.651377 0.864314 0.131493 0.287447
H284  H     H_    0.695515 0.895054 0.106086 0.282977
H285  H     H_    0.742557 0.901323 0.132547 0.224046
H286  H     H_    0.695435 0.023678 0.121041 0.193268
H287  H     H_    0.657500 0.992905 0.146565 0.191902
C335  C     C_3   0.954115 0.646814 0.129892 -0.302922
C336  C     C_3   0.013039 0.705383 0.131914 -0.842670
H288  H     H_    0.064335 0.682093 0.138796 0.285961
H289  H     H_    0.023654 0.730693 0.115356 0.268771
H290  H     H_    0.993940 0.749135 0.143420 0.236578
H291  H     H_    0.907275 0.668705 0.120111 0.220516
H292  H     H_    0.932233 0.636070 0.146906 0.193269
C337  C     C_3   0.860310 0.476330 0.632648 -0.306669
C338  C     C_3   0.815208 0.545452 0.636106 -0.842064
H293  H     H_    0.849974 0.590864 0.642332 0.285520
H294  H     H_    0.788033 0.561491 0.620238 0.269092
H295  H     H_    0.771786 0.534836 0.648687 0.236206
H296  H     H_    0.827299 0.435454 0.623264 0.223037
H297  H     H_    0.870305 0.451618 0.649322 0.191861
C339  C     C_3   0.472795 0.889197 0.637339 -0.344222
C340  C     C_3   0.394352 0.882848 0.645850 -0.832166
H298  H     H_    0.383226 0.923974 0.659030 0.286596
H299  H     H_    0.354489 0.889916 0.632020 0.261176
H300  H     H_    0.386067 0.828027 0.653344 0.231686
H301  H     H_    0.486612 0.838561 0.627973 0.233986
H302  H     H_    0.510748 0.890344 0.651882 0.197005
C341  C     C_3   0.138029 0.506056 0.632266 -0.355696
C342  C     C_3   0.164223 0.435378 0.643311 -0.838561
H303  H     H_    0.143514 0.431471 0.660729 0.265481
H304  H     H_    0.146358 0.386551 0.633689 0.270658
H305  H     H_    0.224828 0.435266 0.644239 0.231142
H306  H     H_    0.181257 0.524890 0.620556 0.234159
H307  H     H_    0.133370 0.549742 0.645140 0.203925
C343  C     C_3   0.545497 0.156594 0.627841 -0.336806
C344  C     C_3   0.627320 0.168855 0.624513 -0.776011
H308  H     H_    0.659067 0.124442 0.632563 0.289787
H309  H     H_    0.641229 0.170958 0.606402 0.282007
H310  H     H_    0.643462 0.221537 0.632326 0.225292
H311  H     H_    0.514848 0.202055 0.619968 0.200188
H312  H     H_    0.533688 0.160445 0.646053 0.191916
O101  O     O_3   0.504548 0.788185 0.190785 -0.609350
C345  C     C_3   0.430431 0.781197 0.184050 0.176375
H313  H     H_    0.428995 0.745491 0.168959 0.184570
H314  H     H_    0.405058 0.834080 0.178975 0.117222
C346  C     C_3   0.384692 0.745382 0.202456 -0.464447
H315  H     H_    0.407951 0.691026 0.206600 0.237218
H316  H     H_    0.386276 0.780079 0.217671 0.237054
C347  C     C_3   0.305116 0.736739 0.195221 -0.907756
H317  H     H_    0.279882 0.791148 0.192510 0.259185
H318  H     H_    0.274123 0.707912 0.208540 0.285058
H319  H     H_    0.301358 0.704538 0.179449 0.283455
O102  O     O_3   0.193441 0.577709 0.190481 -0.607022
C348  C     C_3   0.240171 0.515955 0.191426 0.126116
H320  H     H_    0.248489 0.495731 0.174021 0.186487
H321  H     H_    0.218200 0.469013 0.201331 0.094587
C349  C     C_3   0.314194 0.538482 0.201157 -0.378310
H322  H     H_    0.339049 0.580841 0.190275 0.240810
H323  H     H_    0.306419 0.561828 0.218221 0.233446
C350  C     C_3   0.366475 0.473771 0.202575 -0.944182
H324  H     H_    0.343817 0.430814 0.213702 0.260033
H325  H     H_    0.419644 0.492250 0.209566 0.270503
H326  H     H_    0.376005 0.450382 0.185614 0.268841
O103  O     O_3   0.546764 0.186169 0.192656 -0.596432
C351  C     C_3   0.620194 0.211106 0.192307 0.127875
H327  H     H_    0.635158 0.221970 0.174556 0.183936
H328  H     H_    0.661087 0.170947 0.198807 0.093370
C352  C     C_3   0.626618 0.282436 0.205587 -0.392898
H329  H     H_    0.589393 0.323932 0.198221 0.237567
H330  H     H_    0.610142 0.273104 0.223279 0.240286
C353  C     C_3   0.704701 0.311763 0.205272 -0.907996
H331  H     H_    0.742792 0.271700 0.212918 0.254700
H332  H     H_    0.707478 0.363253 0.215095 0.278087
H333  H     H_    0.722177 0.323084 0.187775 0.278372
O104  O     O_3   0.808009 0.471683 0.192985 -0.599927
C354  C     C_3   0.749247 0.519688 0.197486 0.086149
H334  H     H_    0.766918 0.578067 0.197231 0.131775
H335  H     H_    0.725160 0.506673 0.214128 0.137419
C355  C     C_3   0.690277 0.509401 0.179586 -0.303188
H336  H     H_    0.713305 0.522723 0.162830 0.250237
H337  H     H_    0.672039 0.451549 0.179376 0.229785
C356  C     C_3   0.624416 0.558385 0.184098 -0.950949
H338  H     H_    0.599655 0.544949 0.200598 0.263049
H339  H     H_    0.582692 0.549826 0.170806 0.272158
H340  H     H_    0.641049 0.616721 0.184037 0.280789
O105  O     O_3   0.019413 0.297816 0.692566 -0.607169
C357  C     C_3   0.965067 0.245555 0.697685 0.089462
H341  H     H_    0.909168 0.269937 0.697211 0.135119
H342  H     H_    0.975530 0.221815 0.714538 0.135269
C358  C     C_3   0.968358 0.183883 0.680428 -0.294308
H343  H     H_    0.958133 0.206389 0.663400 0.251636
H344  H     H_    0.023743 0.158965 0.680638 0.226965
C359  C     C_3   0.911633 0.125002 0.685439 -0.963758
H345  H     H_    0.921637 0.100861 0.702253 0.260171
H346  H     H_    0.915353 0.081031 0.672637 0.272488
H347  H     H_    0.855668 0.148420 0.684961 0.283394
O106  O     O_3   0.709090 0.014528 0.690800 -0.604921
C360  C     C_3   0.733376 0.941409 0.693216 0.142614
H348  H     H_    0.742605 0.918815 0.676133 0.192096
H349  H     H_    0.693258 0.904231 0.701548 0.092707
C361  C     C_3   0.805907 0.939876 0.706018 -0.392583
H350  H     H_    0.846711 0.974052 0.697091 0.240203
H351  H     H_    0.798245 0.962718 0.723118 0.238369
C362  C     C_3   0.835392 0.862250 0.708072 -0.928328
H352  H     H_    0.795110 0.826527 0.716625 0.259626
H353  H     H_    0.886401 0.862894 0.718155 0.268389
H354  H     H_    0.847630 0.839463 0.691199 0.277220
O107  O     O_3   0.978862 0.694699 0.690506 -0.601525
C363  C     C_3   0.046827 0.731834 0.691679 0.129251
H355  H     H_    0.067505 0.738746 0.674285 0.187125
H356  H     H_    0.090430 0.702414 0.701238 0.092469
C364  C     C_3   0.035511 0.807286 0.702112 -0.376304
H357  H     H_    0.995101 0.838229 0.691962 0.240465
H358  H     H_    0.013794 0.801159 0.719413 0.232499
C365  C     C_3   0.106835 0.850376 0.703081 -0.935977
H359  H     H_    0.147766 0.821240 0.713524 0.257893
H360  H     H_    0.096575 0.904841 0.710659 0.272691
H361  H     H_    0.129123 0.858180 0.685918 0.268538
O108  O     O_3   0.314752 0.077839 0.692578 -0.598401
C366  C     C_3   0.284803 0.148893 0.694840 0.123186
H362  H     H_    0.277473 0.171757 0.677725 0.180273
H363  H     H_    0.320085 0.188367 0.704229 0.096016
C367  C     C_3   0.209977 0.144103 0.706177 -0.377833
H364  H     H_    0.173293 0.108720 0.695996 0.234804
H365  H     H_    0.215907 0.119266 0.723066 0.233514
C368  C     C_3   0.175166 0.219343 0.708713 -0.895383
H366  H     H_    0.210514 0.255484 0.719060 0.252644
H367  H     H_    0.121466 0.213869 0.717188 0.277466
H368  H     H_    0.166603 0.244584 0.691980 0.287565
O109  O     O_3   0.872759 0.449430 0.917742 -0.643356
C369  C     C_3   0.867318 0.372792 0.915596 0.153801
H369  H     H_    0.919184 0.346010 0.920933 0.145064
H370  H     H_    0.854766 0.356773 0.897978 0.194440
C370  C     C_3   0.805483 0.345686 0.930624 -0.355136
H371  H     H_    0.819487 0.357515 0.948387 0.227949
H372  H     H_    0.754163 0.375036 0.926352 0.229665
C371  C     C_3   0.793089 0.263766 0.927900 -0.958800
H373  H     H_    0.779426 0.250371 0.910196 0.266697
H374  H     H_    0.746874 0.246428 0.938708 0.272432
H375  H     H_    0.842798 0.233165 0.932969 0.269226
O110  O     O_3   0.514064 0.881737 0.908345 -0.631727
C372  C     C_3   0.588121 0.861207 0.910442 0.123679
H376  H     H_    0.616804 0.897768 0.922553 0.150209
H377  H     H_    0.616608 0.863386 0.893930 0.182823
C373  C     C_3   0.591525 0.783007 0.919164 -0.345791
H378  H     H_    0.556263 0.778654 0.934200 0.236125
H379  H     H_    0.570067 0.745058 0.906147 0.231306
C374  C     C_3   0.669309 0.760820 0.925395 -0.972831
H380  H     H_    0.705503 0.764216 0.910482 0.274927
H381  H     H_    0.669401 0.703749 0.931646 0.267775
H382  H     H_    0.690879 0.796916 0.938869 0.271527
O111  O     O_3   0.115499 0.550901 0.912550 -0.635557
C375  C     C_3   0.118046 0.628012 0.912151 0.156216
H383  H     H_    0.064769 0.652612 0.917267 0.141137
H384  H     H_    0.132386 0.647300 0.895019 0.189349
C376  C     C_3   0.176598 0.654150 0.928609 -0.355108
H385  H     H_    0.161072 0.637296 0.945834 0.232255
H386  H     H_    0.229837 0.628491 0.924327 0.230560
C377  C     C_3   0.184971 0.736999 0.928134 -0.946415
H387  H     H_    0.199909 0.755583 0.911009 0.265842
H388  H     H_    0.228941 0.753702 0.939928 0.270636
H389  H     H_    0.133202 0.763698 0.933356 0.267682
O112  O     O_3   0.485764 0.141265 0.920854 -0.648725
C378  C     C_3   0.410188 0.153373 0.924435 0.151467
H390  H     H_    0.399638 0.148303 0.942707 0.154913
H391  H     H_    0.373129 0.113427 0.915887 0.130060
C379  C     C_3   0.390179 0.230452 0.916724 -0.335289
H392  H     H_    0.430326 0.270327 0.923454 0.234165
H393  H     H_    0.392209 0.232861 0.898104 0.258552
C380  C     C_3   0.313928 0.252207 0.924621 -0.968390
H394  H     H_    0.272589 0.212681 0.918356 0.273543
H395  H     H_    0.300289 0.307296 0.918108 0.270156
H396  H     H_    0.312004 0.254054 0.943236 0.262573
O113  O     O_3   0.377657 0.973955 0.411036 -0.641046
C381  C     C_3   0.363220 0.898134 0.411726 0.134830
H397  H     H_    0.394189 0.873163 0.425834 0.154279
H398  H     H_    0.378506 0.869826 0.395796 0.176803
C382  C     C_3   0.281502 0.886315 0.415487 -0.347273
H399  H     H_    0.263888 0.917032 0.430556 0.234670
H400  H     H_    0.250627 0.907485 0.400801 0.233457
C383  C     C_3   0.263378 0.805721 0.418784 -0.966820
H401  H     H_    0.279374 0.773729 0.403716 0.275182
H402  H     H_    0.203668 0.799324 0.421456 0.265745
H403  H     H_    0.292482 0.784002 0.433716 0.269268
O114  O     O_3   0.050870 0.387669 0.410992 -0.640350
C384  C     C_3   0.127940 0.384121 0.411339 0.148025
H404  H     H_    0.152432 0.435395 0.418163 0.143701
H405  H     H_    0.149218 0.374307 0.394110 0.188228
C385  C     C_3   0.151098 0.320770 0.426411 -0.349849
H406  H     H_    0.132279 0.331562 0.443831 0.227233
H407  H     H_    0.125022 0.269485 0.420405 0.231789
C386  C     C_3   0.233859 0.310827 0.426505 -0.950924
H408  H     H_    0.253860 0.299069 0.409276 0.266327
H409  H     H_    0.248526 0.264227 0.437509 0.272601
H410  H     H_    0.261059 0.360821 0.432989 0.266007
O115  O     O_3   0.637527 0.018469 0.418566 -0.642296
C387  C     C_3   0.645773 0.092997 0.424440 0.153519
H411  H     H_    0.644922 0.096909 0.443043 0.153615
H412  H     H_    0.601615 0.129712 0.418042 0.132491
C388  C     C_3   0.719407 0.120740 0.415863 -0.339443
H413  H     H_    0.763341 0.082342 0.420906 0.235224
H414  H     H_    0.718128 0.123193 0.397232 0.257085
C389  C     C_3   0.736976 0.196403 0.425204 -0.961166
H415  H     H_    0.693833 0.235974 0.420342 0.273255
H416  H     H_    0.790061 0.215397 0.418354 0.270581
H417  H     H_    0.741185 0.194514 0.443792 0.261338
O116  O     O_3   0.944699 0.627482 0.419003 -0.636740
C390  C     C_3   0.867789 0.629185 0.416794 0.158343
H418  H     H_    0.843558 0.576447 0.422389 0.148553
H419  H     H_    0.851174 0.639688 0.399110 0.188200
C391  C     C_3   0.837359 0.690587 0.431443 -0.355336
H420  H     H_    0.850268 0.679159 0.449272 0.230344
H421  H     H_    0.863402 0.743120 0.426665 0.224955
C392  C     C_3   0.754705 0.697657 0.428924 -0.952268
H422  H     H_    0.740076 0.709548 0.411206 0.267041
H423  H     H_    0.734814 0.743186 0.439623 0.270852
H424  H     H_    0.727333 0.646461 0.434297 0.269228
O117  O     O_3   0.855847 0.463155 0.871334 -0.608640
C393  C     C_3   0.814473 0.526821 0.866909 0.096049
H425  H     H_    0.781721 0.516160 0.851537 0.163284
H426  H     H_    0.848559 0.575947 0.863252 0.140261
C394  C     C_3   0.762124 0.542723 0.886385 -0.330032
H427  H     H_    0.729997 0.492813 0.890286 0.239448
H428  H     H_    0.793933 0.558368 0.901532 0.245119
C395  C     C_3   0.709746 0.604799 0.880707 -0.977680
H429  H     H_    0.740716 0.655671 0.877197 0.274218
H430  H     H_    0.672733 0.614832 0.895142 0.272625
H431  H     H_    0.676075 0.590320 0.865827 0.267134
O118  O     O_3   0.519204 0.906028 0.862353 -0.603132
C396  C     C_3   0.448931 0.883323 0.855499 0.105630
H432  H     H_    0.415890 0.930006 0.849084 0.141246
H433  H     H_    0.419724 0.857500 0.869830 0.168060
C397  C     C_3   0.456922 0.827449 0.836593 -0.324423
H434  H     H_    0.487252 0.852606 0.822410 0.227042
H435  H     H_    0.488732 0.779828 0.842749 0.231265
C398  C     C_3   0.382592 0.801230 0.828185 -0.969723
H436  H     H_    0.351617 0.775035 0.842024 0.268480
H437  H     H_    0.390412 0.760599 0.814543 0.265187
H438  H     H_    0.350521 0.847806 0.821465 0.272355
O119  O     O_3   0.106221 0.546696 0.865672 -0.608515
C399  C     C_3   0.148202 0.484613 0.860135 0.101029
H439  H     H_    0.113573 0.439705 0.853237 0.144200
H440  H     H_    0.177558 0.464589 0.875305 0.165066
C400  C     C_3   0.204046 0.505835 0.842258 -0.328199
H441  H     H_    0.174952 0.527591 0.827302 0.227706
H442  H     H_    0.240362 0.549389 0.848970 0.229962
C401  C     C_3   0.250423 0.440545 0.835157 -0.958857
H443  H     H_    0.280693 0.418347 0.849799 0.268678
H444  H     H_    0.290520 0.457918 0.822253 0.264502
H445  H     H_    0.215293 0.397030 0.827879 0.271782
O120  O     O_3   0.504813 0.166205 0.875258 -0.600461
C402  C     C_3   0.575326 0.196253 0.878097 0.102402
H446  H     H_    0.615516 0.166395 0.867449 0.145964
H447  H     H_    0.593155 0.193630 0.895982 0.170627
C403  C     C_3   0.573977 0.276329 0.870991 -0.333638
H448  H     H_    0.559527 0.279938 0.852900 0.228395
H449  H     H_    0.531636 0.305844 0.880828 0.228677
C404  C     C_3   0.647906 0.312964 0.874877 -0.953354
H450  H     H_    0.662037 0.312306 0.893012 0.267030
H451  H     H_    0.645432 0.370627 0.869215 0.269185
H452  H     H_    0.691285 0.284376 0.865246 0.275010
O121  O     O_3   0.391100 0.978487 0.364746 -0.601408
C405  C     C_3   0.367392 0.047060 0.356583 0.088974
H453  H     H_    0.340205 0.037357 0.340165 0.162373
H454  H     H_    0.412990 0.086045 0.353283 0.137902
C406  C     C_3   0.311919 0.081470 0.372702 -0.316827
H455  H     H_    0.267528 0.041689 0.376231 0.239145
H456  H     H_    0.339328 0.095580 0.388776 0.242565
C407  C     C_3   0.278720 0.150806 0.362872 -0.975100
H457  H     H_    0.322168 0.191651 0.359454 0.273189
H458  H     H_    0.239412 0.174674 0.375029 0.270641
H459  H     H_    0.249172 0.138208 0.347035 0.266103
O122  O     O_3   0.052280 0.405039 0.364175 -0.614892
C408  C     C_3   0.992557 0.359344 0.358892 0.100262
H460  H     H_    0.945676 0.391313 0.352083 0.148092
H461  H     H_    0.974505 0.329155 0.374122 0.170274
C409  C     C_3   0.016463 0.304401 0.341037 -0.329024
H462  H     H_    0.035879 0.334261 0.325944 0.229027
H463  H     H_    0.062401 0.271050 0.347647 0.230362
C410  C     C_3   0.953751 0.253948 0.334295 -0.962961
H464  H     H_    0.934057 0.222792 0.349078 0.267542
H465  H     H_    0.972973 0.214676 0.321369 0.265443
H466  H     H_    0.907830 0.286110 0.327173 0.272240
O123  O     O_3   0.653060 0.007783 0.372506 -0.598206
C411  C     C_3   0.685384 0.937842 0.372199 0.104146
H467  H     H_    0.652644 0.899687 0.361603 0.146387
H468  H     H_    0.689919 0.915342 0.389522 0.167418
C412  C     C_3   0.762076 0.943902 0.362297 -0.326257
H469  H     H_    0.758408 0.965508 0.344909 0.228619
H470  H     H_    0.794968 0.982648 0.372550 0.228485
C413  C     C_3   0.800438 0.869945 0.361830 -0.969558
H471  H     H_    0.806177 0.848056 0.379120 0.265614
H472  H     H_    0.855755 0.876292 0.354453 0.265753
H473  H     H_    0.768993 0.830521 0.351427 0.274881
O124  O     O_3   0.959236 0.649958 0.372760 -0.610794
C414  C     C_3   0.017872 0.699612 0.374900 0.112959
H474  H     H_    0.063667 0.682744 0.363729 0.151072
H475  H     H_    0.038028 0.702854 0.392561 0.162767
C415  C     C_3   0.991737 0.775466 0.368004 -0.330737
H476  H     H_    0.972406 0.773942 0.350314 0.229656
H477  H     H_    0.945285 0.791957 0.378898 0.232600
C416  C     C_3   0.052705 0.831901 0.370221 -0.970933
H478  H     H_    0.071780 0.835352 0.387904 0.268345
H479  H     H_    0.031926 0.886304 0.365084 0.267462
H480  H     H_    0.099447 0.817064 0.359246 0.272168

loop_
_geom_bond_atom_site_label_1
_geom_bond_atom_site_label_2
_ccdc_geom_bond_type
O44   Zn4   S    
C238  H62   S    
C286  H172  S    
C288  H178  S    
C89   N5    A    
O109  C369  S    
C5    C37   A    
C310  H230  S    
C45   C121  A    
C256  H102  S    
C213  H21   S    
C276  H149  S    
C311  C312  S    
C261  H115  S    
O116  C390  S    
C179  C195  A    
C320  H252  S    
C283  H165  S    
C260  C261  S    
O14   Zn2   S    
C45   C57   A    
C305  H217  S    
C177  C193  A    
C318  C319  S    
O1    Zn1   S    
C150  C180  S    
C349  H322  S    
C386  H409  S    
C135  H7    S    
C239  H64   S    
C315  H240  S    
C205  H13   S    
C17   C125  A    
C380  H395  S    
C13   C225  A    
C279  H156  S    
C81   C95   A    
O38   Zn4   S    
C320  C321  S    
C103  O123  S    
C60   C72   A    
C2    C41   S    
O16   Zn4   S    
C298  H200  S    
O34   Zn14  S    
C270  H135  S    
C9    C39   A    
C346  C347  S    
C373  H378  S    
C154  C170  A    
C10   C40   A    
C282  H163  S    
C242  C243  S    
C355  H337  S    
C358  H344  S    
C301  H207  S    
C234  C235  S    
C80   C86   A    
C253  H97   S    
C113  N5    S    
C104  C116  A    
C412  H470  S    
C158  C174  A    
C319  H251  S    
C266  H126  S    
C242  H71   S    
C115  N7    S    
C275  H147  S    
C284  H169  S    
C308  H224  S    
C321  H254  S    
C160  C176  A    
C71   H43   S    
C90   O64   S    
O88   C290  S    
C145  O29   A    
C148  O32   A    
O7    Zn9   S    
C313  H236  S    
C180  C196  A    
C285  C286  S    
C187  O71   S    
C47   C53   A    
C195  C198  A    
C97   C105  A    
O37   Zn3   S    
C100  C108  A    
C244  H75   S    
C292  H186  S    
C337  H297  S    
C406  H455  S    
C155  C158  A    
C300  H206  S    
O33   Zn15  S    
C48   C60   A    
C8    C38   A    
C395  H431  S    
C73   C81   A    
O110  C372  S    
C283  H166  S    
C368  H366  S    
C354  C355  S    
C315  H241  S    
C308  C309  S    
C23   C219  A    
C402  C403  S    
C355  C356  S    
C64   O92   S    
C76   H48   S    
C398  H436  S    
O2    Zn4   S    
C359  H347  S    
C75   H47   S    
O111  C375  S    
C82   C96   A    
C396  C397  S    
C313  H237  S    
C160  C201  S    
C272  H141  S    
C140  C174  S    
C184  C200  A    
C363  H355  S    
C410  H466  S    
C165  C181  A    
C20   C28   A    
C305  C306  S    
C27   C35   A    
C269  H133  S    
C329  C330  S    
C21   C29   A    
C17   C21   A    
C141  O43   A    
C142  O44   A    
O24   Zn12  S    
C385  H407  S    
C12   C40   A    
C377  H388  S    
C400  H441  S    
C24   C32   A    
C393  H425  S    
C137  C173  S    
C272  C273  S    
C315  C316  S    
C326  H267  S    
C47   C123  A    
C314  H238  S    
C399  C400  S    
C60   O88   S    
C302  C303  S    
C16   C232  A    
C271  H137  S    
C233  H49   S    
C141  C169  S    
C267  H128  S    
C350  H326  S    
C264  H122  S    
C157  C204  S    
C99   O119  S    
O102  C348  S    
C132  H4    S    
C389  H417  S    
C3    O11   A    
C304  H214  S    
O13   Zn1   S    
C24   C220  A    
C395  H430  S    
O86   C284  S    
C12   O98   S    
C383  H402  S    
C136  H8    S    
C194  O78   S    
O93   C305  S    
C101  C115  A    
C256  H104  S    
C345  H314  S    
C91   N5    A    
C377  H389  S    
C265  H123  S    
C161  C177  A    
C162  C167  A    
C193  C200  A    
C79   C85   A    
C368  H368  S    
C207  H31   S    
C409  H462  S    
C185  C192  A    
C375  H384  S    
O4    Zn14  S    
C292  H188  S    
C240  H66   S    
C77   C91   A    
C253  H96   S    
C41   C107  A    
O1    Zn3   S    
C29   C129  A    
C168  C209  S    
C349  C350  S    
C35   C135  A    
C280  H158  S    
C84   C88   A    
C309  H227  S    
C196  C197  A    
C173  C189  A    
C379  C380  S    
C105  O109  S    
C13   C227  A    
C290  C291  S    
O17   Zn5   S    
C374  H380  S    
C14   C226  A    
C413  H471  S    
C4    C43   S    
C332  H280  S    
C69   H41   S    
C27   C223  A    
C98   C106  A    
C373  C374  S    
C78   C92   A    
C97   O117  S    
C61   O89   S    
C416  H479  S    
C414  H475  S    
C401  H443  S    
C224  N4    A    
C317  H246  S    
C275  C276  S    
C189  O73   S    
C143  O41   A    
C201  C208  S    
C371  H374  S    
C365  H360  S    
C312  H234  S    
O117  C393  S    
C199  O83   S    
C50   C56   A    
C252  H94   S    
C391  H421  S    
C98   C114  A    
C47   C59   A    
C295  H193  S    
C212  H36   S    
C307  H222  S    
C293  H189  S    
C406  C407  S    
C34   O106  S    
O18   Zn6   S    
C140  O38   A    
C277  H151  S    
C46   C122  A    
C325  H264  S    
C4    O12   A    
C210  C215  S    
C256  H103  S    
C357  H342  S    
C171  C187  A    
C321  H255  S    
C334  H285  S    
C323  H260  S    
C235  H53   S    
C236  H57   S    
C317  C318  S    
C83   C93   A    
C89   O63   S    
C289  H180  S    
C297  C298  S    
C59   O87   S    
C316  H242  S    
C5    O95   S    
O48   Zn6   S    
C91   O61   S    
C204  H28   S    
C69   C77   A    
C166  C182  A    
C244  H74   S    
C218  O54   S    
C412  C413  S    
C181  C197  A    
C390  H418  S    
C280  H160  S    
C413  H473  S    
C71   C79   A    
O113  C381  S    
C8    C228  A    
C378  H390  S    
C352  H330  S    
C67   O19   A    
C294  H191  S    
C245  C246  S    
C157  C173  A    
O47   Zn5   S    
C17   C23   A    
C291  H185  S    
C18   C24   A    
C146  O48   A    
C351  H327  S    
C276  H150  S    
C311  H232  S    
O30   Zn14  S    
C382  H400  S    
C101  O121  S    
C281  H161  S    
C163  C214  S    
C330  H274  S    
C56   C88   A    
C289  H181  S    
C111  O115  S    
C34   C134  A    
C397  C398  S    
C36   O108  S    
C240  H65   S    
C202  H10   S    
C411  C412  S    
C145  C181  S    
C10   C230  A    
C214  H38   S    
C337  C338  S    
O10   Zn16  S    
C360  H349  S    
C389  H415  S    
C122  C134  A    
C304  H216  S    
C31   C131  A    
C129  H1    S    
O27   Zn9   S    
C217  N1    A    
C249  C250  S    
C109  O113  S    
C341  H307  S    
C5    C225  A    
O118  C396  S    
C187  C190  A    
C291  C292  S    
C37   C65   S    
C90   N6    A    
C51   C119  A    
C6    C38   A    
C186  O70   S    
C255  H100  S    
C299  H204  S    
C117  C129  A    
O121  C405  S    
C51   C55   A    
C154  C207  S    
C72   H44   S    
C409  C410  S    
C254  C255  S    
O31   Zn15  S    
C319  H250  S    
C333  H286  S    
C77   C85   A    
C93   N7    A    
C21   C217  A    
C408  H460  S    
C297  H198  S    
C278  C279  S    
C158  C203  S    
C415  C416  S    
C367  H364  S    
C43   C111  A    
C363  C364  S    
C144  O42   A    
O98   C320  S    
C215  H23   S    
C263  H119  S    
C285  H171  S    
C273  H142  S    
C381  H398  S    
C356  H339  S    
C211  H19   S    
C388  C389  S    
C3    C44   S    
C340  H299  S    
C110  O114  S    
C203  C206  S    
O45   Zn7   S    
C100  C114  A    
O78   C260  S    
C281  C282  S    
C361  H351  S    
C198  O82   S    
C144  O28   A    
C400  C401  S    
C151  O35   A    
O115  C387  S    
C54   C86   A    
C192  O76   S    
C339  H301  S    
C114  N6    S    
O8    Zn10  S    
C65   O13   A    
C348  H320  S    
C49   C55   A    
C344  H310  S    
C156  C172  A    
C58   O86   S    
O51   Zn5   S    
C123  C135  A    
C233  C234  S    
C359  H346  S    
C11   C39   A    
C376  H386  S    
C14   C228  A    
C404  H450  S    
O28   Zn12  S    
C221  O57   S    
C224  O60   S    
O107  C363  S    
C381  C382  S    
C10   O100  S    
C368  H367  S    
C217  O53   S    
C123  C127  A    
O79   C263  S    
C295  H195  S    
C28   C224  A    
C342  H303  S    
C255  C256  S    
C211  H35   S    
C328  H270  S    
C7    C37   A    
C196  O80   S    
C212  C213  S    
C405  H454  S    
C362  H353  S    
C387  H412  S    
C243  H72   S    
C235  H55   S    
C146  O30   A    
C185  O69   S    
C387  H411  S    
C364  H358  S    
C347  H318  S    
C403  H448  S    
C316  H244  S    
C274  H146  S    
C163  C179  A    
C336  H290  S    
C268  H130  S    
C286  H174  S    
C320  H253  S    
O1    Zn9   S    
O3    Zn7   S    
O123  C411  S    
C332  H279  S    
C120  C132  A    
C222  O58   S    
O74   C248  S    
O103  C351  S    
C241  H67   S    
C67   O17   A    
C374  H382  S    
C310  H229  S    
C341  H306  S    
C247  H81   S    
C162  C178  A    
C305  H218  S    
C22   C30   A    
C279  C280  S    
C15   C231  A    
C50   C118  A    
C68   O20   A    
C351  C352  S    
O52   Zn8   S    
C399  H440  S    
O4    Zn8   S    
C68   O18   A    
C53   C85   A    
C274  H144  S    
C165  C212  S    
C219  N1    A    
C103  C111  A    
C98   O118  S    
C296  C297  S    
O2    Zn10  S    
C146  C184  S    
C202  C207  S    
C29   O101  S    
C324  C325  S    
O82   C272  S    
C349  H323  S    
O35   Zn13  S    
C154  C159  A    
C72   C80   A    
C380  H394  S    
O11   Zn13  S    
C366  C367  S    
O29   Zn13  S    
C327  C328  S    
C394  H428  S    
C392  H422  S    
O25   Zn11  S    
C63   C75   A    
C357  C358  S    
C237  C238  S    
C95   N7    A    
C370  C371  S    
C149  O33   A    
C407  H457  S    
C258  H108  S    
C373  H379  S    
C331  H281  S    
C266  C267  S    
C299  C300  S    
C55   C87   A    
C358  H343  S    
C301  H208  S    
C234  H52   S    
C332  H278  S    
C338  H293  S    
O124  C414  S    
C247  H83   S    
C382  C383  S    
C288  H177  S    
C137  O39   A    
O41   Zn3   S    
C211  C214  S    
C139  O23   A    
C204  C205  S    
O20   Zn8   S    
C384  H405  S    
C284  H168  S    
C268  H132  S    
C209  H17   S    
C264  H121  S    
C415  H476  S    
C353  H331  S    
C384  C385  S    
C43   C109  A    
C250  H89   S    
O101  C345  S    
C117  C125  A    
C210  H18   S    
C263  C264  S    
C327  H269  S    
C25   C33   A    
C306  H220  S    
C378  C379  S    
C83   C87   A    
C388  H413  S    
C139  O37   A    
C108  O112  S    
C384  H404  S    
C70   H42   S    
C214  H22   S    
C396  H433  S    
C396  H432  S    
C271  H138  S    
C402  H446  S    
C197  O81   S    
C11   C231  A    
C76   C84   A    
C92   O62   S    
O92   C302  S    
C329  H277  S    
C262  H118  S    
C344  H308  S    
C354  H335  S    
C65   O15   A    
C348  C349  S    
C209  H33   S    
C178  C194  A    
C403  C404  S    
C66   O16   A    
O84   C278  S    
O2    Zn2   S    
C4    O10   A    
C273  H143  S    
C164  C165  A    
C206  H14   S    
O9    Zn15  S    
C121  C127  A    
C404  H452  S    
C361  C362  S    
C272  H140  S    
C31   O103  S    
C410  H465  S    
C392  H423  S    
C70   C78   A    
C101  C109  A    
C310  H228  S    
C342  H305  S    
C144  C170  S    
C416  H480  S    
C251  H91   S    
O22   Zn10  S    
C369  C370  S    
O46   Zn8   S    
C35   O107  S    
C186  C191  A    
C344  H309  S    
C391  H420  S    
C299  H203  S    
C322  H258  S    
C33   O105  S    
C393  C394  S    
C6    O96   S    
O80   C266  S    
C139  C175  S    
C387  C388  S    
C74   H46   S    
C386  H408  S    
C203  H27   S    
O106  C360  S    
C302  H211  S    
C41   C105  A    
C62   O90   S    
C398  H438  S    
C267  H129  S    
C336  H288  S    
C314  H239  S    
O3    Zn15  S    
O1    Zn11  S    
C202  H26   S    
C100  O120  S    
C399  H439  S    
C212  H20   S    
C227  C329  S    
C334  H283  S    
C164  C180  A    
C148  C182  S    
C124  C128  A    
C372  C373  S    
O23   Zn11  S    
C269  C270  S    
C249  H87   S    
C303  C304  S    
C288  C289  S    
O12   Zn14  S    
O87   C287  S    
C216  H24   S    
C18   C22   A    
C15   C229  A    
C282  H164  S    
C345  C346  S    
C151  C179  S    
C220  N2    A    
C353  H332  S    
C74   C82   A    
C273  C274  S    
C36   C136  A    
C254  H98   S    
C204  H12   S    
C409  H463  S    
O73   C245  S    
C223  N3    A    
C292  H187  S    
C294  C295  S    
C333  H287  S    
C326  C327  S    
C94   N8    A    
C338  H295  S    
C49   C61   A    
O100  C326  S    
C124  C136  A    
O4    Zn6   S    
C337  H296  S    
C267  C268  S    
C2    O8    A    
C410  H464  S    
C386  H410  S    
C57   O85   S    
C239  H63   S    
C92   N6    A    
C220  O56   S    
C52   C64   A    
C380  H396  S    
C352  H329  S    
C290  H183  S    
C1    O7    A    
C365  H359  S    
O94   C308  S    
C159  C202  S    
C413  H472  S    
C367  C368  S    
C61   C73   A    
C248  H84   S    
C282  C283  S    
C130  H2    S    
C407  H459  S    
C14   N2    S    
O99   C323  S    
C96   O66   S    
C287  H175  S    
C232  C339  S    
C405  C406  S    
C381  H397  S    
C358  C359  S    
C103  C115  A    
O75   C251  S    
C323  C324  S    
C390  C391  S    
O85   C281  S    
C280  H159  S    
C166  C211  S    
C206  H30   S    
C401  H444  S    
C333  C334  S    
C259  H111  S    
C221  N3    A    
C414  H474  S    
C394  C395  S    
C170  C186  A    
C262  H117  S    
C355  H336  S    
C340  H298  S    
C51   C63   A    
C394  H427  S    
C106  O110  S    
C309  H226  S    
C367  H365  S    
C156  C205  S    
C370  H372  S    
C313  H235  S    
C81   C87   A    
C174  C190  A    
C306  C307  S    
C119  C125  A    
C363  H356  S    
C397  H434  S    
C161  C216  S    
C104  O124  S    
C397  H435  S    
C244  H76   S    
C293  H190  S    
C338  H294  S    
C406  H456  S    
C57   C69   A    
O96   C314  S    
C142  O26   A    
C300  C301  S    
C277  H152  S    
C102  C110  A    
C141  O25   A    
C260  H113  S    
C335  C336  S    
O6    Zn12  S    
C376  H385  S    
C308  H225  S    
C366  H362  S    
C339  C340  S    
C248  C249  S    
C401  H445  S    
C235  H54   S    
C236  H56   S    
C210  H34   S    
C312  H233  S    
O21   Zn9   S    
C403  H449  S    
C218  N2    A    
C66   O14   A    
C393  H426  S    
O26   Zn10  S    
C346  H315  S    
C245  H78   S    
C58   C70   A    
C262  H116  S    
C167  C210  S    
O76   C254  S    
C392  H424  S    
C365  H361  S    
C99   C113  A    
C270  C271  S    
C223  O59   S    
O71   C239  S    
C371  H375  S    
O112  C378  S    
C379  H393  S    
C1    O5    A    
C7    C227  A    
C293  C294  S    
C99   C107  A    
C257  H106  S    
C208  H32   S    
C251  C252  S    
C131  H3    S    
C385  H406  S    
C351  H328  S    
C377  H387  S    
C357  H341  S    
C143  C171  S    
C322  H256  S    
C345  H313  S    
C30   C130  A    
C382  H399  S    
C323  H259  S    
O5    Zn11  S    
C281  H162  S    
C271  H139  S    
C274  H145  S    
C75   C83   A    
O105  C357  S    
C140  O24   A    
O40   Zn2   S    
C153  C160  A    
C412  H469  S    
C6    C226  A    
C16   C230  A    
O90   C296  S    
C225  C333  S    
O3    Zn13  S    
C264  C265  S    
C339  H302  S    
O50   Zn6   S    
C246  H79   S    
C122  C128  A    
C360  H348  S    
C389  H416  S    
C304  H215  S    
C137  O21   A    
C379  H392  S    
C134  H6    S    
C324  H261  S    
C133  H5    S    
C1    C42   S    
C252  H93   S    
C298  H202  S    
C191  O75   S    
C383  H401  S    
C28   C36   A    
C237  H59   S    
C40   C68   S    
O77   C257  S    
C153  C169  A    
O91   C299  S    
O43   Zn1   S    
C391  C392  S    
O72   C242  S    
C62   C74   A    
C255  H101  S    
C149  C177  S    
C151  O49   A    
C318  H248  S    
C143  O27   A    
C265  H125  S    
C261  C262  S    
C18   C126  A    
C302  H210  S    
C23   C31   A    
C375  H383  S    
C254  H99   S    
C306  H219  S    
C240  C241  S    
C279  H157  S    
C326  H266  S    
C230  C343  S    
C16   N4    S    
C253  H95   S    
O32   Zn16  S    
C411  H468  S    
C8    O94   S    
O2    Zn12  S    
O97   C317  S    
C2    O6    A    
C228  C331  S    
C15   N3    S    
O95   C311  S    
C257  C258  S    
C239  C240  S    
C148  O46   A    
C362  H352  S    
C155  C206  S    
C13   N1    S    
O70   C236  S    
C263  H120  S    
O89   C293  S    
O108  C366  S    
C201  H9    S    
C238  H60   S    
C265  H124  S    
C356  H338  S    
C371  H373  S    
C48   C54   A    
C388  H414  S    
O81   C269  S    
C353  H333  S    
C205  H29   S    
C287  C288  S    
C118  C130  A    
O114  C384  S    
C231  C337  S    
C20   C128  A    
C400  H442  S    
C175  C191  A    
C138  O22   A    
C414  C415  S    
C82   C88   A    
O49   Zn7   S    
C176  C192  A    
C203  H11   S    
C317  H245  S    
C152  O36   A    
O83   C275  S    
C153  C208  S    
O19   Zn7   S    
C190  O74   S    
O122  C408  S    
C9    C229  A    
C312  C313  S    
C19   C127  A    
C94   O68   S    
O36   Zn16  S    
C287  H176  S    
C346  H316  S    
C303  H212  S    
C104  C112  A    
C26   C34   A    
C257  H105  S    
C3    O9    A    
C364  H357  S    
C390  H419  S    
C307  H221  S    
C252  C253  S    
C297  H199  S    
C95   O65   S    
C242  H70   S    
C347  H319  S    
C25   C221  A    
C325  H263  S    
C395  H429  S    
C19   C27   A    
C243  H73   S    
C246  C247  S    
C283  H167  S    
C195  O79   S    
C96   N8    A    
C236  C237  S    
C284  C285  S    
C247  H82   S    
C289  H179  S    
C22   C218  A    
C296  H197  S    
C188  O72   S    
C411  H467  S    
C80   C90   A    
C336  H289  S    
C46   C54   A    
C369  H369  S    
C32   O104  S    
C328  H272  S    
C163  C166  A    
C331  C332  S    
C229  C341  S    
C12   C232  A    
C352  C353  S    
C201  H25   S    
C162  C215  S    
C374  H381  S    
C49   C117  A    
C314  C315  S    
C209  C216  S    
O15   Zn3   S    
C291  H184  S    
C248  H85   S    
C385  C386  S    
C38   C66   S    
C145  O47   A    
C276  C277  S    
C102  C116  A    
C311  H231  S    
C327  H268  S    
C243  C244  S    
C63   O91   S    
C269  H134  S    
C270  H136  S    
C343  H311  S    
C152  O50   A    
C303  H213  S    
C237  H58   S    
C343  H312  S    
C84   C94   A    
C330  H273  S    
C168  C184  A    
C260  H112  S    
C277  H153  S    
C183  C199  A    
C238  H61   S    
C149  O51   A    
C147  O31   A    
C188  C189  A    
C156  C157  A    
C350  H325  S    
C360  C361  S    
C342  H304  S    
C354  H334  S    
C26   C222  A    
O3    Zn5   S    
C112  O116  S    
C155  C171  A    
C366  H363  S    
C241  H69   S    
C241  H68   S    
C316  H243  S    
C119  C131  A    
O119  C399  S    
C383  H403  S    
C107  O111  S    
C300  H205  S    
C309  C310  S    
C325  H265  S    
C407  H458  S    
C258  H107  S    
C64   C76   A    
C331  H282  S    
C266  H127  S    
C226  C335  S    
C259  H109  S    
C369  H370  S    
C301  H209  S    
C234  H51   S    
C120  C126  A    
C207  H15   S    
C208  H16   S    
C375  C376  S    
C372  H377  S    
C52   C120  A    
C275  H148  S    
C319  H249  S    
C42   C106  A    
C259  H110  S    
C11   O97   S    
C268  H131  S    
C200  O84   S    
C138  C176  S    
C50   C62   A    
C415  H477  S    
C408  C409  S    
C408  H461  S    
C97   C113  A    
C341  C342  S    
O4    Zn16  S    
C44   C112  A    
C278  H154  S    
C372  H376  S    
C285  H170  S    
C142  C172  S    
C245  H77   S    
C219  O55   S    
C356  H340  S    
C147  C183  S    
C378  H391  S    
C318  H247  S    
O104  C354  S    
C249  H86   S    
C340  H300  S    
C167  C183  A    
C7    O93   S    
C32   C132  A    
C261  H114  S    
C335  H292  S    
C39   C67   S    
C295  H194  S    
C361  H350  S    
C330  H275  S    
C150  O52   A    
C48   C124  A    
C147  O45   A    
C329  H276  S    
C402  H447  S    
C296  H196  S    
C343  C344  S    
C164  C213  S    
C348  H321  S    
C73   H45   S    
C370  H371  S    
C93   O67   S    
C30   O102  S    
C258  C259  S    
C321  C322  S    
O42   Zn2   S    
C102  O122  S    
C215  H39   S    
C359  H345  S    
C250  H90   S    
C286  H173  S    
C376  C377  S    
C169  C185  A    
C290  H182  S    
C404  H451  S    
C350  H324  S    
O69   C233  S    
C298  H201  S    
C78   C86   A    
C222  N4    A    
C20   C26   A    
C172  C188  A    
C307  H223  S    
C138  O40   A    
C328  H271  S    
C233  H50   S    
C251  H92   S    
C116  N8    S    
C335  H291  S    
C416  H478  S    
O39   Zn1   S    
C278  H155  S    
C19   C25   A    
C362  H354  S    
C150  O34   A    
C322  H257  S    
C161  C168  A    
C193  O77   S    
C45   C53   A    
C250  H88   S    
C194  C199  A    
C33   C133  A    
C364  C365  S    
C347  H317  S    
C246  H80   S    
C152  C178  S    
C405  H453  S    
C213  H37   S    
C398  H437  S    
C79   C89   A    
C159  C175  A    
C182  C198  A    
C118  C126  A    
C294  H192  S    
C121  C133  A    
C9    O99   S    
C42   C108  A    
O120  C402  S    
C216  H40   S    
C46   C58   A    
C52   C56   A    
C59   C71   A    
C334  H284  S    
C324  H262  S    
C44   C110  A    
