data_mof_unit_59446.cif
_audit_creation_date              2012-12-11T16:12:51-0500
_audit_creation_method            fapswitch 2.2
_symmetry_space_group_name_H-M    P1
_symmetry_Int_Tables_number       1
_space_group_crystal_system       triclinic
_cell_length_a                    6.939874
_cell_length_b                    21.180535
_cell_length_c                    23.675885
_cell_angle_alpha                 90.000176
_cell_angle_beta                  90.001907
_cell_angle_gamma                 90.000483
_cell_volume                      3480.12411461

loop_
_atom_site_label
_atom_site_type_symbol
_atom_type_description
_atom_site_fract_x
_atom_site_fract_y
_atom_site_fract_z
_atom_type_partial_charge
O1    O     O_R   0.615270 0.806540 0.192260 -0.534465
O2    O     O_R   0.384730 0.193460 0.807740 -0.534464
O3    O     O_R   0.384730 0.193460 0.692260 -0.534462
O4    O     O_R   0.615270 0.806540 0.307740 -0.534462
O5    O     O_R   0.115270 0.693460 0.307740 -0.534469
O6    O     O_R   0.884730 0.306540 0.692260 -0.534469
O7    O     O_R   0.884730 0.306540 0.807740 -0.534458
O8    O     O_R   0.115270 0.693460 0.192260 -0.534458
O9    O     O_R   0.285500 0.813970 0.307340 -0.537121
O10   O     O_R   0.714500 0.186030 0.692660 -0.537121
O11   O     O_R   0.714500 0.186030 0.807340 -0.537113
O12   O     O_R   0.285500 0.813970 0.192660 -0.537114
O13   O     O_R   0.785500 0.686030 0.192660 -0.537127
O14   O     O_R   0.214500 0.313970 0.807340 -0.537126
O15   O     O_R   0.214500 0.313970 0.692660 -0.537107
O16   O     O_R   0.785500 0.686030 0.307340 -0.537107
C1    C     C_R   0.454391 0.829355 0.326645 0.725198
C2    C     C_R   0.545608 0.170646 0.673354 0.725198
C3    C     C_R   0.545614 0.170645 0.826646 0.725195
C4    C     C_R   0.454386 0.829355 0.173355 0.725194
C5    C     C_R   0.954385 0.670648 0.173352 0.725201
C6    C     C_R   0.045615 0.329352 0.826648 0.725200
C7    C     C_R   0.045610 0.329357 0.673356 0.725193
C8    C     C_R   0.954391 0.670643 0.326644 0.725194
O17   O     O_3   0.448760 0.710460 0.250000 -0.368197
O18   O     O_3   0.551240 0.289540 0.750000 -0.368198
O19   O     O_3   0.948760 0.789540 0.250000 -0.368198
O20   O     O_3   0.051240 0.210460 0.750000 -0.368197
V1    V     V_3+5 0.173900 0.757330 0.250000 1.435590
V2    V     V_3+5 0.826100 0.242670 0.750000 1.435590
V3    V     V_3+5 0.673900 0.742670 0.250000 1.435593
V4    V     V_3+5 0.326100 0.257330 0.750000 1.435593
C9    C     C_3   0.130587 0.521738 0.538028 -0.276472
C10   C     C_3   0.869481 0.478265 0.461974 -0.276336
C11   C     C_3   0.869047 0.478378 0.037945 -0.275761
C12   C     C_3   0.130973 0.521628 0.962050 -0.275820
C13   C     C_3   0.630870 0.978343 0.962040 -0.276431
C14   C     C_3   0.369105 0.021660 0.037964 -0.276475
C15   C     C_3   0.369322 0.021704 0.461984 -0.275775
C16   C     C_3   0.630612 0.978308 0.538005 -0.275543
C17   C     C_3   0.944576 0.555558 0.518735 0.501449
C18   C     C_3   0.055492 0.444444 0.481266 0.501455
C19   C     C_3   0.054950 0.444409 0.018780 0.501520
C20   C     C_3   0.945070 0.555597 0.981215 0.501519
C21   C     C_3   0.444932 0.944413 0.981238 0.501469
C22   C     C_3   0.555043 0.055590 0.018766 0.501470
C23   C     C_3   0.555290 0.055572 0.481243 0.501502
C24   C     C_3   0.444644 0.944441 0.518748 0.501511
H1    H     H_    0.235896 0.539553 0.569516 0.125450
H2    H     H_    0.764167 0.460447 0.430488 0.125461
H3    H     H_    0.763408 0.460638 0.069371 0.125496
H4    H     H_    0.236614 0.539365 0.930623 0.125491
H5    H     H_    0.736465 0.960590 0.930608 0.125455
H6    H     H_    0.263505 0.039410 0.069396 0.125448
H7    H     H_    0.263956 0.039502 0.430504 0.125487
H8    H     H_    0.735967 0.960502 0.569485 0.125515
H9    H     H_    0.681736 0.490610 0.545597 0.134056
H10   H     H_    0.318336 0.509399 0.454405 0.134003
H11   H     H_    0.318080 0.509200 0.045776 0.133770
H12   H     H_    0.681942 0.490809 0.954218 0.133791
H13   H     H_    0.181898 0.009212 0.954245 0.133980
H14   H     H_    0.818076 0.990794 0.045759 0.133996
H15   H     H_    0.818244 0.990646 0.454372 0.133833
H16   H     H_    0.181683 0.009382 0.545614 0.133753
C25   C     C_1   0.964558 0.624379 0.371774 -0.185900
C26   C     C_1   0.035455 0.375621 0.628226 -0.185897
C27   C     C_1   0.035469 0.375605 0.871787 -0.185912
C28   C     C_1   0.964535 0.624397 0.128211 -0.185914
C29   C     C_1   0.464531 0.875615 0.128221 -0.185893
C30   C     C_1   0.535464 0.124387 0.871781 -0.185895
C31   C     C_1   0.535436 0.124391 0.628217 -0.185919
C32   C     C_1   0.464552 0.875615 0.371779 -0.185914
C33   C     C_3   0.175539 0.505483 0.475258 -0.265044
C34   C     C_3   0.824532 0.494520 0.524742 -0.264889
C35   C     C_3   0.824636 0.494646 0.975146 -0.265577
C36   C     C_3   0.175385 0.505359 0.024850 -0.265639
C37   C     C_3   0.675377 0.994621 0.024832 -0.264831
C38   C     C_3   0.324597 0.005382 0.975171 -0.264879
C39   C     C_3   0.324478 0.005456 0.524761 -0.265938
C40   C     C_3   0.675455 0.994558 0.475229 -0.265687
C41   C     C_3   0.988575 0.539932 0.456816 0.062564
C42   C     C_3   0.011490 0.460070 0.543185 0.062571
C43   C     C_3   0.011478 0.460048 0.956831 0.062610
C44   C     C_3   0.988540 0.539957 0.043165 0.062604
C45   C     C_3   0.488499 0.960062 0.043179 0.062548
C46   C     C_3   0.511478 0.039942 0.956824 0.062540
C47   C     C_3   0.511399 0.039951 0.543170 0.062635
C48   C     C_3   0.488541 0.960062 0.456821 0.062645
C49   C     C_1   0.974866 0.586070 0.409861 0.012242
C50   C     C_1   0.025171 0.413931 0.590140 0.012254
C51   C     C_1   0.025180 0.413907 0.909879 0.012217
C52   C     C_1   0.974831 0.586097 0.090118 0.012208
C53   C     C_1   0.474811 0.913922 0.090133 0.012247
C54   C     C_1   0.525176 0.086081 0.909870 0.012241
C55   C     C_1   0.525119 0.086088 0.590126 0.012212
C56   C     C_1   0.474847 0.913921 0.409867 0.012229
O21   O     O_3   0.884083 0.616612 0.534678 -0.566667
C57   C     C_3   0.863230 0.619692 0.593851 0.073264
H17   H     H_    0.005256 0.612971 0.614885 0.114647
H18   H     H_    0.759939 0.583240 0.609167 0.109615
C58   C     C_3   0.785165 0.684812 0.609656 -0.263929
H19   H     H_    0.885313 0.721803 0.593960 0.200681
H20   H     H_    0.642721 0.691907 0.589167 0.197178
C59   C     C_3   0.762589 0.691895 0.673444 -0.863463
H21   H     H_    0.659359 0.656322 0.689961 0.232998
H22   H     H_    0.706783 0.739757 0.683371 0.239291
H23   H     H_    0.904012 0.685762 0.694701 0.230793
O22   O     O_3   0.115886 0.383379 0.465325 -0.566661
C60   C     C_3   0.137344 0.380353 0.406168 0.073287
H24   H     H_    0.241707 0.416567 0.391031 0.109761
H25   H     H_    0.995759 0.387483 0.384985 0.114432
C61   C     C_3   0.213997 0.315060 0.390343 -0.263781
H26   H     H_    0.356009 0.307536 0.410968 0.197357
H27   H     H_    0.112729 0.278315 0.405879 0.200561
C62   C     C_3   0.237148 0.308037 0.326568 -0.863503
H28   H     H_    0.096212 0.314720 0.305166 0.230646
H29   H     H_    0.291476 0.259999 0.316616 0.239119
H30   H     H_    0.341771 0.343276 0.310231 0.233115
O23   O     O_3   0.114574 0.383284 0.034792 -0.566635
C63   C     C_3   0.137179 0.380435 0.093920 0.073387
H31   H     H_    0.996520 0.388478 0.115372 0.114059
H32   H     H_    0.243805 0.416130 0.108676 0.109985
C64   C     C_3   0.210726 0.314799 0.109877 -0.263534
H33   H     H_    0.107136 0.278571 0.094699 0.200288
H34   H     H_    0.351832 0.306334 0.089013 0.197710
C65   C     C_3   0.234941 0.307983 0.173636 -0.863555
H35   H     H_    0.342070 0.342622 0.189604 0.233301
H36   H     H_    0.286554 0.259655 0.183701 0.238844
H37   H     H_    0.094946 0.315702 0.195287 0.230378
O24   O     O_3   0.885404 0.616716 0.965200 -0.566635
C66   C     C_3   0.863071 0.619583 0.906063 0.073373
H38   H     H_    0.756861 0.583793 0.891234 0.109942
H39   H     H_    0.003923 0.611696 0.884675 0.114129
C67   C     C_3   0.788995 0.685156 0.890107 -0.263570
H40   H     H_    0.647729 0.693471 0.910928 0.197676
H41   H     H_    0.892190 0.721480 0.905335 0.200300
C68   C     C_3   0.764960 0.691977 0.826342 -0.863518
H42   H     H_    0.905119 0.684429 0.804734 0.230436
H43   H     H_    0.712860 0.740250 0.816280 0.238890
H44   H     H_    0.658268 0.657222 0.810325 0.233236
O25   O     O_3   0.384877 0.883324 0.965260 -0.566650
C69   C     C_3   0.364222 0.880254 0.906080 0.073250
H45   H     H_    0.506185 0.887227 0.885076 0.114551
H46   H     H_    0.260403 0.916548 0.890770 0.109665
C70   C     C_3   0.287217 0.815017 0.890215 -0.263699
H47   H     H_    0.387909 0.778191 0.905919 0.200569
H48   H     H_    0.144826 0.807659 0.910659 0.197249
C71   C     C_3   0.264960 0.807942 0.826417 -0.863478
H49   H     H_    0.160903 0.843263 0.809910 0.233244
H50   H     H_    0.210348 0.759946 0.816438 0.239145
H51   H     H_    0.406274 0.814464 0.805193 0.230432
O26   O     O_3   0.615126 0.116676 0.034748 -0.566649
C72   C     C_3   0.635563 0.119759 0.093935 0.073248
H52   H     H_    0.739100 0.083407 0.109299 0.109640
H53   H     H_    0.493467 0.112887 0.114888 0.114592
C73   C     C_3   0.712892 0.184954 0.109804 -0.263751
H54   H     H_    0.855403 0.192212 0.089403 0.197206
H55   H     H_    0.612478 0.221838 0.094057 0.200589
C74   C     C_3   0.734964 0.192039 0.173606 -0.863442
H56   H     H_    0.593545 0.185607 0.194793 0.230531
H57   H     H_    0.789800 0.240007 0.183588 0.239191
H58   H     H_    0.838777 0.156664 0.190153 0.233164
O27   O     O_3   0.615329 0.116665 0.465269 -0.566651
C75   C     C_3   0.638124 0.119529 0.406149 0.073373
H59   H     H_    0.497411 0.111695 0.384664 0.114115
H60   H     H_    0.744325 0.083701 0.391390 0.109967
C76   C     C_3   0.712555 0.185077 0.390251 -0.263671
H61   H     H_    0.609362 0.221438 0.405408 0.200347
H62   H     H_    0.853679 0.193337 0.411175 0.197692
C77   C     C_3   0.737138 0.191898 0.326505 -0.863552
H63   H     H_    0.843744 0.157079 0.310554 0.233112
H64   H     H_    0.789616 0.240140 0.316488 0.238928
H65   H     H_    0.597102 0.184446 0.304799 0.230647
O28   O     O_3   0.384762 0.883331 0.534721 -0.566646
C78   C     C_3   0.360919 0.880562 0.593809 0.073442
H66   H     H_    0.253273 0.916071 0.608278 0.110146
H67   H     H_    0.500913 0.888944 0.615533 0.113864
C79   C     C_3   0.288274 0.814809 0.609740 -0.263604
H68   H     H_    0.147860 0.805987 0.588591 0.197924
H69   H     H_    0.392960 0.778769 0.594855 0.200228
C80   C     C_3   0.262632 0.808096 0.673459 -0.863676
H70   H     H_    0.401958 0.816142 0.695386 0.230558
H71   H     H_    0.211655 0.759690 0.683508 0.238787
H72   H     H_    0.154489 0.842561 0.689135 0.233232

loop_
_geom_bond_atom_site_label_1
_geom_bond_atom_site_label_2
_ccdc_geom_bond_type
O17   V3    S    
C22   O26   S    
C48   C56   S    
O18   V4    S    
C58   H19   S    
O12   V1    S    
O19   V1    S    
C19   C43   S    
H14   C37   S    
O27   C75   S    
C18   C42   S    
C71   H51   S    
C66   C67   S    
C36   C44   S    
C67   C68   S    
C59   H22   S    
C79   H68   S    
C64   H33   S    
C76   H62   S    
C80   H70   S    
O16   V3    S    
C25   C49   T    
C68   H43   S    
O11   C3    A    
C65   H35   S    
C24   C39   S    
O8    V1    S    
C15   C48   S    
C7    C26   S    
C73   H54   S    
C30   C54   T    
C71   H50   S    
C29   C53   T    
C60   H25   S    
C70   H47   S    
C64   H34   S    
C31   C55   T    
C77   H63   S    
C12   C43   S    
C20   O24   S    
C62   H28   S    
O1    V3    S    
O22   C60   S    
O3    C2    A    
O2    V4    S    
C33   C41   S    
O28   C78   S    
C59   H21   S    
C46   C54   S    
C28   C52   T    
C17   C34   S    
C45   C53   S    
C73   H55   S    
C15   H7    S    
C74   H56   S    
O11   V2    S    
C16   H8    S    
C10   C18   S    
C24   C48   S    
C21   C38   S    
C10   C41   S    
C72   H53   S    
C12   C36   S    
C9    C42   S    
O5    V1    S    
C12   H4    S    
C63   C64   S    
O9    V1    S    
C41   C49   S    
C38   C46   S    
O15   C7    A    
C37   C45   S    
C58   H20   S    
O7    V2    S    
C39   C47   S    
C21   O25   S    
C69   C70   S    
C23   C40   S    
C34   C42   S    
C61   H27   S    
C61   H26   S    
C70   H48   S    
C63   H32   S    
O21   C57   S    
C76   C77   S    
C24   O28   S    
H15   C40   S    
C80   H71   S    
O17   V1    S    
C68   H44   S    
C10   H2    S    
C27   C51   T    
C14   C45   S    
O19   V3    S    
O4    V3    S    
C13   C46   S    
O20   V4    S    
C71   H49   S    
C78   H67   S    
C60   C61   S    
C76   H61   S    
C78   C79   S    
C64   C65   S    
C67   H41   S    
C14   C38   S    
C65   H37   S    
C62   H29   S    
C13   C37   S    
C47   C55   S    
C23   C47   S    
H9    C34   S    
C20   C35   S    
C21   C45   S    
O10   V2    S    
C78   H66   S    
C14   H6    S    
H13   C38   S    
C11   C44   S    
C62   H30   S    
C17   C41   S    
O12   C4    A    
C16   C40   S    
O8    C5    A    
C74   H58   S    
O13   C5    A    
C72   C73   S    
C8    C25   S    
C10   C34   S    
O4    C1    A    
O1    C4    A    
O9    C1    A    
O6    V2    S    
O18   V2    S    
C58   C59   S    
C57   H18   S    
C5    C28   S    
C11   H3    S    
H16   C39   S    
C69   H46   S    
C4    C29   S    
C12   C20   S    
C13   C21   S    
C66   H38   S    
C57   C58   S    
C70   C71   S    
C11   C19   S    
C63   H31   S    
C16   C47   S    
C15   C23   S    
C80   H72   S    
C9    C33   S    
C2    C31   S    
C16   C24   S    
C75   H59   S    
C18   C33   S    
C65   H36   S    
O2    C3    A    
O13   V3    S    
C75   C76   S    
C11   C35   S    
O14   V4    S    
C66   H39   S    
O15   V4    S    
C22   C37   S    
C79   H69   S    
O23   C63   S    
C67   H40   S    
C73   C74   S    
C18   O22   S    
O7    C6    A    
C43   C51   S    
C68   H42   S    
H12   C35   S    
C42   C50   S    
C20   C44   S    
C9    C17   S    
O14   C6    A    
C75   H60   S    
C74   H57   S    
C13   H5    S    
C40   C48   S    
C60   H24   S    
C35   C43   S    
O5    C8    A    
C77   H64   S    
O10   C2    A    
C23   O27   S    
O6    C7    A    
O20   V2    S    
C26   C50   T    
O24   C66   S    
C17   O21   S    
C59   H23   S    
O3    V4    S    
C6    C27   S    
C14   C22   S    
C79   C80   S    
C32   C56   T    
O26   C72   S    
C1    C32   S    
O16   C8    A    
C57   H17   S    
C19   O23   S    
C69   H45   S    
C19   C36   S    
C3    C30   S    
C44   C52   S    
C72   H52   S    
O25   C69   S    
C9    H1    S    
H11   C36   S    
C61   C62   S    
H10   C33   S    
C15   C39   S    
C22   C46   S    
C77   H65   S    
