data_mof_unit_10246.cif
_audit_creation_date              2012-12-10T17:24:45-0500
_audit_creation_method            fapswitch 2.2
_symmetry_space_group_name_H-M    P1
_symmetry_Int_Tables_number       1
_space_group_crystal_system       triclinic
_cell_length_a                    23.44221
_cell_length_b                    10.930212
_cell_length_c                    9.647622
_cell_angle_alpha                 87.084828
_cell_angle_beta                  89.269615
_cell_angle_gamma                 93.234511
_cell_volume                      2464.55986003

loop_
_atom_site_label
_atom_site_type_symbol
_atom_type_description
_atom_site_fract_x
_atom_site_fract_y
_atom_site_fract_z
_atom_type_partial_charge
C1    C     C_R   0.500267 0.260753 0.505417 0.810308
C2    C     C_R   0.967965 0.373693 0.277798 0.368740
C3    C     C_R   0.026691 0.353049 0.291290 0.143527
C4    C     C_R   0.058437 0.407940 0.398959 -0.148412
C5    C     C_R   0.028839 0.466244 0.503409 -0.039367
C6    C     C_R   0.059314 0.522872 0.610642 0.001591
C7    C     C_R   0.029736 0.576311 0.717186 -0.101859
C8    C     C_R   0.970467 0.573591 0.718647 -0.077452
C9    C     C_R   0.118946 0.411637 0.404138 0.600724
C10   C     C_R   0.118967 0.525322 0.609015 0.582482
C11   C     C_R   0.239036 0.412232 0.611676 0.218102
C12   C     C_R   0.391178 0.498125 0.500964 0.805909
C13   C     C_R   0.298665 0.422739 0.610513 -0.215459
C14   C     C_R   0.328641 0.491846 0.503799 -0.058655
C15   C     C_R   0.298559 0.552132 0.398755 -0.187841
C16   C     C_R   0.239014 0.545061 0.401745 -0.104276
C17   C     C_R   0.208836 0.475021 0.507538 0.276603
C18   C     C_R   0.751898 0.373945 0.560476 0.484669
C19   C     C_R   0.692884 0.386854 0.555006 -0.294589
C20   C     C_R   0.670919 0.495199 0.499302 -0.134505
C21   C     C_R   0.708641 0.593444 0.450246 0.110564
C22   C     C_R   0.767285 0.579444 0.452871 -0.171565
C23   C     C_R   0.490914 0.734734 0.498658 0.851550
C24   C     C_R   0.789228 0.470915 0.506759 0.177444
C25   C     C_R   0.521942 0.068713 0.777654 0.329008
C26   C     C_R   0.533743 0.968129 0.868523 0.170597
C27   C     C_R   0.496381 0.865259 0.868776 -0.198437
C28   C     C_R   0.460762 0.852089 0.757033 0.193653
C29   C     C_R   0.475712 0.920840 0.633133 -0.022558
C30   C     C_R   0.496807 0.044002 0.643730 -0.031414
C31   C     C_R   0.493502 0.123452 0.517852 -0.121829
C32   C     C_R   0.477006 0.068305 0.393594 -0.163233
C33   C     C_R   0.470205 0.941543 0.384934 0.175376
C34   C     C_R   0.608829 0.502823 0.499091 0.854900
C35   C     C_R   0.476521 0.865945 0.503537 -0.130516
C36   C     C_R   0.592234 0.612159 0.134444 -0.106885
C37   C     C_R   0.646205 0.615720 0.072572 -0.157240
C38   C     C_R   0.650860 0.591917 0.933944 -0.163042
C39   C     C_R   0.601078 0.589823 0.856622 0.208642
C40   C     C_R   0.547839 0.548679 0.922446 0.171639
C41   C     C_R   0.546032 0.552670 0.070627 0.148209
C42   C     C_R   0.453474 0.460571 0.077537 0.016869
C43   C     C_R   0.452622 0.466392 0.930207 0.102943
C44   C     C_R   0.879849 0.518040 0.612098 0.614941
C45   C     C_R   0.877033 0.410589 0.402873 0.677944
C46   C     C_R   0.937505 0.416829 0.392308 -0.196955
C47   C     C_R   0.968558 0.466339 0.502995 -0.061482
C48   C     C_R   0.939485 0.519128 0.612401 -0.001873
Cu1   Cu    Cu3+1 0.500000 0.499990 0.640660 1.052221
Cu2   Cu    Cu3+1 0.500000 0.500010 0.359340 0.997961
H1    H     H_    0.663671 0.312411 0.594445 0.193128
H2    H     H_    0.796453 0.654534 0.415206 0.187179
H3    H     H_    0.469412 0.123810 0.300283 0.220560
H4    H     H_    0.495359 0.796257 0.953107 0.179105
H5    H     H_    0.415577 0.425399 0.134633 0.146135
H6    H     H_    0.586645 0.657608 0.229143 0.214220
H7    H     H_    0.683845 0.646655 0.126773 0.203649
H8    H     H_    0.692289 0.609372 0.883312 0.203206
H9    H     H_    0.413533 0.438452 0.879471 0.156105
H10   H     H_    0.052267 0.619617 0.800689 0.201110
H11   H     H_    0.949040 0.614878 0.803178 0.211029
H12   H     H_    0.321640 0.374022 0.690751 0.177925
H13   H     H_    0.321113 0.605991 0.315724 0.180111
H14   H     H_    0.216135 0.593706 0.321355 0.172652
N1    N     N_R   0.850074 0.463437 0.509181 -0.459020
N2    N     N_R   0.147407 0.468856 0.508152 -0.467105
N3    N     N_R   0.500540 0.501210 0.147910 -0.194584
N4    N     N_R   0.500560 0.501290 0.852040 -0.151830
O1    O     O_R   0.500000 0.319640 0.618810 -0.477730
O2    O     O_2   0.845090 0.348696 0.311572 -0.395411
O3    O     O_2   0.149739 0.362645 0.304462 -0.482747
O4    O     O_2   0.148565 0.584809 0.706844 -0.498997
O5    O     O_R   0.500000 0.319660 0.381240 -0.567340
O6    O     O_R   0.417880 0.499950 0.618810 -0.578579
O7    O     O_R   0.417880 0.499980 0.381240 -0.595116
O8    O     O_R   0.500000 0.680340 0.618760 -0.571524
O9    O     O_R   0.500000 0.680360 0.381190 -0.576706
O10   O     O_R   0.582120 0.500020 0.618760 -0.549888
O11   O     O_R   0.582120 0.500050 0.381190 -0.587873
O12   O     O_2   0.851578 0.570473 0.714271 -0.489070
S1    S     S_3+6 0.936756 0.366430 0.110024 0.081325
O13   O     O_2   0.894137 0.463388 0.090090 -0.239117
O14   O     O_2   0.981769 0.388002 0.997753 -0.279123
O15   O     O_3   0.903873 0.227007 0.095641 -0.441225
H15   H     H_    0.886676 0.230110 0.002352 0.408701
I1    I     I_    0.683088 0.770138 0.383443 -0.267263
S2    S     S_3+6 0.507232 0.195317 0.873162 0.024755
O16   O     O_2   0.449441 0.235270 0.831130 -0.292057
O17   O     O_2   0.504352 0.165803 0.027092 -0.278505
O18   O     O_3   0.560543 0.302237 0.839740 -0.519235
H16   H     H_    0.595305 0.265113 0.875931 0.357555
I2    I     I_    0.596658 0.976550 0.026247 -0.176226
I3    I     I_    0.385422 0.735945 0.778125 -0.292769
I4    I     I_    0.435612 0.872648 0.201492 -0.289851
I5    I     I_    0.061228 0.218425 0.163051 -0.041428
I6    I     I_    0.613288 0.750252 0.724255 -0.290562
I7    I     I_    0.197113 0.295444 0.768167 -0.177448
S3    S     S_3+6 0.777759 0.236941 0.634872 0.057867
O19   O     O_2   0.827089 0.266472 0.727805 -0.270772
O20   O     O_2   0.731215 0.165676 0.718169 -0.259815
O21   O     O_3   0.799909 0.151086 0.507123 -0.463444
H17   H     H_    0.815471 0.078315 0.555295 0.388374

loop_
_geom_bond_atom_site_label_1
_geom_bond_atom_site_label_2
_ccdc_geom_bond_type
S2    O16   D    
O21   H17   S    
Cu1   N4    S    
C12   O6    A    
C32   H3    S    
C19   C20   A    
C1    C31   S    
C23   O8    A    
Cu2   O11   S    
S1    O13   D    
C36   C41   A    
C27   H4    S    
C7    C8    A    
C41   N3    A    
C45   C46   A    
C2    C46   A    
C5    C47   A    
C26   C27   A    
C37   C38   A    
C18   C24   A    
C36   C37   A    
C30   C31   A    
C34   O11   A    
C26   I2    S    
C15   C16   A    
C25   S2    S    
Cu1   O10   S    
C18   C19   A    
C46   C47   A    
C9    N2    A    
C38   H8    S    
C11   C17   A    
C13   H12   S    
C31   C32   A    
C16   C17   A    
Cu2   N3    S    
C43   H9    S    
C8    H11   S    
C20   C34   S    
Cu1   O1    S    
C21   C22   A    
C33   I4    S    
C44   N1    A    
S1    O14   D    
C10   N2    A    
C38   C39   A    
C44   O12   S    
O15   H15   S    
Cu2   O5    S    
C39   C40   A    
C43   N4    A    
C25   C26   A    
C1    O1    A    
C28   I3    S    
C8    C48   A    
C29   C30   A    
C36   H6    S    
C42   H5    S    
C47   C48   A    
C17   N2    S    
Cu1   O8    S    
C23   O9    A    
C24   N1    S    
C40   C41   A    
C12   C14   S    
S3    O19   D    
S3    O20   D    
S2    O17   D    
C45   N1    A    
C42   N3    A    
C22   C24   A    
S2    O18   S    
C42   C43   A    
C3    C4    A    
Cu2   O9    S    
C7    H10   S    
S1    O15   S    
C22   H2    S    
C25   C30   A    
C21   I1    S    
C28   C29   A    
C45   O2    S    
C14   C15   A    
C9    O3    S    
C4    C5    A    
C6    C10   A    
C6    C7    A    
S3    O21   S    
C16   H14   S    
C29   C35   A    
C23   C35   S    
C11   I7    S    
C1    O5    A    
C32   C33   A    
C2    C3    A    
Cu2   O7    S    
C34   O10   A    
C11   C13   A    
O18   H16   S    
C5    C6    A    
C33   C35   A    
C39   I6    S    
C19   H1    S    
C20   C21   A    
Cu1   Cu2   S    
C40   N4    A    
C12   O7    A    
C27   C28   A    
C15   H13   S    
Cu1   O6    S    
C2    S1    S    
C3    I5    S    
C18   S3    S    
C4    C9    A    
C13   C14   A    
C37   H7    S    
C44   C48   A    
C10   O4    S    
