data_mof_unit_62984.cif
_audit_creation_date              2012-12-11T16:49:51-0500
_audit_creation_method            fapswitch 2.2
_symmetry_space_group_name_H-M    P1
_symmetry_Int_Tables_number       1
_space_group_crystal_system       triclinic
_cell_length_a                    22.031566
_cell_length_b                    24.18613
_cell_length_c                    8.413533
_cell_angle_alpha                 89.99998
_cell_angle_beta                  94.592502
_cell_angle_gamma                 90.047392
_cell_volume                      4468.82553012

loop_
_atom_site_label
_atom_site_type_symbol
_atom_type_description
_atom_site_fract_x
_atom_site_fract_y
_atom_site_fract_z
_atom_type_partial_charge
Ba1   Ba    Ba6+2 0.999960 0.460860 0.844880 1.759643
Ba2   Ba    Ba6+2 0.999960 0.539140 0.344880 1.749602
Ba3   Ba    Ba6+2 0.499960 0.960860 0.844880 1.759646
Ba4   Ba    Ba6+2 0.499960 0.039140 0.344880 1.749564
C1    C     C_3   0.062052 0.203896 0.637215 -0.353052
C2    C     C_R   0.829317 0.669057 0.599232 -0.087697
C3    C     C_R   0.329730 0.830594 0.097856 -0.092776
C4    C     C_R   0.329319 0.169058 0.599229 -0.087743
C5    C     C_R   0.819934 0.282432 0.190267 0.269775
C6    C     C_R   0.819254 0.717042 0.692033 0.277766
C7    C     C_R   0.319932 0.782434 0.190271 0.269938
C8    C     C_R   0.319258 0.217044 0.692027 0.277756
C9    C     C_R   0.854046 0.276480 0.338451 -0.120795
C10   C     C_R   0.853460 0.723072 0.840083 -0.133662
C11   C     C_R   0.354039 0.776485 0.338464 -0.120465
C12   C     C_3   0.063511 0.795331 0.136296 -0.348013
C13   C     C_R   0.353465 0.223075 0.840074 -0.133661
C14   C     C_R   0.897598 0.316117 0.392291 0.046762
C15   C     C_R   0.897221 0.683624 0.893629 0.042300
C16   C     C_R   0.397587 0.816125 0.392310 0.046740
C17   C     C_R   0.397227 0.183627 0.893620 0.042290
C18   C     C_R   0.182897 0.663235 0.075207 -0.139150
C19   C     C_R   0.182679 0.336589 0.575835 -0.135193
C20   C     C_R   0.682897 0.163235 0.075208 -0.139167
C21   C     C_R   0.682678 0.836589 0.575837 -0.135197
C22   C     C_R   0.135654 0.625662 0.026663 0.021514
C23   C     C_3   0.562040 0.703898 0.637195 -0.352969
C24   C     C_R   0.135592 0.374249 0.526958 0.021320
C25   C     C_R   0.635654 0.125662 0.026663 0.021519
C26   C     C_R   0.635592 0.874249 0.526959 0.021325
C27   C     C_R   0.195911 0.709067 0.976908 0.247282
C28   C     C_R   0.195586 0.290666 0.477762 0.246013
C29   C     C_R   0.695911 0.209067 0.976909 0.247287
C30   C     C_R   0.695585 0.790666 0.477763 0.246016
C31   C     C_R   0.101260 0.634161 0.882404 -0.299835
C32   C     C_R   0.101248 0.365741 0.382632 -0.301080
C33   C     C_R   0.601261 0.134161 0.882403 -0.299833
C34   C     C_3   0.563513 0.295334 0.136313 -0.348108
C35   C     C_R   0.601248 0.865741 0.382632 -0.301069
C36   C     C_R   0.115502 0.676865 0.780547 -0.015099
C37   C     C_R   0.115417 0.323026 0.280851 -0.011160
C38   C     C_R   0.615502 0.176864 0.780546 -0.015064
C39   C     C_R   0.615417 0.823026 0.280851 -0.011167
C40   C     C_3   0.984673 0.255947 0.080625 0.371967
C41   C     C_3   0.985490 0.744654 0.582481 0.366749
C42   C     C_3   0.484673 0.755947 0.080631 0.371967
C43   C     C_3   0.485490 0.244653 0.582478 0.366752
C44   C     C_R   0.161789 0.714732 0.828678 -0.159461
C45   C     C_R   0.873795 0.370617 0.151506 0.053690
C46   C     C_R   0.161542 0.285062 0.329292 -0.162387
C47   C     C_R   0.661789 0.214732 0.828678 -0.159468
C48   C     C_R   0.661541 0.785062 0.329293 -0.162381
C49   C     C_3   0.958839 0.197936 0.057916 -0.366916
C50   C     C_3   0.959945 0.802655 0.557514 -0.365755
C51   C     C_3   0.458839 0.697936 0.057922 -0.366887
C52   C     C_3   0.459948 0.302656 0.557529 -0.365795
C53   C     C_3   0.172677 0.465540 0.206659 0.310067
C54   C     C_3   0.172804 0.534479 0.706594 0.309668
C55   C     C_3   0.672677 0.965540 0.206659 0.310065
C56   C     C_R   0.873685 0.629252 0.652258 0.052012
C57   C     C_3   0.672804 0.034479 0.706591 0.309673
C58   C     C_3   0.230353 0.430813 0.225681 -0.385149
C59   C     C_3   0.230518 0.569241 0.725505 -0.384475
C60   C     C_3   0.730353 0.930813 0.225681 -0.385145
C61   C     C_3   0.730518 0.069242 0.725496 -0.384483
C62   C     C_3   0.787287 0.507353 0.938246 0.719973
C63   C     C_3   0.786609 0.492822 0.441133 0.682628
C64   C     C_3   0.287294 0.007359 0.938252 0.719960
C65   C     C_3   0.286579 0.992846 0.441126 0.682141
C66   C     C_3   0.719594 0.499455 0.882875 0.284145
C67   C     C_R   0.373792 0.870619 0.151513 0.053633
C68   C     C_3   0.718285 0.499511 0.391381 0.251091
C69   C     C_3   0.219603 0.999469 0.882851 0.284050
C70   C     C_3   0.218258 0.999602 0.391429 0.250668
C71   C     C_3   0.029820 0.258950 0.607163 0.335712
C72   C     C_3   0.030810 0.740387 0.107718 0.335291
C73   C     C_3   0.529812 0.758954 0.607167 0.335646
C74   C     C_3   0.530813 0.240391 0.107721 0.335322
C75   C     C_R   0.909997 0.360784 0.293061 -0.171974
C76   C     C_R   0.909542 0.638888 0.794590 -0.178456
C77   C     C_R   0.409985 0.860793 0.293085 -0.172039
C78   C     C_R   0.373688 0.129253 0.652254 0.052046
C79   C     C_R   0.409548 0.138891 0.794581 -0.178417
C80   C     C_3   0.636470 0.553243 0.940958 0.310420
C81   C     C_3   0.596994 0.570170 0.072865 -0.333892
C82   C     C_3   0.620219 0.477305 0.449011 0.249038
C83   C     C_3   0.584179 0.439990 0.552643 -0.316882
C84   C     C_3   0.136509 0.053356 0.940590 0.310452
C85   C     C_3   0.097053 0.070430 0.072386 -0.333802
C86   C     C_3   0.120152 0.977737 0.449468 0.248904
C87   C     C_3   0.084040 0.940297 0.552583 -0.316691
C88   C     C_R   0.829728 0.330595 0.097858 -0.092553
H1    H     H_    0.057052 0.291653 0.672634 0.076587
H2    H     H_    0.220129 0.611541 0.765159 0.065202
H3    H     H_    0.231363 0.876841 0.381386 0.347222
H4    H     H_    0.606869 0.533565 0.843571 0.005888
H5    H     H_    0.657544 0.591280 0.894935 0.104061
H6    H     H_    0.625427 0.589875 0.172189 0.137113
H7    H     H_    0.561990 0.600166 0.025376 0.065956
H8    H     H_    0.573818 0.533351 0.118554 0.096850
H9    H     H_    0.602989 0.520377 0.456744 0.033277
H10   H     H_    0.612326 0.462221 0.323877 0.045085
H11   H     H_    0.534927 0.442440 0.513286 0.055646
H12   H     H_    0.599495 0.396480 0.542155 0.137296
H13   H     H_    0.719923 0.888521 0.265473 0.064600
H14   H     H_    0.591036 0.452887 0.679342 0.119660
H15   H     H_    0.106884 0.033645 0.843307 0.005830
H16   H     H_    0.157630 0.091336 0.894351 0.103977
H17   H     H_    0.125520 0.090104 0.171702 0.137236
H18   H     H_    0.062144 0.100494 0.024760 0.066016
H19   H     H_    0.073759 0.033685 0.118131 0.096800
H20   H     H_    0.103158 0.020854 0.458269 0.033244
H21   H     H_    0.112051 0.962998 0.324042 0.044965
H22   H     H_    0.034756 0.943124 0.513885 0.055541
H23   H     H_    0.099014 0.896739 0.540740 0.137056
H24   H     H_    0.720129 0.111542 0.765147 0.065200
H25   H     H_    0.091205 0.952769 0.679588 0.119967
H26   H     H_    0.251054 0.427944 0.109842 0.125527
H27   H     H_    0.251220 0.572076 0.609655 0.125600
H28   H     H_    0.751053 0.927943 0.109841 0.125528
H29   H     H_    0.751219 0.072075 0.609645 0.125596
H30   H     H_    0.814704 0.500939 0.835799 -0.014279
H31   H     H_    0.812368 0.500165 0.335917 0.008647
H32   H     H_    0.314713 0.000939 0.835811 -0.014302
H33   H     H_    0.057459 0.707821 0.175234 0.078574
H34   H     H_    0.312338 0.000184 0.335907 0.008793
H35   H     H_    0.710610 0.455066 0.858245 0.081088
H36   H     H_    0.707234 0.544210 0.379158 0.056559
H37   H     H_    0.210601 0.955072 0.858388 0.080990
H38   H     H_    0.207262 0.044318 0.379350 0.056469
H39   H     H_    0.710706 0.522161 0.768030 0.045573
H40   H     H_    0.709615 0.478743 0.273946 0.082579
H41   H     H_    0.210749 0.022122 0.767911 0.045611
H42   H     H_    0.209534 0.978879 0.273945 0.082379
H43   H     H_    0.027489 0.267379 0.476958 -0.077708
H44   H     H_    0.557044 0.791653 0.672657 0.076617
H45   H     H_    0.028860 0.731271 0.977977 -0.076405
H46   H     H_    0.527482 0.767391 0.476967 -0.077698
H47   H     H_    0.528861 0.231278 0.977978 -0.076410
H48   H     H_    0.108555 0.205975 0.595538 0.087308
H49   H     H_    0.110226 0.792642 0.096298 0.087882
H50   H     H_    0.608545 0.705979 0.595525 0.087345
H51   H     H_    0.610229 0.292647 0.096315 0.087867
H52   H     H_    0.065712 0.194105 0.766558 0.149269
H53   H     H_    0.066657 0.805820 0.265173 0.149659
H54   H     H_    0.565698 0.694100 0.766533 0.149278
H55   H     H_    0.557461 0.207822 0.175227 0.078559
H56   H     H_    0.566660 0.305819 0.265193 0.149621
H57   H     H_    0.911681 0.196666 0.095445 0.073407
H58   H     H_    0.913676 0.804809 0.600654 0.072136
H59   H     H_    0.411687 0.696663 0.095482 0.073368
H60   H     H_    0.413675 0.304807 0.600646 0.072153
H61   H     H_    0.209617 0.656044 0.186874 0.110974
H62   H     H_    0.209367 0.343784 0.687569 0.110528
H63   H     H_    0.709617 0.156044 0.186874 0.110964
H64   H     H_    0.709365 0.843783 0.687570 0.110531
H65   H     H_    0.844631 0.242125 0.415301 0.073164
H66   H     H_    0.263592 0.449958 0.315593 0.123233
H67   H     H_    0.844074 0.757418 0.916938 0.073611
H68   H     H_    0.344624 0.742130 0.415313 0.073143
H69   H     H_    0.344079 0.257421 0.916928 0.073605
H70   H     H_    0.801531 0.338496 0.988937 0.123340
H71   H     H_    0.801177 0.661166 0.490213 0.093790
H72   H     H_    0.301538 0.838492 0.988925 0.123378
H73   H     H_    0.301178 0.161166 0.490213 0.093788
H74   H     H_    0.172208 0.748033 0.749189 0.107220
H75   H     H_    0.171884 0.251725 0.249896 0.095923
H76   H     H_    0.672208 0.248033 0.749190 0.107036
H77   H     H_    0.263736 0.550149 0.815474 0.123181
H78   H     H_    0.671884 0.751725 0.249897 0.095958
H79   H     H_    0.943410 0.391353 0.334943 0.068091
H80   H     H_    0.942728 0.608225 0.836856 0.069432
H81   H     H_    0.443391 0.891365 0.334980 0.068085
H82   H     H_    0.442734 0.108229 0.836845 0.069434
H83   H     H_    0.065944 0.604888 0.843748 0.061681
H84   H     H_    0.066043 0.395048 0.343814 0.061191
H85   H     H_    0.565944 0.104888 0.843747 0.061683
H86   H     H_    0.566043 0.895048 0.343814 0.061191
H87   H     H_    0.036256 0.170434 0.571389 0.100083
H88   H     H_    0.763592 0.949958 0.315591 0.123233
H89   H     H_    0.038345 0.828616 0.068210 0.105584
H90   H     H_    0.536245 0.670441 0.571348 0.100126
H91   H     H_    0.538348 0.328620 0.068236 0.105585
H92   H     H_    0.954144 0.285052 0.010183 0.059103
H93   H     H_    0.954322 0.715235 0.515089 0.058724
H94   H     H_    0.454142 0.785052 0.010194 0.059096
H95   H     H_    0.454323 0.215238 0.515072 0.058753
H96   H     H_    0.985741 0.266257 0.209457 -0.094941
H97   H     H_    0.987360 0.735211 0.711984 -0.088976
H98   H     H_    0.485742 0.766257 0.209464 -0.094960
H99   H     H_    0.763736 0.050151 0.815467 0.123182
H100  H     H_    0.487358 0.235205 0.711978 -0.088978
H101  H     H_    0.958016 0.185688 0.930551 0.146751
H102  H     H_    0.957000 0.813435 0.428827 0.147618
H103  H     H_    0.458006 0.685693 0.930550 0.146750
H104  H     H_    0.457012 0.313445 0.428848 0.147621
H105  H     H_    0.987255 0.168160 0.131532 0.104247
H106  H     H_    0.989858 0.833021 0.624824 0.108355
H107  H     H_    0.487264 0.668158 0.131510 0.104274
H108  H     H_    0.489857 0.333016 0.624871 0.108329
H109  H     H_    0.153392 0.469008 0.323659 0.009013
H110  H     H_    0.219923 0.388521 0.265473 0.064603
H111  H     H_    0.153530 0.531027 0.823622 0.009117
H112  H     H_    0.653392 0.969008 0.323659 0.009012
H113  H     H_    0.653531 0.031028 0.823620 0.009116
H114  H     H_    0.139610 0.444845 0.119402 0.062656
H115  H     H_    0.139752 0.555139 0.619328 0.062720
H116  H     H_    0.639610 0.944845 0.119403 0.062655
H117  H     H_    0.639751 0.055138 0.619326 0.062727
H118  H     H_    0.768322 0.628766 0.190452 0.357204
H119  H     H_    0.731509 0.376418 0.382679 0.347603
H120  H     H_    0.268311 0.128786 0.190373 0.357186
N1    N     N_2   0.773713 0.241592 0.147660 -0.233112
N2    N     N_2   0.773023 0.757852 0.649346 -0.230628
N3    N     N_2   0.273712 0.741593 0.147660 -0.233056
N4    N     N_2   0.273027 0.257854 0.649341 -0.230636
N5    N     N_2   0.242748 0.749458 0.018223 -0.224109
N6    N     N_2   0.242319 0.250214 0.519330 -0.232124
N7    N     N_2   0.742748 0.249458 0.018223 -0.224142
N8    N     N_2   0.742317 0.750213 0.519332 -0.232102
O1    O     O_2   0.882020 0.421650 0.880110 -0.423976
O2    O     O_3   0.043713 0.742380 0.526082 -0.592178
O3    O     O_3   0.543369 0.757553 0.026954 -0.592854
O4    O     O_3   0.543714 0.242380 0.526085 -0.592240
O5    O     O_3   0.068720 0.527400 0.059520 -0.497123
O6    O     O_3   0.068720 0.472600 0.559520 -0.496651
O7    O     O_3   0.568720 0.027400 0.059520 -0.497119
O8    O     O_3   0.568720 0.972600 0.559520 -0.496662
O9    O     O_3   0.931280 0.472530 0.130180 -0.463922
O10   O     O_3   0.931280 0.527470 0.630180 -0.461193
O11   O     O_3   0.431280 0.972530 0.130180 -0.463889
O12   O     O_2   0.882020 0.578350 0.380110 -0.430497
O13   O     O_3   0.431280 0.027470 0.630180 -0.461220
O14   O     O_3   0.979610 0.373300 0.637850 -0.457858
O15   O     O_3   0.979610 0.626700 0.137850 -0.454619
O16   O     O_3   0.479610 0.873300 0.637850 -0.457946
O17   O     O_3   0.479610 0.126700 0.137850 -0.454599
O18   O     O_2   0.881615 0.321822 0.720268 -0.412272
O19   O     O_2   0.882433 0.678774 0.222604 -0.445777
O20   O     O_2   0.381612 0.821830 0.720294 -0.412228
O21   O     O_2   0.382433 0.178776 0.222590 -0.445757
O22   O     O_3   0.804308 0.471507 0.064251 -0.675026
O23   O     O_2   0.382020 0.921650 0.880110 -0.424046
O24   O     O_3   0.804135 0.528977 0.565748 -0.680561
O25   O     O_3   0.304308 0.971508 0.064251 -0.675160
O26   O     O_3   0.304141 0.028973 0.565783 -0.680530
O27   O     O_3   0.971344 0.256046 0.662157 -0.618509
O28   O     O_3   0.972127 0.744093 0.160954 -0.613782
O29   O     O_3   0.471334 0.756049 0.662154 -0.618520
O30   O     O_3   0.472129 0.244094 0.160960 -0.613777
O31   O     O_2   0.117830 0.421200 0.809460 -0.459396
O32   O     O_2   0.117830 0.578800 0.309460 -0.459206
O33   O     O_2   0.617830 0.921200 0.809460 -0.459394
O34   O     O_2   0.382020 0.078350 0.380110 -0.430463
O35   O     O_2   0.617830 0.078800 0.309460 -0.459202
O36   O     O_3   0.020150 0.373220 0.051650 -0.509443
O37   O     O_3   0.020150 0.626780 0.551650 -0.507385
O38   O     O_3   0.520150 0.873220 0.051650 -0.509433
O39   O     O_3   0.520150 0.126780 0.551650 -0.507369
O40   O     O_2   0.122674 0.330777 0.953406 -0.477287
O41   O     O_2   0.122817 0.669009 0.453478 -0.477545
O42   O     O_2   0.622674 0.830777 0.953406 -0.477288
O43   O     O_2   0.622817 0.169009 0.453477 -0.477588
O44   O     O_2   0.866623 0.579103 0.052184 -0.322729
O45   O     O_3   0.188174 0.482077 0.652466 -0.635427
O46   O     O_2   0.779682 0.615683 0.879631 -0.407336
O47   O     O_3   0.762216 0.588753 0.169989 -0.555272
O48   O     O_2   0.869301 0.422287 0.542851 -0.316619
O49   O     O_2   0.772997 0.413110 0.662658 -0.317045
O50   O     O_3   0.775856 0.379158 0.372140 -0.590249
O51   O     O_2   0.366648 0.079096 0.052178 -0.322675
O52   O     O_2   0.279708 0.115688 0.879643 -0.407423
O53   O     O_3   0.262247 0.088763 0.170006 -0.555249
O54   O     O_2   0.369221 0.922271 0.542876 -0.316629
O55   O     O_2   0.272885 0.913100 0.662527 -0.316520
O56   O     O_3   0.188111 0.517938 0.152455 -0.635292
O57   O     O_3   0.275811 0.879175 0.372003 -0.589766
O58   O     O_3   0.681735 0.515991 0.002792 -0.638617
O59   O     O_3   0.682353 0.475236 0.504502 -0.637343
O60   O     O_3   0.181725 0.016090 0.002639 -0.638533
O61   O     O_3   0.182315 0.975306 0.504487 -0.637267
O62   O     O_3   0.688174 0.982077 0.652466 -0.635426
O63   O     O_3   0.688111 0.017938 0.152455 -0.635292
O64   O     O_3   0.043370 0.257553 0.026955 -0.592868
P1    P     P_3+3 0.876190 0.439990 0.052900 1.074273
P2    P     P_3+3 0.076213 0.678336 0.578742 0.945218
P3    P     P_3+3 0.576111 0.821615 0.078935 0.944194
P4    P     P_3+3 0.576214 0.178336 0.578742 0.945128
P5    P     P_3+3 0.932016 0.684035 0.102682 1.036673
P6    P     P_3+3 0.931730 0.316115 0.602008 1.050513
P7    P     P_3+3 0.432019 0.184037 0.102676 1.036681
P8    P     P_3+3 0.431723 0.816120 0.602021 1.050544
P9    P     P_3+3 0.876190 0.560010 0.552900 1.069187
P10   P     P_3+3 0.376190 0.939990 0.052900 1.074175
P11   P     P_3+3 0.376190 0.060010 0.552900 1.069173
P12   P     P_3+3 0.123690 0.439530 0.636710 0.980405
P13   P     P_3+3 0.123690 0.560470 0.136710 0.980461
P14   P     P_3+3 0.623690 0.939530 0.636710 0.980400
P15   P     P_3+3 0.623690 0.060470 0.136710 0.980463
P16   P     P_3+3 0.076112 0.321615 0.078934 0.944177
S1    S     S_3+6 0.799738 0.575384 0.008576 -0.114608
S2    S     S_3+6 0.801781 0.425029 0.510699 -0.087708
S3    S     S_3+6 0.299761 0.075387 0.008585 -0.114552
S4    S     S_3+6 0.301706 0.925033 0.510630 -0.087418

loop_
_geom_bond_atom_site_label_1
_geom_bond_atom_site_label_2
_ccdc_geom_bond_type
C55   H116  S    
H3    O57   S    
C65   S4    S    
O51   S3    D    
O56   P13   S    
N1    N7    D    
C71   H1    S    
C9    C14   A    
C41   O2    S    
O49   S2    D    
C84   H16   S    
Ba1   O5    S    
Ba1   O1    S    
C33   C38   A    
C5    C9    A    
C1    H87   S    
Ba2   O9    S    
C7    C11   A    
C40   C49   S    
C51   H107  S    
C17   C79   A    
C42   C51   S    
Ba4   O17   S    
C62   H30   S    
C21   C30   A    
C72   H33   S    
C72   O28   S    
C68   H40   S    
C11   C16   A    
O20   P8    D    
C73   H46   S    
C48   H78   S    
C34   C74   S    
C5    N1    S    
O45   P12   S    
C13   C17   A    
Ba3   O33   S    
O22   P1    S    
C65   C70   S    
C42   H94   S    
O1    P1    D    
C34   H56   S    
C83   H11   S    
C64   S3    S    
C65   H34   S    
C27   C44   A    
C6    C10   A    
C74   O30   S    
O47   S1    S    
C76   H80   S    
C35   H86   S    
Ba2   O6    S    
C53   O56   S    
C36   C44   A    
Ba1   P12   S    
C10   C15   A    
Ba3   P10   S    
C63   H31   S    
C63   O24   S    
C51   H59   S    
O40   P16   D    
C60   H28   S    
C49   H105  S    
C31   C36   A    
C31   H83   S    
C11   H68   S    
O2    P2    S    
N2    N8    D    
C25   P15   S    
C41   H93   S    
C62   C66   S    
C85   H18   S    
O27   P6    S    
O37   P2    S    
C71   H43   S    
O39   P4    S    
C34   H91   S    
C57   C61   S    
C22   C31   A    
C84   C85   S    
O38   P3    S    
Ba3   O8    S    
Ba3   O13   S    
C52   H108  S    
Ba1   O6    S    
C62   S1    S    
C50   H102  S    
C34   H51   S    
Ba4   O34   S    
C74   H47   S    
C50   H58   S    
C72   H45   S    
C14   P6    S    
C59   H2    S    
O31   P12   D    
N4    N6    D    
C37   P16   S    
C39   C48   A    
C70   H42   S    
C63   C68   S    
Ba4   O7    S    
C43   H100  S    
O12   P9    D    
O44   S1    D    
C55   H112  S    
C61   H99   S    
C70   O61   S    
C80   O58   S    
Ba1   O36   S    
Ba2   O12   S    
O57   S4    S    
O14   P6    S    
C21   H64   S    
C49   H57   S    
Ba2   P9    S    
C15   C76   A    
C5    C88   A    
C9    H65   S    
C29   N7    S    
O8    P14   S    
C16   P8    S    
O34   P11   D    
O17   P7    S    
O55   S4    D    
C26   P14   S    
C53   H114  S    
C22   P13   S    
C12   H53   S    
C77   H81   S    
C81   H7    S    
O63   P15   S    
O21   P7    D    
C59   H27   S    
C56   P9    S    
O25   P10   S    
C4    C8    A    
C87   H25   S    
C19   C24   A    
C2    H71   S    
C13   H69   S    
C15   P5    S    
C24   P12   S    
Ba2   P13   S    
C43   H95   S    
Ba3   Ba4   S    
C82   H10   S    
C55   O63   S    
C56   C76   A    
C12   C72   S    
O32   P13   D    
O15   P5    S    
Ba1   O31   S    
C33   H85   S    
C87   H22   S    
C10   H67   S    
C12   H49   S    
C54   O45   S    
C26   C35   A    
C28   N6    S    
C4    H73   S    
Ba2   O37   S    
C79   H82   S    
C53   H109  S    
C57   H113  S    
C43   C52   S    
C67   C77   A    
C18   H61   S    
C66   H35   S    
H118  O47   S    
C49   H101  S    
Ba4   P11   S    
Ba1   P1    S    
O18   P6    D    
O23   P10   D    
O28   P5    S    
C4    C78   A    
C80   H5    S    
O36   P16   S    
O10   P9    S    
C78   P11   S    
C30   N8    S    
O24   P9    S    
C40   O64   S    
O26   P11   S    
C75   H79   S    
C20   C25   A    
C58   H110  S    
C52   H104  S    
Ba1   O10   S    
C14   C75   A    
C8    C13   A    
C58   H66   S    
C73   H44   S    
C61   H29   S    
C52   H60   S    
C86   O61   S    
C32   C37   A    
C69   H37   S    
Ba4   O11   S    
C53   C58   S    
C80   C81   S    
O11   P10   S    
O48   S2    D    
C84   H15   S    
C82   C83   S    
C6    N2    S    
C1    H52   S    
H120  O53   S    
O64   P16   S    
C42   O3    S    
C45   C75   A    
C1    C71   S    
Ba2   O32   S    
Ba3   O16   S    
O19   P5    D    
Ba1   O14   S    
C57   H117  S    
C84   O60   S    
C74   H55   S    
C54   H111  S    
C32   H84   S    
Ba4   O39   S    
C73   O29   S    
C45   C88   A    
Ba3   O7    S    
C37   C46   A    
C71   O27   S    
O41   P2    D    
C88   H70   S    
C21   C26   A    
O43   P4    D    
C12   H89   S    
C2    C6    A    
C64   O25   S    
C29   C47   A    
C3    H72   S    
C30   C48   A    
C20   C29   A    
C57   O62   S    
C86   C87   S    
C23   H54   S    
C87   H23   S    
Ba4   O8    S    
O6    P12   S    
C58   H26   S    
C83   H12   S    
C65   O26   S    
C44   H74   S    
C24   C32   A    
C78   C79   A    
C18   C22   A    
C19   H62   S    
C25   C33   A    
Ba2   O5    S    
C27   N5    S    
C51   H103  S    
C43   O4    S    
C86   H20   S    
C64   H32   S    
C60   H13   S    
O50   S2    S    
C3    C7    A    
C45   P1    S    
C55   C60   S    
C68   H36   S    
N3    N5    D    
C3    C67   A    
C60   H88   S    
C59   H77   S    
C85   H17   S    
C23   H50   S    
O5    P13   S    
Ba1   Ba2   S    
C80   H4    S    
C86   H21   S    
C81   H6    S    
H119  O50   S    
C17   P7    S    
Ba4   P15   S    
C40   H92   S    
C20   H63   S    
C38   C47   A    
O42   P3    D    
O9    P1    S    
C16   C77   A    
C19   C28   A    
C47   H76   S    
C42   H98   S    
O52   S3    D    
C39   P3    S    
C69   O60   S    
C18   C27   A    
C63   S2    S    
C2    C56   A    
C35   C39   A    
C62   O22   S    
C64   C69   S    
O29   P8    S    
O30   P7    S    
O13   P11   S    
C67   P10   S    
Ba3   P14   S    
C66   O58   S    
O46   S1    D    
Ba3   O23   S    
C82   O59   S    
O33   P14   D    
O16   P8    S    
C28   C46   A    
C40   H96   S    
O3    P3    S    
C41   H97   S    
O4    P4    S    
C69   H41   S    
C41   C50   S    
C70   H38   S    
C61   H24   S    
O35   P15   D    
O62   P14   S    
C1    H48   S    
C54   C59   S    
O53   S3    S    
C23   C73   S    
O54   S4    D    
Ba3   O38   S    
C85   H19   S    
C50   H106  S    
C68   O59   S    
C23   H90   S    
C81   H8    S    
C83   H14   S    
C54   H115  S    
C36   P2    S    
C66   H39   S    
Ba2   O15   S    
O7    P15   S    
C7    N3    S    
C46   H75   S    
C8    N4    S    
Ba4   O35   S    
C82   H9    S    
C38   P4    S    
