data_mof_unit_8718.cif
_audit_creation_date              2012-12-11T16:11:13-0500
_audit_creation_method            fapswitch 2.2
_symmetry_space_group_name_H-M    P1
_symmetry_Int_Tables_number       1
_space_group_crystal_system       triclinic
_cell_length_a                    12.844386
_cell_length_b                    13.274427
_cell_length_c                    26.98682
_cell_angle_alpha                 97.405063
_cell_angle_beta                  90.055065
_cell_angle_gamma                 118.938383
_cell_volume                      3982.55835948

loop_
_atom_site_label
_atom_site_type_symbol
_atom_type_description
_atom_site_fract_x
_atom_site_fract_y
_atom_site_fract_z
_atom_type_partial_charge
C1    C     C_R   0.627913 0.894576 0.424308 0.544750
C2    C     C_1   0.139223 0.824053 0.179624 -0.056049
C3    C     C_1   0.159806 0.837003 0.231917 -0.017541
C4    C     C_R   0.602125 0.223964 0.443399 0.548650
C5    C     C_1   0.174664 0.843942 0.276522 -0.015904
C6    C     C_1   0.195066 0.850870 0.328452 -0.051335
C7    C     C_1   0.221170 0.859291 0.372203 -0.006689
C8    C     C_1   0.689488 0.798357 0.136346 -0.013903
C9    C     C_1   0.672834 0.807411 0.180151 -0.052761
C10   C     C_1   0.661468 0.816226 0.232184 -0.009584
C11   C     C_1   0.655696 0.825479 0.276888 -0.005149
C12   C     C_R   0.580511 0.338216 0.229151 0.014532
C13   C     C_1   0.650198 0.841171 0.329225 -0.040391
C14   C     C_1   0.643028 0.861113 0.373474 -0.003038
C15   C     C_1   0.693448 0.381889 0.875127 -0.022127
C16   C     C_R   0.268531 0.875594 0.422385 0.546185
C17   C     C_1   0.684735 0.353260 0.830510 -0.059081
C18   C     C_1   0.676400 0.330686 0.777811 -0.024028
C19   C     C_1   0.667598 0.315471 0.732736 -0.029398
C20   C     C_1   0.652711 0.296323 0.680035 -0.051123
C21   C     C_1   0.633987 0.271904 0.635231 0.003674
C22   C     C_1   0.212657 0.861319 0.607937 -0.016391
C23   C     C_R   0.573980 0.329488 0.281033 0.009822
C24   C     C_R   0.171430 0.743511 0.720253 0.002613
C25   C     C_R   0.168501 0.741769 0.772464 0.000767
C26   C     C_R   0.133300 0.908374 0.783012 -0.009588
C27   C     C_R   0.139551 0.911976 0.731690 -0.127686
C28   C     C_R   0.631255 0.897729 0.563056 0.546066
C29   C     C_R   0.158640 0.830923 0.700527 0.017468
C30   C     C_R   0.149255 0.824208 0.803652 -0.004676
C31   C     C_1   0.132706 0.813808 0.855807 -0.033450
C32   C     C_1   0.180907 0.847330 0.649407 -0.058782
C33   C     C_1   0.107492 0.796603 0.897764 0.009086
C34   C     C_R   0.669616 0.330729 0.307720 0.003884
C35   C     C_1   0.655116 0.860280 0.606317 -0.017777
C36   C     C_R   0.726993 0.917310 0.735107 0.008160
C37   C     C_R   0.737541 0.900097 0.785132 0.015463
C38   C     C_R   0.658467 0.690138 0.756623 -0.011592
C39   C     C_R   0.655611 0.709266 0.706684 -0.004006
C40   C     C_R   0.602647 0.226555 0.583150 0.551842
C41   C     C_R   0.688128 0.821441 0.696322 0.001575
C42   C     C_R   0.700147 0.785999 0.795369 0.028008
C43   C     C_1   0.708343 0.768424 0.846185 -0.068467
C44   C     C_1   0.672058 0.837915 0.646003 -0.062491
C45   C     C_R   0.682801 0.348380 0.205305 0.025019
C46   C     C_1   0.721665 0.758506 0.888767 -0.018097
C47   C     C_R   0.065106 0.771856 0.084298 0.545258
C48   C     C_R   0.715925 0.438784 0.066625 0.544687
C49   C     C_R   0.720215 0.782287 0.086163 0.554811
C50   C     C_R   0.059908 0.765123 0.944337 0.540213
C51   C     C_R   0.709465 0.431801 0.926666 0.531732
C52   C     C_R   0.267476 0.879140 0.561817 0.545096
C53   C     C_R   0.746444 0.752187 0.939027 0.562902
C54   C     C_1   0.637076 0.275813 0.399042 -0.005193
C55   C     C_R   0.771780 0.343222 0.283917 -0.001390
C56   C     C_1   0.693635 0.367407 0.153788 -0.070607
C57   C     C_R   0.778920 0.351621 0.232366 -0.011568
C58   C     C_1   0.869548 0.347334 0.312783 0.190076
C59   C     C_3   0.787797 0.002194 0.827864 -0.243823
C60   C     C_3   0.687429 0.016656 0.852703 -0.304146
C61   C     C_3   0.737631 0.123595 0.892995 -0.434322
C62   C     C_3   0.611144 0.567023 0.768746 -0.249752
C63   C     C_3   0.477549 0.512410 0.776673 -0.292247
C64   C     C_3   0.427125 0.388874 0.788803 -0.428674
C65   C     C_1   0.616505 0.613250 0.665856 0.171710
C66   C     C_3   0.890037 0.366700 0.206483 -0.250453
C67   C     C_1   0.656827 0.306574 0.358595 -0.049294
C68   C     C_3   0.982783 0.496010 0.210039 -0.286337
C69   C     C_3   0.094346 0.512215 0.184180 -0.438136
C70   C     C_3   0.480932 0.340200 0.199026 -0.252260
C71   C     C_3   0.506299 0.465767 0.199013 -0.289613
C72   C     C_3   0.407078 0.469164 0.169411 -0.440440
C73   C     C_3   0.465301 0.317226 0.308341 -0.253216
C74   C     C_3   0.371895 0.188541 0.306845 -0.294603
C75   C     C_3   0.262832 0.175643 0.333909 -0.431571
C76   C     C_3   0.187997 0.653113 0.685595 -0.249312
C77   C     C_3   0.320110 0.696337 0.677237 -0.296094
C78   C     C_1   0.702751 0.392761 0.112349 -0.026345
C79   C     C_3   0.334902 0.609808 0.639001 -0.425537
C80   C     C_1   0.185814 0.656039 0.794219 0.181513
C81   C     C_1   0.110516 0.992104 0.813825 0.188191
C82   C     C_3   0.753940 0.036351 0.722589 -0.251135
C83   C     C_3   0.880721 0.102470 0.705655 -0.293941
C84   C     C_3   0.907835 0.221435 0.693304 -0.438478
C85   C     C_1   0.112851 0.805569 0.135317 -0.013353
Cr1   Cr    Cr6+3 0.416010 0.828400 0.490230 1.033114
Cr2   Cr    Cr6+3 0.676380 0.087280 0.505260 1.036372
Cr3   Cr    Cr6+3 0.407590 0.084280 0.504540 1.035369
Cr4   Cr    Cr6+3 0.914090 0.832340 0.018020 1.030344
Cr5   Cr    Cr6+3 0.923310 0.576840 0.003860 1.026580
Cr6   Cr    Cr6+3 0.654200 0.573160 0.004700 1.027718
H1    H     H_    0.131012 0.979110 0.715970 0.116703
H2    H     H_    0.472444 0.389413 0.823978 0.173290
H3    H     H_    0.330318 0.351825 0.793912 0.164121
H4    H     H_    0.462852 0.566137 0.808054 0.186864
H5    H     H_    0.428286 0.509866 0.742202 0.172405
H6    H     H_    0.626087 0.511913 0.738240 0.165861
H7    H     H_    0.660393 0.566806 0.802547 0.151661
H8    H     H_    0.135611 0.467576 0.201792 0.150669
H9    H     H_    0.071506 0.476453 0.143731 0.163553
H10   H     H_    0.160271 0.606337 0.187801 0.158739
H11   H     H_    0.944090 0.542493 0.192066 0.176407
H12   H     H_    0.791784 0.115300 0.922691 0.170329
H13   H     H_    0.008593 0.535673 0.250036 0.179290
H14   H     H_    0.929661 0.319614 0.223232 0.153621
H15   H     H_    0.866887 0.326293 0.166532 0.150378
H16   H     H_    0.399292 0.429586 0.129779 0.168182
H17   H     H_    0.320621 0.421192 0.186165 0.145477
H18   H     H_    0.427851 0.560905 0.170250 0.153924
H19   H     H_    0.514604 0.508851 0.238068 0.162354
H20   H     H_    0.591889 0.516216 0.182003 0.180180
H21   H     H_    0.471196 0.297260 0.159842 0.152460
H22   H     H_    0.392539 0.287652 0.213280 0.137818
H23   H     H_    0.794089 0.203542 0.876300 0.163477
H24   H     H_    0.288870 0.214741 0.373922 0.169475
H25   H     H_    0.220573 0.219004 0.315968 0.159369
H26   H     H_    0.196648 0.081956 0.331985 0.158267
H27   H     H_    0.343009 0.145496 0.267405 0.163538
H28   H     H_    0.411149 0.142909 0.325087 0.179373
H29   H     H_    0.492114 0.359709 0.347939 0.152888
H30   H     H_    0.425153 0.364919 0.292748 0.139426
H31   H     H_    0.303758 0.525953 0.653509 0.154236
H32   H     H_    0.283537 0.594342 0.603069 0.169187
H33   H     H_    0.430173 0.645529 0.631578 0.170780
H34   H     H_    0.663168 0.131840 0.910271 0.149889
H35   H     H_    0.359641 0.781609 0.663276 0.176362
H36   H     H_    0.369742 0.708139 0.713216 0.168991
H37   H     H_    0.150154 0.569413 0.700801 0.148088
H38   H     H_    0.136476 0.632117 0.649082 0.152683
H39   H     H_    0.844931 0.211184 0.662300 0.171614
H40   H     H_    0.900163 0.275046 0.726775 0.164388
H41   H     H_    0.000161 0.267504 0.681401 0.145496
H42   H     H_    0.946643 0.114784 0.735783 0.168903
H43   H     H_    0.891040 0.051617 0.671821 0.177641
H44   H     H_    0.688218 0.026261 0.692898 0.148892
H45   H     H_    0.631208 0.025800 0.824230 0.162436
H46   H     H_    0.741809 0.090099 0.754549 0.142964
H47   H     H_    0.629461 0.938320 0.870153 0.179998
H48   H     H_    0.841009 0.989541 0.856445 0.178544
H49   H     H_    0.853149 0.084169 0.814777 0.152913
H50   H     H_    0.439059 0.332727 0.757685 0.164381
N1    N     N_1   0.947489 0.350652 0.335813 -0.301522
N2    N     N_1   0.585374 0.536665 0.633334 -0.307637
N3    N     N_1   0.199744 0.587716 0.811552 -0.314117
N4    N     N_1   0.092287 0.059179 0.838464 -0.325163
O1    O     O_R   0.294740 0.800910 0.434410 -0.499230
O2    O     O_R   0.635480 0.460400 0.052590 -0.509452
O3    O     O_R   0.662650 0.681410 0.060750 -0.490994
O4    O     O_R   0.526010 0.837250 0.440870 -0.495084
O5    O     O_R   0.814500 0.852290 0.965490 -0.503964
O6    O     O_R   0.013160 0.821640 0.966980 -0.509711
O7    O     O_R   0.038850 0.666600 0.954370 -0.496641
O8    O     O_R   0.813260 0.476410 0.948680 -0.493868
O9    O     O_R   0.630060 0.454430 0.944230 -0.512741
O10   O     O_R   0.657630 0.675880 0.960300 -0.488972
O11   O     O_3   0.830530 0.660780 0.008860 -0.273909
O12   O     O_R   0.664100 0.185180 0.560770 -0.504137
O13   O     O_R   0.704290 0.994500 0.446090 -0.499507
O14   O     O_R   0.662870 0.181760 0.460430 -0.485880
O15   O     O_R   0.498970 0.199080 0.457120 -0.511506
O16   O     O_R   0.309350 0.975930 0.448180 -0.498284
O17   O     O_R   0.296060 0.804610 0.542650 -0.511694
O18   O     O_R   0.527240 0.840670 0.541200 -0.496569
O19   O     O_R   0.705610 0.998200 0.554330 -0.511922
O20   O     O_R   0.500290 0.202770 0.565360 -0.492896
O21   O     O_R   0.310570 0.979360 0.548520 -0.493204
O22   O     O_3   0.499990 0.999990 0.500010 -0.254299
O23   O     O_R   0.819910 0.858260 0.073860 -0.501033
O24   O     O_R   0.018180 0.827180 0.067430 -0.493278
O25   O     O_R   0.044260 0.672570 0.062730 -0.507340
O26   O     O_R   0.818270 0.481940 0.049130 -0.494233

loop_
_geom_bond_atom_site_label_1
_geom_bond_atom_site_label_2
_ccdc_geom_bond_type
C66   C68   S    
C71   H19   S    
C51   O9    A    
Cr3   O21   S    
C27   C29   A    
C25   C80   S    
C73   C74   S    
C19   C20   S    
C75   H26   S    
C57   C66   S    
Cr6   O2    S    
C39   C41   A    
C4    O15   A    
C74   H28   S    
C12   C23   A    
C45   C57   A    
C26   C27   A    
C22   C32   T    
C5    C6    S    
C47   C85   S    
C36   C37   A    
C61   H12   S    
C23   C73   S    
C64   H2    S    
C38   C42   A    
C29   C32   S    
C30   C31   S    
C65   N2    T    
C4    O14   A    
C64   H50   S    
Cr3   O16   S    
C62   H6    S    
C48   O2    A    
C63   H4    S    
C82   H44   S    
C56   C78   T    
C75   H25   S    
C2    C85   T    
C16   O1    A    
C18   C19   T    
C48   C78   S    
C37   C42   A    
C24   C29   A    
C83   H43   S    
C52   O21   A    
C62   H7    S    
C50   O6    A    
Cr2   O22   S    
C72   H17   S    
C45   C56   S    
C36   C82   S    
C68   C69   S    
C80   N3    T    
C71   H20   S    
Cr5   O26   S    
C31   C33   T    
C1    O4    A    
C70   C71   S    
Cr1   O17   S    
C15   C51   S    
C9    C10   S    
C60   H45   S    
C77   H36   S    
C23   C34   A    
Cr2   O19   S    
C34   C55   A    
C73   H29   S    
C13   C14   T    
C39   C65   S    
C36   C41   A    
C66   H15   S    
Cr1   O1    S    
Cr6   O3    S    
C47   O24   A    
C77   C79   S    
C70   H22   S    
C74   H27   S    
C79   H31   S    
C74   C75   S    
C40   O12   A    
C76   C77   S    
C28   C35   S    
Cr6   O9    S    
Cr5   O7    S    
Cr1   O4    S    
C8    C9    T    
Cr4   O11   S    
C54   C67   T    
C33   C50   S    
C79   H32   S    
C63   H5    S    
C84   H41   S    
Cr2   O12   S    
C49   O3    A    
C60   C61   S    
Cr4   O23   S    
Cr6   O10   S    
C62   C63   S    
C48   O26   A    
C76   H38   S    
C58   N1    T    
C83   C84   S    
C72   H16   S    
C59   H48   S    
Cr3   O22   S    
Cr5   O25   S    
C17   C18   S    
C27   H1    S    
C24   C25   A    
Cr5   O8    S    
C35   C44   T    
C40   O20   A    
C37   C59   S    
C70   H21   S    
C49   O23   A    
C69   H8    S    
C7    C16   S    
C53   O10   A    
C26   C81   S    
C73   H30   S    
C55   C57   A    
C53   O5    A    
C76   H37   S    
C41   C44   S    
C55   C58   S    
C75   H24   S    
C42   C43   S    
C66   H14   S    
Cr5   O11   S    
Cr4   O5    S    
C47   O25   A    
C28   O19   A    
C22   C52   S    
C25   C30   A    
C15   C17   T    
C12   C70   S    
C72   H18   S    
C51   O8    A    
C4    C54   S    
C24   C76   S    
Cr1   O22   S    
C68   H13   S    
C68   H11   S    
C12   C45   A    
C3    C5    T    
C34   C67   S    
C26   C30   A    
C6    C7    T    
C1    C14   S    
C69   H10   S    
C16   O16   A    
C82   H46   S    
C79   H33   S    
C84   H40   S    
C81   N4    T    
Cr2   O13   S    
C2    C3    S    
Cr4   O24   S    
C71   C72   S    
C11   C13   S    
C1    O13   A    
C38   C39   A    
C21   C40   S    
C59   H49   S    
C46   C53   S    
C84   H39   S    
Cr2   O14   S    
Cr3   O15   S    
C43   C46   T    
C83   H42   S    
C10   C11   T    
C64   H3    S    
C63   C64   S    
C69   H9    S    
C50   O7    A    
C59   C60   S    
Cr6   O11   S    
C20   C21   T    
Cr3   O20   S    
Cr4   O6    S    
C52   O17   A    
C61   H23   S    
C61   H34   S    
Cr1   O18   S    
C82   C83   S    
C8    C49   S    
C77   H35   S    
C28   O18   A    
C60   H47   S    
C38   C62   S    
