data_mof_unit_33759.cif
_audit_creation_date              2013-03-05T15:43:29-0500
_audit_creation_method            fapswitch 2.2
_symmetry_space_group_name_H-M    P1
_symmetry_Int_Tables_number       1
_space_group_crystal_system       triclinic
_cell_length_a                    10.845987
_cell_length_b                    10.934779
_cell_length_c                    9.684821
_cell_angle_alpha                 90.986496
_cell_angle_beta                  90.170278
_cell_angle_gamma                 89.985237
_cell_volume                      1148.42961985

loop_
_atom_site_label
_atom_site_type_symbol
_atom_site_description
_atom_site_fract_x
_atom_site_fract_y
_atom_site_fract_z
_atom_type_partial_charge
O1    O     O_R   0.500020 0.321960 0.617040 -0.585889
O2    O     O_R   0.499980 0.321920 0.382900 -0.555014
C1    C     C_R   0.501386 0.265153 0.498443 0.878938
O3    O     O_R   0.317710 0.500000 0.617070 -0.599573
O4    O     O_R   0.317670 0.499960 0.382930 -0.524458
C2    C     C_R   0.260217 0.494141 0.500256 0.759975
Cu1   Cu    Cu3+1 0.500030 0.500020 0.638630 1.025063
Cu2   Cu    Cu3+1 0.499970 0.499980 0.361370 1.025542
O5    O     O_R   0.500020 0.678080 0.617100 -0.587185
O6    O     O_R   0.499980 0.678040 0.382960 -0.569306
O7    O     O_R   0.682330 0.500040 0.617070 -0.539902
O8    O     O_R   0.682290 0.500000 0.382930 -0.615532
C3    C     C_R   0.502261 0.734652 0.501183 0.885800
C4    C     C_R   0.739560 0.494833 0.500407 0.864318
C5    C     C_3   0.072850 0.385146 0.608720 -0.216712
C6    C     C_3   0.924606 0.399716 0.622051 0.205416
C7    C     C_3   0.071246 0.623356 0.547054 0.059404
C8    C     C_3   0.070014 0.455955 0.349105 0.381513
C9    C     C_3   0.122027 0.489925 0.502544 -0.299121
C10   C     C_3   0.877140 0.488126 0.503387 -0.273887
C11   C     C_3   0.927837 0.622660 0.525139 0.001709
C12   C     C_3   0.926335 0.444653 0.356756 -0.312828
H1    H     H_    0.889448 0.512693 0.283293 0.156134
H2    H     H_    0.907566 0.669476 0.426534 0.195872
C13   C     C_2   0.514472 0.929742 0.387976 -0.136734
C14   C     C_2   0.511891 0.866497 0.505023 -0.307173
H3    H     H_    0.510928 0.882333 0.288511 0.208697
H4    H     H_    0.522826 0.909989 0.605702 0.179941
C15   C     C_2   0.528394 0.062682 0.385932 0.333765
C16   C     C_2   0.495500 0.132845 0.495774 -0.314277
H5    H     H_    0.458079 0.092830 0.588212 0.136718
C17   C     C_2   0.463060 0.407950 0.922290 -0.001914
N1    N     N_2   0.498630 0.498660 0.846910 -0.257882
H6    H     H_    0.445484 0.320105 0.872633 0.167392
C18   C     C_2   0.446313 0.415573 0.076604 0.081847
N2    N     N_2   0.498590 0.498630 0.153040 -0.269588
H7    H     H_    0.391641 0.345747 0.125297 0.199273
H8    H     H_    0.568265 0.548710 0.109761 0.193390
C19   C     C_2   0.129412 0.386225 0.755199 0.301036
H9    H     H_    0.189501 0.456456 0.795044 0.188364
O9    O     O_2   0.104338 0.304533 0.835248 -0.441255
C20   C     C_2   0.129993 0.727153 0.466853 0.553013
H10   H     H_    0.227015 0.723937 0.440458 0.065034
O10   O     O_2   0.072335 0.819533 0.438581 -0.425282
Br1   Br    Br    0.595304 0.124759 0.216716 -0.414298
C21   C     C_2   0.478393 0.620745 0.896451 0.616602
H11   H     H_    0.548442 0.689742 0.880190 0.067551
O11   O     O_2   0.380649 0.650513 0.949932 -0.492535
C22   C     C_2   0.123350 0.261541 0.556544 0.644415
H12   H     H_    0.222140 0.253320 0.540584 -0.001880
O12   O     O_2   0.061781 0.169751 0.537432 -0.372701
Br2   Br    Br    0.829124 0.243719 0.615985 -0.254131
C23   C     C_2   0.889805 0.455546 0.764587 0.523435
H13   H     H_    0.927829 0.541318 0.799206 0.129328
O13   O     O_2   0.821501 0.403823 0.845077 -0.474439
Br3   Br    Br    0.120340 0.677935 0.733975 -0.380081
Br4   Br    Br    0.834817 0.733353 0.649879 -0.374020
Br5   Br    Br    0.107098 0.577832 0.206406 -0.385174
Br6   Br    Br    0.150322 0.314086 0.256331 -0.355055
C24   C     C_2   0.869227 0.327923 0.296842 0.590929
H14   H     H_    0.792466 0.335116 0.225210 0.106763
O14   O     O_2   0.905456 0.226145 0.326324 -0.389350

loop_
_geom_bond_atom_site_label_1
_geom_bond_atom_site_label_2
_geom_bond_distance
_ccdc_geom_bond_type
C1    C16   1.447964 S    
C5    C9    1.642782 S    
C11   Br4   1.974504 S    
C15   C16   1.349667 D    
N1    C21   1.427921 S    
C13   H3    1.086626 S    
C23   O13   1.222781 D    
C14   H4    1.083681 S    
C18   N2    1.291878 D    
C6    C10   1.598398 S    
Cu2   O8    1.987818 S    
C17   N1    1.300944 D    
C22   O12   1.216882 D    
N2    H8    1.027934 S    
O2    C1    1.289015 A    
C17   H6    1.083493 S    
Cu1   Cu2   2.685204 S    
C19   O9    1.223999 D    
C8    C12   1.565345 S    
C23   H13   1.072709 S    
C24   O14   1.218431 D    
Cu1   O7    1.988835 S    
C2    C9    1.499767 S    
Cu1   N1    2.017569 S    
C7    Br3   1.968270 S    
C5    C19   1.543776 S    
O4    C2    1.300074 A    
C20   O10   1.222561 D    
O3    Cu1   1.987816 S    
O3    C2    1.290802 A    
C18   H7    1.082256 S    
O8    C4    1.296722 A    
C22   H12   1.086503 S    
C5    C22   1.536195 S    
C12   C24   1.523930 S    
C16   H5    1.083227 S    
O7    C4    1.291144 A    
C21   O11   1.222855 D    
C3    C14   1.445331 S    
O4    Cu2   1.988835 S    
C20   H10   1.084059 S    
C5    C6    1.620995 S    
C17   C18   1.506911 S    
C4    C10   1.494183 S    
C8    Br6   1.982047 S    
C7    C20   1.526828 S    
C10   C11   1.581110 S    
C13   C15   1.462008 S    
Cu2   O6    1.954659 S    
C8    C9    1.624998 S    
Cu2   N2    2.017450 S    
C11   H2    1.112609 S    
C15   Br1   1.928416 S    
C19   H9    1.073296 S    
Cu1   O5    1.961747 S    
O5    C3    1.291373 A    
C21   H11   1.084593 S    
O1    Cu1   1.954659 S    
C7    C9    1.611620 S    
C13   C14   1.338380 D    
C6    C23   1.547487 S    
C8    Br5   1.978585 S    
C12   H1    1.111835 S    
O2    Cu2   1.961747 S    
C6    Br2   1.995677 S    
C10   C12   1.583818 S    
C24   H14   1.085831 S    
O1    C1    1.296476 A    
O6    C3    1.292366 A    
C7    C11   1.569210 S    
