data_mof_unit_8400.cif
_audit_creation_date              2013-03-05T15:42:03-0500
_audit_creation_method            fapswitch 2.2
_symmetry_space_group_name_H-M    P1
_symmetry_Int_Tables_number       1
_space_group_crystal_system       triclinic
_cell_length_a                    27.796206
_cell_length_b                    8.659166
_cell_length_c                    7.507085
_cell_angle_alpha                 102.015052
_cell_angle_beta                  95.555173
_cell_angle_gamma                 93.144862
_cell_volume                      1753.78128161

loop_
_atom_site_label
_atom_site_type_symbol
_atom_site_description
_atom_site_fract_x
_atom_site_fract_y
_atom_site_fract_z
_atom_type_partial_charge
O1    O     O_R   0.503500 0.286120 0.619780 -0.566378
O2    O     O_R   0.496500 0.713880 0.380220 -0.567881
O3    O     O_R   0.494410 0.256780 0.308360 -0.518502
O4    O     O_R   0.505590 0.743220 0.691640 -0.518423
C1    C     C_R   0.496309 0.200718 0.455623 0.841891
C2    C     C_R   0.503828 0.799268 0.544331 0.841439
O5    O     O_R   0.434810 0.514700 0.655690 -0.577935
O6    O     O_R   0.565190 0.485300 0.344310 -0.579058
O7    O     O_R   0.425720 0.485350 0.344280 -0.571328
O8    O     O_R   0.574280 0.514650 0.655720 -0.574138
C3    C     C_R   0.407653 0.500922 0.500376 0.849848
C4    C     C_R   0.592412 0.499980 0.499614 0.853211
Cu1   Cu    Cu3+1 0.505380 0.517380 0.684380 1.167063
Cu2   Cu    Cu3+1 0.494620 0.482620 0.315620 1.168301
C5    C     C_R   0.174693 0.380499 0.402865 0.653383
C6    C     C_R   0.825498 0.627957 0.557173 0.668755
O9    O     O_2   0.196193 0.249032 0.331547 -0.434231
O10   O     O_2   0.804354 0.761032 0.625567 -0.434918
N1    N     N_R   0.202418 0.515746 0.485821 -0.464753
N2    N     N_R   0.797657 0.489442 0.489706 -0.462926
C7    C     C_R   0.182179 0.653168 0.553212 0.647232
C8    C     C_R   0.817678 0.353575 0.414059 0.639438
C9    C     C_R   0.277293 0.550331 0.351875 -0.087053
C10   C     C_R   0.715524 0.461686 0.331029 -0.077586
C11   C     C_R   0.327151 0.544771 0.352451 -0.081980
C12   C     C_R   0.665620 0.466453 0.331995 -0.130363
C13   C     C_R   0.331924 0.471507 0.647748 -0.222825
C14   C     C_R   0.675784 0.522779 0.664101 -0.207209
C15   C     C_R   0.281405 0.473280 0.647600 0.379528
C16   C     C_R   0.726073 0.516794 0.664691 0.382912
C17   C     C_R   0.254125 0.514620 0.497305 0.203679
C18   C     C_R   0.746088 0.487248 0.495807 0.204678
C19   C     C_R   0.101942 0.516269 0.464787 -0.084660
C20   C     C_R   0.897744 0.494721 0.479090 -0.085924
C21   C     C_R   0.124104 0.377423 0.393381 -0.008426
C22   C     C_R   0.875826 0.632880 0.554674 -0.008435
C23   C     C_R   0.095513 0.238310 0.313762 -0.059922
C24   C     C_R   0.904439 0.773199 0.628362 -0.053651
C25   C     C_R   0.131216 0.658675 0.538003 -0.143778
C26   C     C_R   0.868480 0.351504 0.410732 -0.134053
C27   C     C_R   0.354885 0.505740 0.500501 -0.090768
C28   C     C_R   0.645291 0.497181 0.498489 -0.075468
H1    H     H_    0.353361 0.442008 0.762380 0.226793
H2    H     H_    0.660493 0.545291 0.793582 0.208150
H3    H     H_    0.111692 0.131406 0.253559 0.215268
H4    H     H_    0.888521 0.879639 0.691665 0.219782
C29   C     C_R   0.970789 0.361598 0.395863 -0.007041
C30   C     C_R   0.028571 0.651626 0.535916 -0.007640
C31   C     C_R   0.977562 0.645597 0.543535 0.076146
C32   C     C_R   0.021896 0.367357 0.389646 0.076489
C33   C     C_R   0.948867 0.500588 0.472428 0.081708
C34   C     C_R   0.050611 0.511868 0.463322 0.081368
C35   C     C_R   0.940880 0.219596 0.332574 -0.268438
C36   C     C_R   0.058337 0.794374 0.595332 -0.270576
C37   C     C_R   0.890945 0.212629 0.340193 0.356651
C38   C     C_R   0.108572 0.799759 0.596257 0.350114
O11   O     O_2   0.788194 0.222185 0.341202 -0.420566
O12   O     O_2   0.211528 0.781503 0.639384 -0.416123
C39   C     C_R   0.045557 0.233140 0.310993 -0.205344
C40   C     C_R   0.954167 0.779529 0.624377 -0.207618
H5    H     H_    0.730663 0.438452 0.201459 0.217535
H6    H     H_    0.256292 0.581027 0.236764 0.205231
H7    H     H_    0.955180 0.108128 0.281109 0.166625
H8    H     H_    0.043649 0.907038 0.636474 0.168925
H9    H     H_    0.026818 0.120963 0.244627 0.146311
H10   H     H_    0.973084 0.891790 0.689473 0.147711
C41   C     C_2   0.486646 0.035042 0.442161 0.095046
C42   C     C_2   0.513729 0.964867 0.557495 0.094394
N3    N     N_2   0.486510 0.456430 0.038510 0.010301
N4    N     N_2   0.513490 0.543570 0.961490 0.010553
N5    N     N_R   0.470186 0.308570 0.933273 0.260384
O13   O     O_R   0.495887 0.189037 0.942860 -0.260451
O14   O     O_R   0.424566 0.280871 0.871122 -0.330225
N6    N     N_R   0.531754 0.688782 0.068683 0.258698
O15   O     O_R   0.508186 0.813070 0.060231 -0.259979
O16   O     O_R   0.577505 0.708853 0.130358 -0.330078
N7    N     N_R   0.258858 0.430245 0.797605 0.145523
O17   O     O_R   0.282327 0.354363 0.906619 -0.305163
O18   O     O_R   0.215528 0.469164 0.830344 -0.329190
N8    N     N_R   0.756169 0.540540 0.836510 0.136580
O19   O     O_R   0.744112 0.635567 0.980891 -0.304409
O20   O     O_R   0.794139 0.460937 0.852615 -0.336751
H11   H     H_    0.643012 0.445704 0.202166 0.202677
H12   H     H_    0.344044 0.572518 0.237618 0.207213
N9    N     N_R   0.864396 0.060674 0.281612 0.168961
O21   O     O_R   0.844621 0.996068 0.401216 -0.277241
O22   O     O_R   0.869161 0.973404 0.121723 -0.311459
N10   N     N_R   0.135307 0.951864 0.648299 0.166260
O23   O     O_R   0.160308 0.002330 0.531134 -0.275665
O24   O     O_R   0.126728 0.051666 0.794991 -0.318213
N11   N     N_R   0.442145 0.959855 0.335869 0.126835
O25   O     O_R   0.427258 0.000359 0.183518 -0.237998
O26   O     O_R   0.412063 0.876483 0.407771 -0.361102
N12   N     N_R   0.558423 0.039552 0.662945 0.128520
O27   O     O_R   0.574082 0.996040 0.812635 -0.243721
O28   O     O_R   0.587977 0.125501 0.591965 -0.350547

loop_
_geom_bond_atom_site_label_1
_geom_bond_atom_site_label_2
_geom_bond_distance
_ccdc_geom_bond_type
C10   H5    1.082001 S    
C13   C15   1.405050 A    
C1    C41   1.425684 S    
N1    C17   1.432179 S    
C8    O11   1.347977 S    
N7    O17   1.301769 A    
C19   C34   1.424122 A    
C5    N1    1.362967 A    
C20   C33   1.425217 A    
C19   C25   1.416319 A    
C31   C40   1.415041 A    
N6    O16   1.300034 A    
C12   H11   1.083148 S    
O1    C1    1.289249 A    
C32   C39   1.416070 A    
N1    C7    1.366147 A    
C10   C12   1.390715 A    
N3    N4    1.292124 D    
C38   N10   1.435897 S    
Cu1   N4    2.033969 S    
C14   C28   1.404943 A    
O4    Cu1   1.944641 S    
N3    N5    1.383845 S    
C4    C28   1.472190 S    
C9    H6    1.083117 S    
C31   C33   1.423523 A    
N4    N6    1.384185 S    
C11   H12   1.083327 S    
C32   C34   1.423254 A    
C6    N2    1.365057 A    
C29   C35   1.413144 A    
C16   N8    1.437927 S    
C2    C42   1.426240 S    
C40   H10   1.075462 S    
Cu1   Cu2   2.706754 S    
O2    C2    1.289046 A    
C5    C21   1.399585 A    
O5    C3    1.305863 A    
C29   C32   1.424336 A    
C35   C37   1.393238 A    
C36   C38   1.393863 A    
N6    O15   1.299689 A    
N9    O22   1.301324 A    
C41   C42   1.352289 D    
O4    C2    1.294774 A    
C11   C27   1.401026 A    
N11   O25   1.301389 A    
N5    O14   1.299515 A    
C29   C33   1.417911 A    
N9    O21   1.300848 A    
C14   H2    1.083362 S    
C42   N12   1.447955 S    
C9    C17   1.398957 A    
C37   N9    1.434940 S    
C30   C36   1.413576 A    
O7    Cu2   1.948668 S    
C10   C18   1.401000 A    
N11   O26   1.301964 A    
C13   C27   1.403346 A    
C25   C38   1.412490 A    
C7    C25   1.414335 A    
O5    Cu1   1.950857 S    
O6    C4    1.305731 A    
C26   C37   1.413419 A    
C8    C26   1.415771 A    
C41   N11   1.447368 S    
N7    O18   1.300754 A    
C15   N7    1.444117 S    
N12   O28   1.302085 A    
O7    C3    1.303504 A    
C23   C39   1.384866 A    
O3    Cu2   1.944641 S    
O8    C4    1.304949 A    
C24   C40   1.383801 A    
N8    O20   1.301337 A    
C30   C31   1.423071 A    
N10   O24   1.301412 A    
Cu2   N3    2.033969 S    
C20   C26   1.416518 A    
O1    Cu1   1.956346 S    
C23   H3    1.083636 S    
C12   C28   1.402518 A    
N2    C18   1.437797 S    
C5    O9    1.350016 S    
O6    Cu2   1.950857 S    
C21   C23   1.393966 A    
N2    C8    1.367913 A    
N8    O19   1.301328 A    
O3    C1    1.294436 A    
O8    Cu1   1.948671 S    
C22   C24   1.394212 A    
C7    O12   1.348328 S    
C15   C17   1.417193 A    
C39   H9    1.075091 S    
C16   C18   1.414029 A    
C35   H7    1.074924 S    
C36   H8    1.075411 S    
C14   C16   1.401255 A    
C19   C21   1.410411 A    
C3    C27   1.469725 S    
C20   C22   1.410196 A    
C9    C11   1.388944 A    
N12   O27   1.301442 A    
O2    Cu2   1.956346 S    
C24   H4    1.083606 S    
C13   H1    1.081582 S    
C30   C34   1.417133 A    
N5    O13   1.299638 A    
N10   O23   1.300987 A    
C6    O10   1.350278 S    
C6    C22   1.399311 A    
