data_mof_unit_46252.cif
_audit_creation_date              2013-03-05T16:23:20-0500
_audit_creation_method            fapswitch 2.2
_symmetry_space_group_name_H-M    P1
_symmetry_Int_Tables_number       1
_space_group_crystal_system       triclinic
_cell_length_a                    27.586396
_cell_length_b                    10.510549
_cell_length_c                    9.834838
_cell_angle_alpha                 89.676222
_cell_angle_beta                  91.09659
_cell_angle_gamma                 90.41077
_cell_volume                      2850.9543626

loop_
_atom_site_label
_atom_site_type_symbol
_atom_site_description
_atom_site_fract_x
_atom_site_fract_y
_atom_site_fract_z
_atom_type_partial_charge
O1    O     O_R   0.500000 0.313960 0.616610 -0.619286
O2    O     O_R   0.500000 0.686040 0.383390 -0.670130
O3    O     O_R   0.500020 0.313950 0.383350 -0.539574
O4    O     O_R   0.499980 0.686050 0.616650 -0.527882
C1    C     C_R   0.499173 0.258179 0.500379 1.028588
C2    C     C_R   0.500437 0.741802 0.499511 0.996348
O5    O     O_R   0.428750 0.500030 0.616610 -0.568736
O6    O     O_R   0.571250 0.499970 0.383390 -0.631581
O7    O     O_R   0.428770 0.500020 0.383360 -0.606301
O8    O     O_R   0.571230 0.499980 0.616640 -0.536428
C3    C     C_R   0.406051 0.492856 0.499182 0.907252
C4    C     C_R   0.593679 0.495622 0.500735 0.970328
Zn1   Zn    Zn3+2 0.499990 0.500010 0.655740 1.123107
Zn2   Zn    Zn3+2 0.500010 0.499990 0.344260 1.032583
C5    C     C_R   0.175631 0.309607 0.472547 0.629453
C6    C     C_R   0.826222 0.574667 0.496399 0.629193
O9    O     O_2   0.198648 0.200728 0.442810 -0.469672
O10   O     O_2   0.803566 0.687937 0.499461 -0.448497
N1    N     N_R   0.202015 0.418525 0.490213 -0.335986
N2    N     N_R   0.799579 0.464317 0.493125 -0.336527
C7    C     C_R   0.181307 0.531126 0.524196 0.627089
C8    C     C_R   0.821560 0.348154 0.502485 0.603375
C9    C     C_R   0.279158 0.402870 0.607066 -0.194061
C10   C     C_R   0.721948 0.401266 0.588749 -0.233977
C11   C     C_R   0.328568 0.428238 0.615282 0.300736
C12   C     C_R   0.671371 0.397578 0.587920 0.245374
C13   C     C_R   0.328032 0.467873 0.371452 -0.263312
C14   C     C_R   0.671610 0.550825 0.400466 -0.336172
C15   C     C_R   0.278058 0.444118 0.363141 0.354072
C16   C     C_R   0.721784 0.539933 0.389721 0.390269
C17   C     C_R   0.253576 0.415253 0.484217 0.121860
C18   C     C_R   0.747470 0.469282 0.489702 0.119912
C19   C     C_R   0.102749 0.427456 0.522005 -0.144478
C20   C     C_R   0.899700 0.451703 0.521777 -0.151279
C21   C     C_R   0.124984 0.311586 0.485875 -0.131403
C22   C     C_R   0.877050 0.570087 0.498983 -0.143849
C23   C     C_R   0.095902 0.202471 0.462428 0.520579
C24   C     C_R   0.905823 0.679498 0.477829 0.536081
C25   C     C_R   0.131118 0.538284 0.543725 -0.161169
C26   C     C_R   0.871534 0.339914 0.530054 -0.156444
C27   C     C_R   0.353430 0.466037 0.496871 -0.207491
C28   C     C_R   0.646253 0.482279 0.499673 -0.158686
H1    H     H_    0.346944 0.490078 0.279319 0.247185
H2    H     H_    0.651889 0.609832 0.327863 0.185764
C29   C     C_R   0.973253 0.325493 0.548176 -0.053252
C30   C     C_R   0.029334 0.550956 0.556132 -0.055851
C31   C     C_R   0.978658 0.558066 0.533164 0.035852
C32   C     C_R   0.023803 0.319860 0.526295 0.042135
C33   C     C_R   0.950550 0.445086 0.535124 0.056088
C34   C     C_R   0.051991 0.432646 0.535567 0.056056
C35   C     C_R   0.944490 0.217020 0.580236 0.142067
C36   C     C_R   0.058115 0.657359 0.595871 0.147780
C37   C     C_R   0.893636 0.224498 0.569820 0.234522
C38   C     C_R   0.108815 0.651098 0.588288 0.236546
O11   O     O_2   0.795042 0.241165 0.483006 -0.493687
O12   O     O_2   0.209737 0.635489 0.537898 -0.486009
C39   C     C_R   0.046227 0.207018 0.485573 -0.212846
C40   C     C_R   0.955895 0.673088 0.497240 -0.207195
H3    H     H_    0.742080 0.345682 0.663333 0.226697
H4    H     H_    0.259713 0.380141 0.698925 0.202046
H5    H     H_    0.025199 0.122149 0.463948 0.192917
H6    H     H_    0.976826 0.757981 0.476028 0.198663
C41   C     C_3   0.493529 0.039992 0.630803 -0.341034
C42   C     C_3   0.506021 0.959936 0.368715 -0.389191
C43   C     C_3   0.536141 0.960939 0.579260 0.244086
C44   C     C_3   0.463456 0.039028 0.420349 0.228787
H7    H     H_    0.488873 0.075024 0.736018 0.233734
H8    H     H_    0.510715 0.925009 0.263467 0.224962
C45   C     C_3   0.500844 0.876294 0.497969 -0.270396
C46   C     C_3   0.498697 0.123643 0.501598 -0.264716
C47   C     C_3   0.458180 0.955240 0.546393 0.424150
C48   C     C_3   0.541399 0.044699 0.453037 0.462958
C49   C     C_3   0.513347 0.393405 0.048056 0.246943
C50   C     C_3   0.486664 0.608110 0.950393 0.243745
C51   C     C_3   0.542474 0.478994 0.955730 0.486826
C52   C     C_3   0.457581 0.524380 0.045118 0.506770
N3    N     N_3   0.499960 0.500030 0.863290 -0.172342
N4    N     N_3   0.500040 0.499970 0.136710 -0.189343
C53   C     C_3   0.470259 0.413874 0.950004 -0.222267
C54   C     C_3   0.529206 0.588508 0.050804 -0.453745
H9    H     H_    0.445992 0.340597 0.904017 0.224532
H10   H     H_    0.552411 0.663432 0.098302 0.190399
O13   O     O_3   0.414260 0.898586 0.587223 -0.564207
C55   C     C_3   0.386115 0.989424 0.654443 0.146883
H11   H     H_    0.382533 0.079113 0.594200 0.151918
H12   H     H_    0.402531 0.011213 0.755960 0.186349
C56   C     C_3   0.335534 0.935189 0.675308 -0.610454
H13   H     H_    0.337615 0.846291 0.736653 0.265093
H14   H     H_    0.313156 0.005368 0.729551 0.228236
H15   H     H_    0.317975 0.913872 0.575354 0.268385
O14   O     O_3   0.584857 0.102736 0.410681 -0.537217
C57   C     C_3   0.614357 0.011695 0.348725 0.139685
H16   H     H_    0.598733 0.984922 0.247662 0.173612
H17   H     H_    0.618620 0.924645 0.412842 0.145671
C58   C     C_3   0.664454 0.069214 0.327970 -0.598700
H18   H     H_    0.680952 0.096627 0.427605 0.278727
H19   H     H_    0.688148 0.998636 0.278915 0.225103
H20   H     H_    0.661779 0.155050 0.261913 0.261452
O15   O     O_3   0.588798 0.449640 0.905476 -0.535954
C59   C     C_3   0.624789 0.502514 0.993496 0.099723
H21   H     H_    0.617340 0.481568 0.102442 0.162441
H22   H     H_    0.626815 0.607365 0.977908 0.176665
C60   C     C_3   0.674185 0.447568 0.964320 -0.624867
H23   H     H_    0.684670 0.471370 0.859001 0.247949
H24   H     H_    0.701699 0.489240 0.035081 0.237339
H25   H     H_    0.673511 0.342975 0.980111 0.286751
O16   O     O_3   0.410743 0.545096 0.096673 -0.555588
C61   C     C_3   0.404665 0.672723 0.139955 0.152523
H26   H     H_    0.435512 0.738146 0.119824 0.151541
H27   H     H_    0.400175 0.674808 0.251359 0.173190
C62   C     C_3   0.358383 0.726830 0.076367 -0.636577
H28   H     H_    0.326643 0.668781 0.107054 0.268329
H29   H     H_    0.353095 0.825859 0.111123 0.243195
H30   H     H_    0.360242 0.727351 0.964112 0.291142
N5    N     N_R   0.529638 0.272529 0.104575 0.257288
O17   O     O_R   0.570630 0.266391 0.171636 -0.357073
O18   O     O_R   0.504653 0.169162 0.081970 -0.342264
N6    N     N_R   0.472097 0.728798 0.889620 0.221830
O19   O     O_R   0.433092 0.734699 0.813840 -0.340775
O20   O     O_R   0.497459 0.831413 0.912887 -0.366995
N7    N     N_R   0.253215 0.451179 0.232712 0.221642
O21   O     O_R   0.206419 0.464337 0.223331 -0.379287
O22   O     O_R   0.277598 0.444638 0.120982 -0.320416
N8    N     N_R   0.745760 0.597963 0.276176 0.211940
O23   O     O_R   0.782489 0.542402 0.221143 -0.411865
O24   O     O_R   0.727664 0.698777 0.217543 -0.393179
O25   O     O_3   0.115873 0.088508 0.422899 -0.511639
C63   C     C_3   0.108297 0.074349 0.281325 0.099585
H31   H     H_    0.125799 0.153899 0.224583 0.168299
H32   H     H_    0.068893 0.070949 0.254481 0.125526
C64   C     C_3   0.130752 0.950116 0.236271 -0.574967
H33   H     H_    0.112916 0.868499 0.287865 0.250065
H34   H     H_    0.125859 0.939254 0.124586 0.215993
H35   H     H_    0.170131 0.949849 0.262037 0.283152
O26   O     O_3   0.885618 0.793108 0.434949 -0.506519
C65   C     C_3   0.886161 0.797151 0.291329 0.093216
H36   H     H_    0.865458 0.715441 0.246847 0.180877
H37   H     H_    0.924045 0.795707 0.254036 0.125265
C66   C     C_3   0.862491 0.919373 0.241099 -0.554391
H38   H     H_    0.883309 0.003091 0.279346 0.244394
H39   H     H_    0.861917 0.921851 0.128184 0.212061
H40   H     H_    0.824646 0.924224 0.277241 0.290268
N9    N     N_R   0.647233 0.301238 0.668277 0.246793
O27   O     O_R   0.672393 0.229345 0.751044 -0.334383
O28   O     O_R   0.603030 0.266019 0.639302 -0.312902
N10   N     N_R   0.352283 0.415862 0.745168 0.221230
O29   O     O_R   0.352744 0.305580 0.805866 -0.392436
O30   O     O_R   0.361577 0.517505 0.815939 -0.318173
N11   N     N_R   0.864666 0.121648 0.620708 0.276201
O31   O     O_R   0.854342 0.024643 0.543882 -0.248365
O32   O     O_R   0.843381 0.133033 0.736853 -0.319570
N12   N     N_R   0.137366 0.755863 0.638207 0.277280
O33   O     O_R   0.148694 0.849497 0.557583 -0.264708
O34   O     O_R   0.151907 0.757708 0.764782 -0.309241
N13   N     N_R   0.966002 0.106700 0.643349 0.227252
O35   O     O_R   0.997926 0.120032 0.741485 -0.307446
O36   O     O_R   0.952610 0.992834 0.606741 -0.293048
N14   N     N_R   0.036783 0.765043 0.661149 0.228951
O37   O     O_R   0.005642 0.747722 0.757386 -0.312190
O38   O     O_R   0.049684 0.880385 0.628576 -0.281994
N15   N     N_R   0.576787 0.918499 0.664702 0.242665
O39   O     O_R   0.600482 0.000274 0.739579 -0.240876
O40   O     O_R   0.591037 0.800904 0.662402 -0.402443
N16   N     N_R   0.422473 0.080192 0.335631 0.246997
O41   O     O_R   0.396439 0.995898 0.270684 -0.370691
O42   O     O_R   0.409798 0.199041 0.330748 -0.372881

loop_
_geom_bond_atom_site_label_1
_geom_bond_atom_site_label_2
_geom_bond_distance
_ccdc_geom_bond_type
C40   H6    1.080827 S    
C2    C45   1.413551 S    
C37   N11   1.433367 S    
C56   H13   1.110591 S    
C41   C43   1.539720 S    
C13   C15   1.400206 A    
C58   H18   1.111107 S    
C55   C56   1.520630 S    
C64   H35   1.110787 S    
N1    C17   1.425382 S    
C63   H31   1.114840 S    
N15   O39   1.299614 A    
C58   H20   1.110827 S    
O26   C65   1.413239 S    
C31   C33   1.413809 A    
N12   O34   1.300748 A    
O5    C3    1.305435 A    
C35   N13   1.438608 S    
C19   C25   1.413625 A    
C50   C52   1.515012 S    
O1    C1    1.287377 A    
C42   H8    1.110434 S    
N16   O41   1.299406 A    
N1    C7    1.363885 A    
C52   N4    1.486778 S    
N11   O32   1.300804 A    
C66   H40   1.110897 S    
N4    C54   1.494499 S    
C25   C38   1.415373 A    
N13   O36   1.300711 A    
C29   C35   1.421755 A    
N5    O17   1.299982 A    
C30   C36   1.419212 A    
C61   H26   1.110258 S    
N9    O28   1.298688 A    
C14   C28   1.404019 A    
O4    Zn1   1.990684 S    
C45   C47   1.529856 S    
N6    O19   1.298758 A    
C57   H16   1.112609 S    
C4    C28   1.458345 S    
C24   C40   1.392874 A    
C60   H24   1.109378 S    
O13   C55   1.410256 S    
N5    O18   1.300364 A    
C50   N3    1.479129 S    
C15   N7    1.444513 S    
C51   O15   1.415650 S    
C49   N4    1.476028 S    
C52   C53   1.541753 S    
C11   N10   1.429710 S    
C60   H25   1.109452 S    
C51   C54   1.537686 S    
C47   O13   1.410437 S    
C6    N2    1.368848 A    
C32   C34   1.415473 A    
C16   N8    1.439199 S    
C50   C54   1.533533 S    
N14   O38   1.301055 A    
C49   C51   1.512519 S    
O2    C2    1.286393 A    
C65   C66   1.520901 S    
C5    C21   1.406133 A    
N15   O40   1.300130 A    
C36   C38   1.404061 A    
N10   O30   1.299666 A    
N3    C53   1.491981 S    
C36   N14   1.439336 S    
C9    H4    1.084096 S    
C50   N6    1.455123 S    
C41   H7    1.110359 S    
C32   C39   1.405391 A    
C55   H11   1.114547 S    
C65   H37   1.114400 S    
C11   C27   1.416281 A    
O14   C57   1.409230 S    
C53   H9    1.109436 S    
C48   O14   1.410186 S    
C38   N12   1.432750 S    
C64   H34   1.110520 S    
C19   C34   1.410589 A    
C42   C45   1.549736 S    
C14   H2    1.084166 S    
C57   C58   1.521360 S    
C35   C37   1.407389 A    
C42   C44   1.539259 S    
C59   C60   1.516830 S    
C5    N1    1.362325 A    
O7    Zn2   2.009732 S    
C10   C18   1.402426 A    
C44   C47   1.525171 S    
C1    C46   1.414002 S    
C51   N3    1.487122 S    
C13   C27   1.406972 A    
O15   C59   1.417266 S    
C7    C25   1.404028 A    
C41   C46   1.549373 S    
C29   C33   1.412498 A    
O6    C4    1.299718 A    
C8    C26   1.403103 A    
C59   H22   1.112944 S    
C49   C53   1.531844 S    
C44   N16   1.458246 S    
C62   H29   1.108876 S    
C24   O26   1.381762 S    
O7    C3    1.312128 A    
N7    O21   1.300795 A    
O3    Zn2   1.990686 S    
O8    C4    1.308827 A    
C54   H10   1.110693 S    
C41   C47   1.548724 S    
C52   O16   1.415751 S    
C56   H14   1.110566 S    
Zn1   N3    2.041237 S    
N14   O37   1.301508 A    
C20   C26   1.406818 A    
O4    C2    1.289793 A    
O1    Zn1   1.995132 S    
N2    C8    1.368966 A    
O16   C61   1.421675 S    
C12   N9    1.447319 S    
C63   C64   1.521081 S    
N13   O35   1.301519 A    
C22   C24   1.409346 A    
C12   C28   1.415280 A    
N8    O24   1.301599 A    
N10   O29   1.300841 A    
N2    C18   1.438583 S    
C29   C32   1.416762 A    
C5    O9    1.348930 S    
C30   C31   1.414271 A    
C20   C33   1.408553 A    
O6    Zn2   1.995343 S    
C62   H28   1.109229 S    
C21   C23   1.412363 A    
C10   C12   1.395353 A    
C55   H12   1.112703 S    
C65   H36   1.114803 S    
O3    C1    1.289218 A    
O8    Zn1   2.009735 S    
C63   H32   1.114063 S    
C7    O12   1.349724 S    
C66   H38   1.110767 S    
C58   H19   1.110550 S    
C39   H5    1.080473 S    
C8    O11   1.349692 S    
C43   C48   1.526371 S    
C30   C34   1.413038 A    
C49   N5    1.454547 S    
C61   C62   1.523299 S    
N16   O42   1.299967 A    
N9    O27   1.301643 A    
C15   C17   1.410622 A    
N11   O31   1.299171 A    
C6    C22   1.403077 A    
C31   C40   1.406504 A    
C16   C18   1.411741 A    
C66   H39   1.110476 S    
C57   H17   1.113896 S    
C44   C46   1.529858 S    
C10   H3    1.082598 S    
C43   C45   1.531217 S    
C14   C16   1.395732 A    
C59   H21   1.115281 S    
C19   C21   1.417610 A    
C61   H27   1.105326 S    
C3    C27   1.476538 S    
C62   H30   1.106164 S    
C20   C22   1.411218 A    
Zn2   N4    2.041238 S    
C64   H33   1.110874 S    
O2    Zn2   1.995130 S    
N6    O20   1.300374 A    
N7    O22   1.301690 A    
C13   H1    1.077799 S    
O5    Zn1   1.995338 S    
C9    C11   1.387897 A    
N12   O33   1.300454 A    
C6    O10   1.349324 S    
C26   C37   1.411520 A    
C56   H15   1.110806 S    
C43   N15   1.459178 S    
C60   H23   1.107525 S    
C46   C48   1.531099 S    
C23   C39   1.394630 A    
O25   C63   1.412527 S    
C42   C48   1.548813 S    
C9    C17   1.393432 A    
N8    O23   1.301386 A    
C23   O25   1.382873 S    
