data_mof_unit_38386.cif
_audit_creation_date              2012-12-10T17:45:31-0500
_audit_creation_method            fapswitch 2.2
_symmetry_space_group_name_H-M    P1
_symmetry_Int_Tables_number       1
_space_group_crystal_system       triclinic
_cell_length_a                    11.546734
_cell_length_b                    10.773528
_cell_length_c                    9.903652
_cell_angle_alpha                 88.683449
_cell_angle_beta                  90.146403
_cell_angle_gamma                 91.857307
_cell_volume                      1231.03069572

loop_
_atom_site_label
_atom_site_type_symbol
_atom_type_description
_atom_site_fract_x
_atom_site_fract_y
_atom_site_fract_z
_atom_type_partial_charge
C1    C     C_R   0.504769 0.259787 0.502513 0.877093
C2    C     C_R   0.469081 0.037101 0.875860 -0.153337
C3    C     C_R   0.409641 0.924043 0.861765 -0.156149
C4    C     C_R   0.401438 0.871056 0.735131 -0.126215
C5    C     C_R   0.452695 0.931513 0.620385 0.060715
C6    C     C_R   0.490120 0.055747 0.630222 0.097227
C7    C     C_R   0.504797 0.125998 0.507835 -0.157302
C8    C     C_R   0.500878 0.068012 0.383333 -0.283081
C9    C     C_R   0.489632 0.941243 0.376469 0.205932
C10   C     C_R   0.470708 0.871303 0.496778 -0.189620
C11   C     C_R   0.345987 0.338493 0.143208 -0.155334
C12   C     C_R   0.281984 0.499634 0.499882 0.875534
C13   C     C_R   0.270835 0.258550 0.074423 -0.214842
C14   C     C_R   0.271243 0.258465 0.934706 -0.179680
C15   C     C_R   0.347070 0.338046 0.862960 -0.146385
C16   C     C_R   0.424301 0.420431 0.929232 0.124781
C17   C     C_R   0.423959 0.420723 0.073869 0.166657
C18   C     C_R   0.573970 0.574168 0.070430 -0.151177
C19   C     C_R   0.573282 0.575518 0.927253 0.006429
C20   C     C_R   0.488486 0.738991 0.498560 0.898511
C21   C     C_R   0.718018 0.500439 0.500134 0.916084
C22   C     C_1   0.161523 0.499641 0.499706 -0.186508
C23   C     C_1   0.059350 0.499788 0.499911 -0.000644
C24   C     C_1   0.940677 0.500076 0.500271 0.001798
C25   C     C_1   0.838500 0.500301 0.500394 -0.185555
C26   C     C_R   0.509441 0.102790 0.761505 -0.151158
H1    H     H_    0.508951 0.120671 0.289033 0.179880
H2    H     H_    0.213233 0.195518 0.881408 0.155755
H3    H     H_    0.343787 0.330974 0.756028 0.207039
H4    H     H_    0.558701 0.187504 0.779495 0.171150
H5    H     H_    0.481701 0.075500 0.975094 0.147541
H6    H     H_    0.373089 0.875354 0.949236 0.137117
H7    H     H_    0.354341 0.782987 0.727818 0.156450
H8    H     H_    0.635127 0.632995 0.124229 0.154864
H9    H     H_    0.340497 0.332484 0.250338 0.204649
H10   H     H_    0.212179 0.195967 0.130077 0.151934
N1    N     N_R   0.498930 0.498800 0.142780 -0.120040
N2    N     N_R   0.498900 0.498720 0.857170 -0.145701
O1    O     O_R   0.500000 0.316780 0.614690 -0.657555
O2    O     O_R   0.499990 0.316750 0.385360 -0.641625
O3    O     O_R   0.334450 0.500030 0.614670 -0.638907
O4    O     O_R   0.334440 0.500000 0.385330 -0.629159
O5    O     O_R   0.500010 0.683250 0.614640 -0.622714
O6    O     O_R   0.500000 0.683220 0.385310 -0.578540
O7    O     O_R   0.665560 0.500000 0.614670 -0.604928
O8    O     O_R   0.665550 0.499970 0.385330 -0.612164
Zn1   Zn    Zn3+2 0.500010 0.500020 0.653130 0.932582
Zn2   Zn    Zn3+2 0.499990 0.499980 0.346870 0.944675
C27   C     C_1   0.652200 0.659371 0.855908 0.241661
N3    N     N_1   0.715777 0.727256 0.799024 -0.207761
N4    N     N_2   0.491870 0.886251 0.247199 -0.273956
H11   H     H_    0.427941 0.918767 0.184026 0.209769
C28   C     C_3   0.604339 0.891878 0.182636 -0.760924
H12   H     H_    0.634849 0.989776 0.165046 0.223853
H13   H     H_    0.598016 0.847026 0.083073 0.230568
H14   H     H_    0.668431 0.842484 0.246199 0.250711

loop_
_geom_bond_atom_site_label_1
_geom_bond_atom_site_label_2
_ccdc_geom_bond_type
C3    H6    S    
C12   O4    A    
C23   C24   S    
C26   H4    S    
C6    C7    A    
C19   N2    A    
C11   C13   A    
C9    C10   A    
C19   C27   S    
C28   H13   S    
C9    N4    S    
C11   H9    S    
C2    C3    A    
O3    Zn1   S    
C7    C8    A    
C2    C26   A    
O4    Zn2   S    
C13   C14   A    
N1    Zn2   S    
C18   H8    S    
N2    Zn1   S    
C6    C26   A    
C13   H10   S    
C5    C10   A    
C20   O6    A    
C18   N1    A    
C15   H3    S    
C21   O7    A    
O7    Zn1   S    
C5    C6    A    
O8    Zn2   S    
C16   C17   A    
C15   C16   A    
C1    O1    A    
N4    H11   S    
C21   O8    A    
C12   C22   S    
C4    C5    A    
C20   O5    A    
C18   C19   A    
C24   C25   T    
C12   O3    A    
O1    Zn1   S    
C27   N3    T    
C28   H14   S    
C10   C20   S    
O2    Zn2   S    
C8    H1    S    
C21   C25   S    
C4    H7    S    
C2    H5    S    
C17   N1    A    
C14   C15   A    
C1    O2    A    
C14   H2    S    
C1    C7    S    
O5    Zn1   S    
C22   C23   T    
C11   C17   A    
C3    C4    A    
O6    Zn2   S    
C28   H12   S    
C16   N2    A    
C8    C9    A    
N4    C28   S    
