data_mof_unit_19372.cif
_audit_creation_date              2013-03-05T16:10:27-0500
_audit_creation_method            fapswitch 2.2
_symmetry_space_group_name_H-M    P1
_symmetry_Int_Tables_number       1
_space_group_crystal_system       triclinic
_cell_length_a                    10.661512
_cell_length_b                    9.835207
_cell_length_c                    14.993834
_cell_angle_alpha                 89.795528
_cell_angle_beta                  90.303505
_cell_angle_gamma                 89.789454
_cell_volume                      1572.18331147

loop_
_atom_site_label
_atom_site_type_symbol
_atom_site_description
_atom_site_fract_x
_atom_site_fract_y
_atom_site_fract_z
_atom_type_partial_charge
O1    O     O_R   0.316770 0.614620 0.499990 -0.600276
O2    O     O_R   0.683230 0.385380 0.500010 -0.600334
O3    O     O_R   0.683230 0.614620 0.500010 -0.602484
O4    O     O_R   0.316770 0.385380 0.499990 -0.602477
C1    C     C_R   0.260299 0.500311 0.499538 1.025144
C2    C     C_R   0.739701 0.499690 0.500465 1.025313
O5    O     O_R   0.499980 0.614680 0.367850 -0.640995
O6    O     O_R   0.500020 0.385320 0.632150 -0.640996
O7    O     O_R   0.500020 0.614680 0.632150 -0.611086
O8    O     O_R   0.499980 0.385320 0.367850 -0.611088
C3    C     C_R   0.500685 0.500233 0.326631 0.966400
C4    C     C_R   0.499307 0.499767 0.673369 0.966261
Zn1   Zn    Zn3+2 0.500000 0.653120 0.500000 1.040995
Zn2   Zn    Zn3+2 0.500000 0.346880 0.500000 1.040969
C5    C     C_R   0.533584 0.382180 0.815174 -0.151485
C6    C     C_R   0.466389 0.617815 0.184826 -0.151502
C7    C     C_R   0.497292 0.499260 0.769135 -0.051155
C8    C     C_R   0.502687 0.500738 0.230864 -0.051125
C9    C     C_R   0.459495 0.616187 0.814198 -0.098166
C10   C     C_R   0.540473 0.383807 0.185801 -0.098127
C11   C     C_R   0.455878 0.617321 0.906834 -0.015229
C12   C     C_R   0.544083 0.382670 0.093165 -0.015257
C13   C     C_R   0.497762 0.499892 0.953583 0.038393
C14   C     C_R   0.502199 0.500100 0.046416 0.038388
C15   C     C_R   0.535655 0.382125 0.907328 0.069262
C16   C     C_R   0.464308 0.617868 0.092671 0.069266
C17   C     C_R   0.415235 0.733648 0.953889 0.308813
C18   C     C_R   0.584724 0.266342 0.046110 0.308817
C19   C     C_R   0.422239 0.733244 0.046699 -0.180888
C20   C     C_R   0.577721 0.266747 0.953300 -0.180889
H1    H     H_    0.563500 0.292224 0.779260 0.163655
H2    H     H_    0.436479 0.707773 0.220740 0.163652
H3    H     H_    0.434071 0.706020 0.776333 0.210312
H4    H     H_    0.565898 0.293974 0.223666 0.210312
H5    H     H_    0.391214 0.822095 0.083227 0.201507
H6    H     H_    0.608746 0.177896 0.916773 0.201502
C21   C     C_R   0.064230 0.425698 0.433662 0.207305
C22   C     C_R   0.935772 0.574302 0.566339 0.207232
C23   C     C_R   0.934579 0.424062 0.435215 0.206737
C24   C     C_R   0.065421 0.575942 0.564782 0.206804
C25   C     C_R   0.872115 0.498685 0.501152 -0.356355
C26   C     C_R   0.127886 0.501318 0.498848 -0.356346
C27   C     C_R   0.573462 0.071357 0.558714 -0.017010
C28   C     C_R   0.426539 0.928643 0.441286 -0.016932
C29   C     C_R   0.426563 0.072586 0.441271 -0.011578
C30   C     C_R   0.573438 0.927413 0.558728 -0.011583
H7    H     H_    0.632180 0.125460 0.605631 0.145683
H8    H     H_    0.367821 0.874540 0.394368 0.145683
H9    H     H_    0.367913 0.127673 0.394324 0.176456
H10   H     H_    0.632090 0.872327 0.605674 0.176421
N1    N     N_R   0.500000 0.857200 0.500000 -0.101588
N2    N     N_R   0.500000 0.142800 0.500000 -0.101602
N3    N     N_R   0.363228 0.850722 0.909225 0.205522
O9    O     O_R   0.272191 0.836049 0.851941 -0.299226
O10   O     O_R   0.389229 0.972145 0.937927 -0.346169
N4    N     N_R   0.636728 0.149267 0.090774 0.205517
O11   O     O_R   0.727770 0.163937 0.148054 -0.299252
O12   O     O_R   0.610718 0.027845 0.062075 -0.346175
N5    N     N_R   0.130679 0.357882 0.363327 0.236064
O13   O     O_R   0.111351 0.229692 0.347455 -0.308512
O14   O     O_R   0.208503 0.425175 0.313466 -0.405544
N6    N     N_R   0.869327 0.642141 0.636667 0.236008
O15   O     O_R   0.888808 0.770299 0.652611 -0.308436
O16   O     O_R   0.791460 0.574873 0.686514 -0.405537
N7    N     N_R   0.866190 0.356120 0.365947 0.252667
O17   O     O_R   0.810195 0.426768 0.303870 -0.372744
O18   O     O_R   0.848357 0.225498 0.370491 -0.284456
N8    N     N_R   0.133810 0.643893 0.634044 0.252687
O19   O     O_R   0.189548 0.573258 0.696248 -0.372490
O20   O     O_R   0.151938 0.774463 0.629363 -0.284647

loop_
_geom_bond_atom_site_label_1
_geom_bond_atom_site_label_2
_geom_bond_distance
_ccdc_geom_bond_type
C4    C7    1.436173 S    
O1    Zn1   1.991234 S    
C22   C24   1.382732 A    
C13   C14   1.392480 A    
C17   N3    1.437926 S    
C3    C8    1.436174 S    
C5    H1    1.085175 S    
N6    O15   1.301001 A    
C20   H6    1.084541 S    
C17   C19   1.393173 A    
C19   H5    1.084541 S    
N6    O16   1.300992 A    
O3    Zn1   1.988500 S    
C29   H9    1.081736 S    
O6    C4    1.286068 A    
O3    C2    1.278731 A    
C10   H4    1.081410 S    
C18   C20   1.393169 A    
C18   N4    1.437926 S    
N5    O13   1.300848 A    
C21   C23   1.382748 A    
O4    Zn2   1.988502 S    
C12   C18   1.414168 A    
N3    O9    1.301414 A    
N4    O11   1.301415 A    
O5    C3    1.286071 A    
C23   N7    1.434343 S    
C21   N5    1.438193 S    
C22   C25   1.403887 A    
O1    C1    1.277292 A    
C30   N1    1.366119 A    
C28   N1    1.366156 A    
C24   C26   1.402884 A    
C9    C11   1.389790 A    
C14   C16   1.411041 A    
C8    C10   1.395146 A    
N3    O10   1.301167 A    
C11   C13   1.418365 A    
C6    C16   1.381817 A    
O2    Zn2   1.991232 S    
C27   C30   1.415719 A    
C12   C14   1.418365 A    
C27   N2    1.366155 A    
N5    O14   1.300945 A    
C5    C15   1.381811 A    
O7    C4    1.286268 A    
C10   C12   1.389785 A    
C24   N8    1.434322 S    
O8    Zn2   2.015854 S    
C28   H8    1.081842 S    
O5    Zn1   2.018505 S    
C13   C15   1.411040 A    
C1    C26   1.411701 S    
C28   C29   1.415718 A    
C23   C25   1.402906 A    
C16   C19   1.396909 A    
C6    C8    1.392979 A    
N7    O17   1.300760 A    
O8    C3    1.286267 A    
C21   C26   1.403877 A    
C5    C7    1.392978 A    
N8    O20   1.301048 A    
C30   H10   1.081741 S    
C6    H2    1.085174 S    
C15   C20   1.396909 A    
O7    Zn1   2.015852 S    
N7    O18   1.300981 A    
O6    Zn2   2.018503 S    
C29   N2    1.366121 A    
C7    C9    1.395147 A    
C9    H3    1.081410 S    
Zn1   N1    2.007169 S    
C27   H7    1.081842 S    
C11   C17   1.414169 A    
N8    O19   1.300815 A    
Zn2   N2    2.007169 S    
O2    C2    1.277297 A    
N4    O12   1.301168 A    
O4    C1    1.278734 A    
C22   N6    1.438205 S    
C2    C25   1.411705 S    
