data_mof_unit_67180.cif
_audit_creation_date              2013-03-05T15:59:00-0500
_audit_creation_method            fapswitch 2.2
_symmetry_space_group_name_H-M    P1
_symmetry_Int_Tables_number       1
_space_group_crystal_system       triclinic
_cell_length_a                    8.227208
_cell_length_b                    12.804416
_cell_length_c                    14.992777
_cell_angle_alpha                 97.48072
_cell_angle_beta                  97.959604
_cell_angle_gamma                 98.676821
_cell_volume                      1527.76685959

loop_
_atom_site_label
_atom_site_type_symbol
_atom_site_description
_atom_site_fract_x
_atom_site_fract_y
_atom_site_fract_z
_atom_type_partial_charge
P1    P     P_3+3 0.998730 0.403530 0.291970 0.496869
O1    O     O_2   0.827880 0.435260 0.277750 -0.399128
O2    O     O_3   0.100280 0.438960 0.391170 -0.349248
O3    O     O_3   0.625580 0.634130 0.333250 -0.350879
O4    O     O_2   0.704203 0.562758 0.175982 -0.398835
O5    O     O_3   0.978287 0.263859 0.271042 -0.549709
O6    O     O_3   0.653909 0.760033 0.198994 -0.521649
H1    H     H_    0.651431 0.891100 0.292185 0.137969
C1    C     C_3   0.481269 0.887225 0.168320 -0.865721
H2    H     H_    0.430630 0.955122 0.201229 0.267673
H3    H     H_    0.570760 0.916617 0.124560 0.277975
P2    P     P_3+3 0.687380 0.751030 0.571310 0.446846
P3    P     P_3+3 0.102021 0.825344 0.374197 0.501205
O7    O     O_2   0.857130 0.766340 0.543890 -0.357331
O8    O     O_3   0.056550 0.691050 0.379010 -0.384002
O9    O     O_2   0.986423 0.874353 0.434310 -0.343815
O10   O     O_3   0.737160 0.785582 0.689857 -0.577844
O11   O     O_3   0.027267 0.843849 0.262486 -0.484835
C2    C     C_3   0.055869 0.758150 0.200744 0.311725
H4    H     H_    0.999360 0.680404 0.217469 0.098097
H5    H     H_    0.190821 0.759140 0.203340 -0.015317
C3    C     C_3   0.974770 0.761314 0.102782 0.126708
H6    H     H_    0.998400 0.691953 0.057410 0.025968
H7    H     H_    0.838530 0.752849 0.096516 0.150712
C4    C     C_3   0.313305 0.780739 0.666540 0.396753
H8    H     H_    0.447162 0.798617 0.695475 0.105904
H9    H     H_    0.294148 0.727732 0.599814 0.095314
C5    C     C_3   0.255487 0.885573 0.651401 -0.895928
H10   H     H_    0.229941 0.928187 0.715940 0.291841
H11   H     H_    0.351982 0.937932 0.625126 0.213142
H12   H     H_    0.139750 0.869886 0.601161 0.278388
Ba1   Ba    Ba6+2 0.843750 0.550210 0.455600 1.579757
C6    C     C_3   0.824209 0.207147 0.222773 0.484876
H13   H     H_    0.720084 0.251293 0.228583 0.077242
C7    C     C_3   0.786596 0.102040 0.260626 -0.320167
H14   H     H_    0.669457 0.094239 0.288611 0.159750
H15   H     H_    0.778880 0.031815 0.208220 0.175984
C8    C     C_3   0.773136 0.696531 0.728794 0.353543
H16   H     H_    0.878812 0.667137 0.701495 0.118511
H17   H     H_    0.663120 0.631637 0.715415 0.130192
C9    C     C_3   0.820345 0.730454 0.831212 -0.842739
H18   H     H_    0.935568 0.791452 0.845982 0.314727
H19   H     H_    0.842566 0.661274 0.865553 0.195063
H20   H     H_    0.717992 0.764771 0.858810 0.263356
P4    P     P_3+3 0.190990 0.596560 0.708040 0.469064
O12   O     O_2   0.361830 0.564780 0.722310 -0.395912
O13   O     O_3   0.089430 0.561130 0.608830 -0.389736
O14   O     O_3   0.564130 0.365960 0.666760 -0.384465
O15   O     O_3   0.227733 0.736485 0.730919 -0.552102
P5    P     P_3+3 0.090187 0.170742 0.620888 0.504580
O16   O     O_3   0.601940 0.368240 0.453770 -0.380524
O17   O     O_3   0.133170 0.309040 0.621000 -0.364717
O18   O     O_2   0.210677 0.119292 0.565435 -0.354431
O19   O     O_3   0.149225 0.143586 0.730565 -0.518569
Ba2   Ba    Ba6+2 0.346090 0.449880 0.544410 1.593267
P6    P     P_3+3 0.584733 0.630265 0.217024 0.461283
C10   C     C_3   0.563275 0.831295 0.240842 0.336291
H21   H     H_    0.466138 0.794102 0.277092 0.048063
H22   H     H_    0.380968 0.829167 0.123460 0.281316
O20   O     O_3   0.587780 0.631850 0.546230 -0.411470
C11   C     C_3   0.404048 0.274728 0.265585 0.255460
H23   H     H_    0.304555 0.307152 0.297498 0.135009
H24   H     H_    0.510680 0.340686 0.270266 0.122309
C12   C     C_3   0.335929 0.227718 0.166189 -0.321390
H25   H     H_    0.198083 0.211292 0.155362 0.218039
H26   H     H_    0.380752 0.151414 0.146898 0.256417
P7    P     P_3+3 0.506935 0.232634 0.425593 0.459669
O21   O     O_2   0.332590 0.233690 0.456160 -0.313233
O22   O     O_3   0.456063 0.192013 0.308408 -0.607513
C13   C     C_3   0.124190 0.226666 0.795630 0.304079
H27   H     H_    0.240793 0.285751 0.815782 0.169610
H28   H     H_    0.022685 0.269253 0.771220 -0.015977
C14   C     C_3   0.079909 0.179999 0.879076 -0.137091
H29   H     H_    0.082830 0.245318 0.936045 0.140727
H30   H     H_    0.953013 0.132275 0.862587 0.152239
P8    P     P_3+3 0.607568 0.376319 0.784551 0.444992
C15   C     C_3   0.614596 0.175406 0.751641 0.452972
H31   H     H_    0.745886 0.204695 0.745453 -0.006758
O23   O     O_2   0.484082 0.441681 0.824766 -0.391096
O24   O     O_3   0.553057 0.248019 0.811574 -0.497519
H32   H     H_    0.536308 0.161249 0.683112 0.121235
H33   H     H_    0.672355 0.082290 0.859388 0.291421
C16   C     C_3   0.608752 0.069537 0.787647 -0.903866
H34   H     H_    0.669815 0.014500 0.745169 0.219030
H35   H     H_    0.478133 0.032169 0.785550 0.282381
C17   C     C_R   0.826425 0.438550 0.829912 0.168770
C18   C     C_R   0.895217 0.450076 0.923073 -0.059949
C19   C     C_R   0.035510 0.466959 0.111194 -0.051959
C20   C     C_R   0.871386 0.417442 0.077393 -0.063705
C21   C     C_R   0.803133 0.408800 0.986004 -0.122571
C22   C     C_R   0.107367 0.472007 0.204977 0.214386
H36   H     H_    0.792491 0.382401 0.120570 0.185675
H37   H     H_    0.677369 0.367035 0.964915 0.217244
C23   C     C_R   0.270088 0.527439 0.233210 -0.485057
C24   C     C_R   0.084562 0.535096 0.796573 0.253408
C25   C     C_R   0.153883 0.550258 0.891448 -0.031405
C26   C     C_R   0.060086 0.504296 0.954206 0.016232
C27   C     C_R   0.313269 0.609627 0.926043 -0.022514
C28   C     C_R   0.382309 0.617904 0.017845 -0.156590
C29   C     C_R   0.293222 0.570055 0.080131 -0.011251
C30   C     C_R   0.129692 0.513983 0.048716 0.038129
C31   C     C_R   0.363876 0.574412 0.172496 0.202684
C32   C     C_R   0.923958 0.476782 0.767923 -0.525429
H38   H     H_    0.507051 0.662504 0.039079 0.166134
H39   H     H_    0.387923 0.649777 0.882729 0.156610
H40   H     H_    0.327130 0.530519 0.303191 0.174138
H41   H     H_    0.870573 0.465791 0.696519 0.177745
C33   C     C_R   0.771612 0.179582 0.535020 -0.425802
C34   C     C_R   0.421203 0.808459 0.461030 -0.496312
C35   C     C_R   0.389489 0.984415 0.428462 -0.207219
C36   C     C_R   0.323270 0.876782 0.422962 0.205478
C37   C     C_R   0.579752 0.847727 0.512275 0.265728
C38   C     C_R   0.646023 0.959243 0.521301 -0.045783
C39   C     C_R   0.549168 0.027766 0.477680 -0.069477
C40   C     C_R   0.613803 0.138501 0.485665 0.239264
C41   C     C_R   0.870766 0.113191 0.573865 0.234498
C42   C     C_R   0.806816 0.004470 0.570172 -0.206371
H42   H     H_    0.313469 0.033791 0.395242 0.210741
H43   H     H_    0.885663 0.956558 0.603826 0.187050
H44   H     H_    0.822059 0.263391 0.538419 0.172868
H45   H     H_    0.370128 0.724351 0.454244 0.170222
I1    I     I_    0.837150 0.162014 0.080440 -0.404958
I2    I     I_    0.977301 0.083057 0.363736 -0.233454
I3    I     I_    0.417805 0.329208 0.074827 -0.428502
S1    S     S_3+6 0.048985 0.878671 0.058603 -0.013869
O25   O     O_2   0.169762 0.851847 0.996264 -0.265889
O26   O     O_2   0.904761 0.913733 0.004465 -0.268373
O27   O     O_3   0.143620 0.978769 0.141824 -0.500518
H46   H     H_    0.052132 0.007565 0.167424 0.385798
I4    I     I_    0.245290 0.074722 0.919333 -0.137872

loop_
_geom_bond_atom_site_label_1
_geom_bond_atom_site_label_2
_geom_bond_distance
_ccdc_geom_bond_type
O14   Ba2   2.814428 S    
C14   H30   1.105064 S    
C14   H29   1.109902 S    
O14   P8    1.736098 S    
O4    P6    1.541835 D    
C24   C25   1.433980 A    
P8    O23   1.546261 D    
O27   H46   0.988280 S    
C35   H42   1.074227 S    
C19   C30   1.430907 A    
O8    Ba1   2.789129 S    
C15   H31   1.109300 S    
C4    C5    1.523731 S    
P5    O19   1.743389 S    
C27   H39   1.079526 S    
P3    O11   1.761125 S    
C33   C40   1.391555 A    
C5    H10   1.109792 S    
C7    H15   1.102238 S    
O11   C2    1.410725 S    
C34   C36   1.398431 A    
C8    H16   1.105549 S    
C15   C16   1.519673 S    
O3    P6    1.721105 S    
C41   C42   1.403115 A    
O1    Ba1   2.849059 S    
P1    O1    1.515965 D    
C9    H18   1.109559 S    
C11   H24   1.109862 S    
C1    C10   1.515145 S    
C33   H44   1.082576 S    
C35   C36   1.390832 A    
P7    C40   1.849351 S    
C6    C7    1.533285 S    
O2    Ba2   2.816396 S    
C28   C29   1.409841 A    
C25   C27   1.405209 A    
O12   Ba2   2.849632 S    
S1    O27   1.679043 S    
P5    O17   1.752428 S    
C13   H27   1.106879 S    
C15   H32   1.111912 S    
C1    H2    1.107855 S    
C35   C39   1.408303 A    
Ba1   Ba2   4.533788 S    
P5    C41   1.846552 S    
O17   Ba2   2.789708 S    
C28   H38   1.079848 S    
P1    C22   1.911260 S    
Ba2   O20   2.820305 S    
P2    Ba1   3.425101 S    
C9    H19   1.106672 S    
C11   H23   1.109325 S    
O6    P6    1.741305 S    
C17   C32   1.397771 A    
C37   C38   1.431363 A    
C24   C32   1.396263 A    
Ba2   O21   2.887674 S    
P4    O13   1.575481 S    
P5    O18   1.546149 D    
P7    O21   1.566499 D    
C2    C3    1.535002 S    
C8    C9    1.519090 S    
C34   C37   1.403054 A    
C17   C18   1.412519 A    
C3    S1    1.778747 S    
C4    H8    1.104158 S    
P4    O12   1.516196 D    
P1    Ba1   3.400122 S    
P1    O5    1.753186 S    
P1    O2    1.575327 S    
C7    H14   1.099381 S    
C12   H26   1.113049 S    
P2    O10   1.749694 S    
C11   C12   1.526603 S    
Ba1   O16   2.820847 S    
H1    C10   1.108742 S    
C16   H34   1.110474 S    
O19   C13   1.406141 S    
C19   C22   1.437108 A    
P4    O15   1.751257 S    
C25   C26   1.426689 A    
C13   C14   1.519938 S    
C29   C31   1.416290 A    
C6    H13   1.102238 S    
O16   P7    1.764197 S    
C20   H36   1.070434 S    
C1    H3    1.108443 S    
C23   C31   1.408112 A    
O3    Ba1   2.815074 S    
C38   C42   1.418509 A    
C16   H35   1.102884 S    
P2    O7    1.501740 D    
H33   C16   1.109056 S    
P3    O8    1.716892 S    
S1    O25   1.501821 D    
Ba1   O13   2.815651 S    
C3    H7    1.099302 S    
P3    O9    1.542973 D    
Ba1   O20   2.908753 S    
P4    C24   1.879877 S    
P8    C17   1.851062 S    
P2    C37   1.870717 S    
C21   H37   1.074686 S    
O13   Ba2   2.921470 S    
C38   C39   1.431273 A    
C15   O24   1.406678 S    
C11   O22   1.398139 S    
C14   I4    2.137875 S    
C23   H40   1.081622 S    
C2    H5    1.103654 S    
C5    H12   1.103916 S    
P8    O24   1.750826 S    
O7    Ba1   2.887353 S    
C13   H28   1.110594 S    
C39   C40   1.420640 A    
C4    H9    1.110659 S    
O5    C6    1.410422 S    
C12   H25   1.106753 S    
C33   C41   1.390640 A    
C2    H4    1.107996 S    
C42   H43   1.077862 S    
P6    C31   1.845654 S    
C5    H11   1.108925 S    
P3    C36   1.850943 S    
C12   I3    2.115118 S    
C22   C23   1.397608 A    
C8    H17   1.108745 S    
C34   H45   1.081595 S    
C10   H21   1.110719 S    
C6    I1    2.158582 S    
C7    I2    2.109912 S    
C29   C30   1.411522 A    
C9    H20   1.110942 S    
O16   Ba2   2.908000 S    
O10   C8    1.398510 S    
O2    Ba1   2.920624 S    
C4    O15   1.399514 S    
P2    O20   1.590466 S    
C19   C20   1.396632 A    
P4    Ba2   3.400674 S    
C27   C28   1.398427 A    
C18   C21   1.396591 A    
S1    O26   1.502392 D    
C3    H6    1.104862 S    
C32   H41   1.081969 S    
P7    O22   1.739323 S    
C20   C21   1.390551 A    
C1    H22   1.103160 S    
O6    C10   1.402873 S    
C26   C30   1.434993 A    
C18   C26   1.412747 A    
