data_mof_unit_15555.cif
_audit_creation_date              2012-12-10T17:46:57-0500
_audit_creation_method            fapswitch 2.2
_symmetry_space_group_name_H-M    P1
_symmetry_Int_Tables_number       1
_space_group_crystal_system       triclinic
_cell_length_a                    9.987291
_cell_length_b                    10.675127
_cell_length_c                    13.556747
_cell_angle_alpha                 92.575991
_cell_angle_beta                  81.876438
_cell_angle_gamma                 87.452266
_cell_volume                      1427.52430083

loop_
_atom_site_label
_atom_site_type_symbol
_atom_type_description
_atom_site_fract_x
_atom_site_fract_y
_atom_site_fract_z
_atom_type_partial_charge
C1    C     C_R   0.497819 0.738858 0.489660 0.928860
C2    C     C_R   0.609653 0.926821 0.437224 -0.247710
C3    C     C_R   0.615237 0.055731 0.447067 0.192661
C4    C     C_R   0.474778 0.500436 0.685752 0.977939
C5    C     C_R   0.506222 0.125246 0.505314 -0.101497
C6    C     C_R   0.822861 0.625859 0.654260 -0.083727
C7    C     C_R   0.861551 0.649251 0.746773 -0.208662
C8    C     C_R   0.996441 0.628120 0.759504 0.224242
C9    C     C_R   0.092437 0.607611 0.672519 0.371995
C10   C     C_R   0.052519 0.555044 0.581856 -0.012958
C11   C     C_R   0.909364 0.557648 0.578541 0.054061
C12   C     C_1   0.455657 0.488900 0.789413 -0.125396
C13   C     C_R   0.946477 0.452682 0.420258 0.186620
C14   C     C_R   0.089671 0.445729 0.423029 0.198580
C15   C     C_R   0.502055 0.259917 0.503515 0.931459
C16   C     C_R   0.525370 0.500375 0.314377 0.872404
C17   C     C_1   0.545273 0.504521 0.210219 -0.187104
C18   C     C_2   0.550030 0.508857 0.018576 -0.256146
C19   C     C_2   0.446498 0.460450 0.979735 0.269225
C20   C     C_1   0.445915 0.475316 0.876519 0.008109
C21   C     C_1   0.554168 0.507550 0.122181 -0.004340
C22   C     C_3   0.206792 0.427720 0.029365 -0.769696
C23   C     C_R   0.234717 0.907167 0.504173 0.240466
C24   C     C_3   0.949154 0.627373 0.943386 -0.805100
C25   C     C_3   0.198538 0.246434 0.353260 -0.761613
C26   C     C_3   0.230229 0.850056 0.329443 -0.815192
C27   C     C_3   0.849551 0.104888 0.438707 -0.667490
C28   C     C_3   0.901647 0.517866 0.260372 -0.754556
C29   C     C_R   0.129622 0.967567 0.572824 0.325450
C30   C     C_R   0.157262 0.069898 0.632495 -0.236311
C31   C     C_R   0.284273 0.120696 0.618063 0.360623
C32   C     C_R   0.387512 0.065708 0.544200 -0.084185
C33   C     C_R   0.369554 0.946250 0.504004 -0.025683
C34   C     C_R   0.489435 0.870993 0.470843 -0.113952
Cl1   Cl    Cl    0.219935 0.714915 0.674859 -0.608166
Cl2   Cl    Cl    0.966418 0.909516 0.594905 -0.676362
Cl3   Cl    Cl    0.316357 0.234992 0.707679 -0.634712
H1    H     H_    0.725646 0.664296 0.643171 0.217483
H2    H     H_    0.139110 0.626445 0.857873 0.255525
H3    H     H_    0.999958 0.644135 0.010117 0.238782
H4    H     H_    0.921291 0.527800 0.939739 0.241136
H5    H     H_    0.856996 0.691076 0.953404 0.247731
H6    H     H_    0.169563 0.405530 0.273342 0.213963
H7    H     H_    0.168165 0.218624 0.431031 0.243738
H8    H     H_    0.307132 0.218119 0.330330 0.246761
H9    H     H_    0.138895 0.194996 0.302916 0.200088
H10   H     H_    0.113043 0.773618 0.448240 0.269154
H11   H     H_    0.208041 0.770858 0.279291 0.243189
H12   H     H_    0.787099 0.691237 0.805982 0.165957
H13   H     H_    0.338131 0.871254 0.308891 0.246881
H14   H     H_    0.164377 0.933437 0.318341 0.234628
H15   H     H_    0.742821 0.090449 0.319362 0.211060
H16   H     H_    0.895360 0.007962 0.425053 0.251799
H17   H     H_    0.922878 0.169793 0.403641 0.207606
H18   H     H_    0.829247 0.130757 0.519970 0.285319
H19   H     H_    0.937192 0.334505 0.296462 0.211261
H20   H     H_    0.007737 0.538650 0.232515 0.197380
H21   H     H_    0.848509 0.605468 0.296321 0.257804
H22   H     H_    0.851722 0.488426 0.195551 0.242175
H23   H     H_    0.627420 0.558094 0.973133 0.140067
H24   H     H_    0.698380 0.870514 0.402678 0.170345
H25   H     H_    0.079340 0.110642 0.690163 0.215376
H26   H     H_    0.362063 0.365494 0.105462 0.234202
H27   H     H_    0.138115 0.364046 0.072179 0.236092
H28   H     H_    0.186985 0.422686 0.950735 0.275527
H29   H     H_    0.184632 0.524894 0.062155 0.223233
N1    N     N_R   0.857120 0.501200 0.500900 -0.124658
N2    N     N_R   0.142720 0.501280 0.500940 -0.115193
N3    N     N_2   0.345971 0.389237 0.035065 -0.273660
N4    N     N_2   0.039730 0.654438 0.854413 -0.254227
N5    N     N_2   0.178955 0.380522 0.344571 -0.261039
N6    N     N_2   0.204145 0.815094 0.431962 -0.252489
N7    N     N_2   0.726442 0.115373 0.394666 -0.305836
N8    N     N_2   0.896438 0.418615 0.330310 -0.254251
O1    O     O_R   0.385310 0.683220 0.500000 -0.546448
O2    O     O_R   0.614640 0.683250 0.500010 -0.642455
O3    O     O_R   0.368830 0.499960 0.640340 -0.542509
O4    O     O_R   0.598160 0.499980 0.640350 -0.652459
O5    O     O_R   0.385360 0.316750 0.499990 -0.595176
O6    O     O_R   0.614690 0.316780 0.500000 -0.578331
O7    O     O_R   0.401840 0.500020 0.359650 -0.590169
O8    O     O_R   0.631170 0.500040 0.359660 -0.588651
Zn1   Zn    Zn3+2 0.346870 0.499980 0.499990 1.020650
Zn2   Zn    Zn3+2 0.653130 0.500020 0.500010 0.970505

loop_
_geom_bond_atom_site_label_1
_geom_bond_atom_site_label_2
_ccdc_geom_bond_type
C18   C21   S    
C24   H5    S    
C14   N5    S    
C19   C20   S    
C15   O6    A    
O6    Zn2   S    
C28   N8    S    
O2    Zn2   S    
C27   H17   S    
C24   N4    S    
C7    C8    A    
C28   H20   S    
C29   Cl2   S    
C23   C29   A    
C26   H13   S    
C30   C31   A    
C27   H18   S    
O3    Zn1   S    
C26   N6    S    
C18   C19   D    
C22   H29   S    
O8    Zn2   S    
C15   O5    A    
H26   N3    S    
C8    C9    A    
C23   C33   A    
C6    H1    S    
C25   N5    S    
C4    C12   S    
C9    C10   A    
C22   N3    S    
C2    H24   S    
C26   H11   S    
C5    C32   A    
C2    C34   A    
N1    Zn2   S    
C13   C14   A    
C24   H4    S    
C1    O2    A    
C25   H7    S    
O7    Zn1   S    
C11   N1    A    
C1    C34   S    
H19   N8    S    
C1    O1    A    
C7    H12   S    
H15   N7    S    
C6    C11   A    
C16   C17   S    
C17   C21   T    
C31   Cl3   S    
C22   H28   S    
C4    O4    A    
C29   C30   A    
C31   C32   A    
C12   C20   T    
C16   O8    A    
C33   C34   A    
C18   H23   S    
C10   N2    A    
C30   H25   S    
C19   N3    S    
C25   H8    S    
C13   N1    A    
C28   H22   S    
H6    N5    S    
N2    Zn1   S    
C23   N6    S    
C3    C5    A    
C27   H16   S    
C6    C7    A    
C28   H21   S    
C8    N4    S    
C32   C33   A    
C2    C3    A    
C4    O3    A    
C26   H14   S    
O5    Zn1   S    
O1    Zn1   S    
C16   O7    A    
C24   H3    S    
H2    N4    S    
C3    N7    S    
H10   N6    S    
C5    C15   S    
C10   C11   A    
C22   H27   S    
O4    Zn2   S    
C13   N8    S    
C9    Cl1   S    
C14   N2    A    
C27   N7    S    
C25   H9    S    
