data_mof_unit_52323.cif
_audit_creation_date              2012-12-10T20:41:54-0500
_audit_creation_method            fapswitch 2.2
_symmetry_space_group_name_H-M    P1
_symmetry_Int_Tables_number       1
_space_group_crystal_system       triclinic
_cell_length_a                    15.034179
_cell_length_b                    15.236913
_cell_length_c                    9.854086
_cell_angle_alpha                 89.91648
_cell_angle_beta                  90.623736
_cell_angle_gamma                 90.051811
_cell_volume                      2257.18255563

loop_
_atom_site_label
_atom_site_type_symbol
_atom_type_description
_atom_site_fract_x
_atom_site_fract_y
_atom_site_fract_z
_atom_type_partial_charge
C1    C     C_R   0.379071 0.880795 0.499556 0.881928
C2    C     C_R   0.929254 0.466681 0.070203 0.216563
C3    C     C_R   0.573580 0.023952 0.073180 -0.120564
C4    C     C_R   0.073582 0.523946 0.073180 -0.120557
C5    C     C_R   0.573504 0.024044 0.929191 -0.126345
C6    C     C_R   0.073506 0.524038 0.929191 -0.126348
C7    C     C_R   0.429371 0.966241 0.927680 0.186918
C8    C     C_R   0.929368 0.466247 0.927680 0.186910
C9    C     C_3   0.335205 0.996496 0.920231 -0.479228
C10   C     C_3   0.835205 0.496510 0.920232 -0.479220
C11   C     C_3   0.335437 0.997881 0.074265 -0.499031
C12   C     C_R   0.380187 0.120507 0.499358 0.884907
C13   C     C_3   0.835437 0.497893 0.074266 -0.499038
C14   C     C_R   0.617940 0.122029 0.500279 0.876962
C15   C     C_R   0.615963 0.876129 0.500625 0.872802
C16   C     C_R   0.117940 0.622029 0.500279 0.876965
C17   C     C_R   0.115962 0.376129 0.500625 0.872800
C18   C     C_R   0.270247 0.205531 0.619772 0.097561
C19   C     C_R   0.270105 0.794451 0.620970 0.040870
C20   C     C_R   0.770251 0.705535 0.619771 0.097560
C21   C     C_R   0.770098 0.294457 0.620969 0.040878
C22   C     C_R   0.307261 0.179812 0.497792 -0.108899
C23   C     C_R   0.879070 0.380796 0.499556 0.881924
C24   C     C_R   0.305115 0.822980 0.498628 -0.071209
C25   C     C_R   0.807259 0.679810 0.497790 -0.108897
C26   C     C_R   0.805112 0.322982 0.498627 -0.071213
C27   C     C_R   0.265423 0.203018 0.375196 -0.212288
C28   C     C_R   0.264000 0.799080 0.375788 -0.221123
C29   C     C_R   0.765414 0.703009 0.375198 -0.212287
C30   C     C_R   0.764000 0.299079 0.375787 -0.221125
C31   C     C_R   0.696720 0.763255 0.376656 -0.181770
C32   C     C_R   0.698318 0.235629 0.376504 -0.196799
C33   C     C_R   0.196728 0.263263 0.376653 -0.181770
C34   C     C_R   0.880186 0.620506 0.499357 0.884907
C35   C     C_R   0.198318 0.735629 0.376506 -0.196800
C36   C     C_R   0.669116 0.798411 0.501054 -0.164400
C37   C     C_R   0.673757 0.197287 0.500162 -0.133809
C38   C     C_R   0.169116 0.298412 0.501052 -0.164403
C39   C     C_R   0.173759 0.697285 0.500163 -0.133806
C40   C     C_R   0.697443 0.758984 0.622578 0.024338
C41   C     C_R   0.702996 0.233963 0.622121 -0.025850
C42   C     C_R   0.197438 0.258979 0.622575 0.024354
C43   C     C_R   0.203002 0.733957 0.622123 -0.025844
C44   C     C_3   0.725569 0.797715 0.757139 0.301194
C45   C     C_3   0.311912 0.247344 0.741859 -0.489315
C46   C     C_3   0.739574 0.191508 0.749663 0.335852
C47   C     C_3   0.225554 0.297706 0.757141 0.301203
C48   C     C_3   0.239586 0.691498 0.749657 0.335857
C49   C     C_3   0.588116 0.785235 0.862936 0.146750
C50   C     C_3   0.542943 0.755987 0.992705 -0.849755
C51   C     C_3   0.621360 0.263307 0.866124 0.143829
C52   C     C_3   0.582769 0.275375 0.006812 -0.858281
C53   C     C_3   0.088099 0.285230 0.862930 0.146703
C54   C     C_3   0.042916 0.255966 0.992678 -0.849758
C55   C     C_3   0.121385 0.763301 0.866143 0.143835
C56   C     C_3   0.315587 0.757037 0.743829 -0.520639
C57   C     C_3   0.082820 0.775381 0.006846 -0.858289
C58   C     C_3   0.811924 0.747354 0.741851 -0.489323
C59   C     C_3   0.815574 0.257049 0.743837 -0.520635
C60   C     C_R   0.429256 0.966676 0.070203 0.216562
H1    H     H_    0.289018 0.179523 0.278459 0.170185
H2    H     H_    0.671893 0.212516 0.280356 0.177614
H3    H     H_    0.170847 0.287096 0.280544 0.177719
H4    H     H_    0.171891 0.712518 0.280358 0.177616
H5    H     H_    0.734345 0.870244 0.760032 0.087905
H6    H     H_    0.761754 0.122774 0.733101 0.092371
H7    H     H_    0.234330 0.370235 0.760041 0.087905
H8    H     H_    0.261764 0.622763 0.733087 0.092369
H9    H     H_    0.369056 0.290202 0.714963 0.144775
H10   H     H_    0.380600 0.726303 0.719784 0.161401
H11   H     H_    0.869065 0.790210 0.714941 0.144778
H12   H     H_    0.286321 0.824406 0.279263 0.164290
H13   H     H_    0.880589 0.226315 0.719803 0.161405
H14   H     H_    0.325976 0.201237 0.826094 0.221771
H15   H     H_    0.317611 0.803097 0.830728 0.211127
H16   H     H_    0.825993 0.701251 0.826087 0.221774
H17   H     H_    0.817592 0.303111 0.830732 0.211126
H18   H     H_    0.632555 0.044599 0.128267 0.164880
H19   H     H_    0.132558 0.544589 0.128267 0.164874
H20   H     H_    0.632778 0.042912 0.875695 0.186841
H21   H     H_    0.132781 0.542901 0.875695 0.186840
H22   H     H_    0.328444 0.062039 0.873619 0.221031
H23   H     H_    0.789002 0.679507 0.278462 0.170184
H24   H     H_    0.289492 0.946515 0.876751 0.192497
H25   H     H_    0.828451 0.562055 0.873622 0.221033
H26   H     H_    0.789488 0.446535 0.876750 0.192496
H27   H     H_    0.554072 0.752594 0.775826 0.145021
H28   H     H_    0.580831 0.856889 0.854315 0.168963
H29   H     H_    0.571914 0.791559 0.080899 0.252606
H30   H     H_    0.470695 0.770702 0.986229 0.206322
H31   H     H_    0.551874 0.684276 0.007646 0.263702
H32   H     H_    0.567146 0.240834 0.796637 0.159535
H33   H     H_    0.647010 0.328211 0.832322 0.138537
H34   H     H_    0.786324 0.324404 0.279262 0.164296
H35   H     H_    0.634950 0.300539 0.077265 0.247810
H36   H     H_    0.527334 0.323436 0.002202 0.211799
H37   H     H_    0.556888 0.212027 0.045697 0.264425
H38   H     H_    0.054059 0.252608 0.775811 0.145046
H39   H     H_    0.080820 0.356881 0.854340 0.168968
H40   H     H_    0.071908 0.291500 0.080893 0.252629
H41   H     H_    0.970672 0.270715 0.986217 0.206319
H42   H     H_    0.051817 0.184246 0.007566 0.263693
H43   H     H_    0.067159 0.740830 0.796679 0.159538
H44   H     H_    0.147037 0.828201 0.832323 0.138534
H45   H     H_    0.329568 0.065006 0.117043 0.214799
H46   H     H_    0.135014 0.800555 0.077268 0.247798
H47   H     H_    0.027383 0.823439 0.002248 0.211806
H48   H     H_    0.056949 0.712036 0.045759 0.264427
H49   H     H_    0.290077 0.948329 0.118940 0.193917
H50   H     H_    0.829574 0.565019 0.117046 0.214799
H51   H     H_    0.790073 0.448344 0.118940 0.193920
H52   H     H_    0.670833 0.787081 0.280548 0.177724
N1    N     N_R   0.499140 0.000000 0.142800 -0.114746
N2    N     N_R   0.999140 0.500000 0.142800 -0.114741
N3    N     N_R   0.499160 0.000000 0.857150 -0.128323
N4    N     N_R   0.999160 0.500000 0.857150 -0.128322
O1    O     O_R   0.408400 0.908380 0.614690 -0.619746
O2    O     O_R   0.591610 0.908390 0.614650 -0.660836
O3    O     O_R   0.091610 0.591610 0.614650 -0.625236
O4    O     O_R   0.091610 0.408390 0.614650 -0.660832
O5    O     O_R   0.591590 0.091600 0.385310 -0.622983
O6    O     O_R   0.591590 0.908400 0.385310 -0.612718
O7    O     O_R   0.091590 0.591600 0.385310 -0.622986
O8    O     O_R   0.091590 0.408400 0.385310 -0.612718
O9    O     O_3   0.678734 0.762076 0.868822 -0.597210
O10   O     O_3   0.690092 0.199871 0.872055 -0.611082
O11   O     O_3   0.178712 0.262064 0.868812 -0.597217
O12   O     O_R   0.408400 0.091620 0.614690 -0.614787
O13   O     O_3   0.190110 0.699857 0.872056 -0.611083
O14   O     O_R   0.908400 0.408380 0.614690 -0.619748
O15   O     O_R   0.908400 0.591620 0.614690 -0.614786
O16   O     O_R   0.408370 0.908370 0.385350 -0.625011
O17   O     O_R   0.408370 0.091630 0.385350 -0.624251
O18   O     O_R   0.908370 0.408370 0.385350 -0.625011
O19   O     O_R   0.908370 0.591630 0.385350 -0.624251
O20   O     O_R   0.591610 0.091610 0.614650 -0.625240
Zn1   Zn    Zn3+2 0.500010 0.000000 0.653130 0.923724
Zn2   Zn    Zn3+2 0.000010 0.500000 0.653130 0.923725
Zn3   Zn    Zn3+2 0.499980 1.000000 0.346870 0.940180
Zn4   Zn    Zn3+2 0.999980 0.500000 0.346870 0.940181

loop_
_geom_bond_atom_site_label_1
_geom_bond_atom_site_label_2
_ccdc_geom_bond_type
C19   C56   S    
C21   C26   A    
C10   H25   S    
C15   O6    A    
C55   H43   S    
C46   C59   S    
C11   H49   S    
C6    H21   S    
C49   H27   S    
C54   H41   S    
C1    O16   A    
C59   H17   S    
C60   N1    A    
C58   H16   S    
C53   C54   S    
C53   H39   S    
O16   Zn3   S    
C41   C46   S    
C4    N2    A    
C13   H51   S    
C16   O7    A    
O6    Zn3   S    
C29   H23   S    
C18   C42   A    
O18   Zn4   S    
C20   C40   A    
C58   H11   S    
C20   C25   A    
C12   C22   S    
C52   H37   S    
C52   H35   S    
C48   C56   S    
C23   C26   S    
C7    N3    A    
C2    C13   S    
O8    Zn4   S    
C53   O11   S    
C17   O4    A    
C50   H30   S    
N3    Zn1   S    
C28   C35   A    
C44   C58   S    
C55   O13   S    
C46   O10   S    
C11   H45   S    
C31   H52   S    
N1    Zn3   S    
C35   H4    S    
N2    Zn4   S    
O2    Zn1   S    
C27   H1    S    
C43   C48   S    
C59   H13   S    
C9    H22   S    
C17   C38   S    
C57   H46   S    
C56   H15   S    
C5    N3    A    
O3    Zn2   S    
C49   H28   S    
C54   H40   S    
C44   H5    S    
C28   H12   S    
C47   H7    S    
C19   C43   A    
C21   C59   S    
N4    Zn2   S    
C45   C47   S    
C25   C29   A    
O19   Zn4   S    
O1    Zn1   S    
C44   O9    S    
C45   H9    S    
C51   C52   S    
C36   C40   A    
C4    H19   S    
C4    C6    A    
C3    N1    A    
C16   O3    A    
C30   H34   S    
C39   C43   A    
C9    H24   S    
O7    Zn4   S    
C27   C33   A    
C23   O14   A    
C45   H14   S    
C35   C39   A    
O12   Zn1   S    
C13   H50   S    
C50   H29   S    
C51   H32   S    
C17   O8    A    
C33   H3    S    
C1    O1    A    
C32   C37   A    
C48   H8    S    
C5    H20   S    
C47   O11   S    
C9    C11   S    
C6    N4    A    
C51   H33   S    
C21   C41   A    
C57   H47   S    
C34   O15   A    
O17   Zn3   S    
C56   H10   S    
C12   O17   A    
C55   C57   S    
C48   O13   S    
O4    Zn2   S    
C20   C58   S    
C11   C60   S    
O14   Zn2   S    
C18   C45   S    
C15   C36   S    
C7    C9    S    
C10   H26   S    
C23   O18   A    
C18   C22   A    
C51   O10   S    
C54   H42   S    
C2    C8    A    
C7    C60   A    
C24   C28   A    
O20   Zn1   S    
C3    C5    A    
C10   C13   S    
C46   H6    S    
C12   O12   A    
C53   H38   S    
C49   O9    S    
C25   C34   S    
C33   C38   A    
C15   O2    A    
C22   C27   A    
O5    Zn3   S    
C19   C24   A    
C32   H2    S    
C29   C31   A    
O15   Zn2   S    
C14   C37   S    
C30   C32   A    
C2    N2    A    
C14   O20   A    
C34   O19   A    
C55   H44   S    
C52   H36   S    
C42   C47   S    
C37   C41   A    
C8    N4    A    
C16   C39   S    
C38   C42   A    
C50   H31   S    
C40   C44   S    
C57   H48   S    
C1    C24   S    
C8    C10   S    
C49   C50   S    
C14   O5    A    
C31   C36   A    
C3    H18   S    
C26   C30   A    
