data_mof_unit_38045.cif
_audit_creation_date              2012-12-11T14:58:25-0500
_audit_creation_method            fapswitch 2.2
_symmetry_space_group_name_H-M    P1
_symmetry_Int_Tables_number       1
_space_group_crystal_system       triclinic
_cell_length_a                    11.050914
_cell_length_b                    10.831871
_cell_length_c                    18.777016
_cell_angle_alpha                 90.118547
_cell_angle_beta                  91.069611
_cell_angle_gamma                 59.64689
_cell_volume                      1939.14850143

loop_
_atom_site_label
_atom_site_type_symbol
_atom_type_description
_atom_site_fract_x
_atom_site_fract_y
_atom_site_fract_z
_atom_type_partial_charge
C1    C     C_R   0.359700 0.767186 0.395799 0.570697
C2    C     C_R   0.603206 0.247836 0.138482 -0.023112
C3    C     C_R   0.349885 0.342865 0.162232 0.033809
C4    C     C_R   0.504339 0.321147 0.260416 -0.120120
C5    C     C_R   0.484076 0.309532 0.187545 0.006453
C6    C     C_R   0.139974 0.354333 0.377895 -0.038890
C7    C     C_R   0.063859 0.401856 0.440632 0.257093
C8    C     C_R   0.707156 0.103942 0.147143 -0.041770
C9    C     C_R   0.780929 0.024242 0.088339 -0.049772
C10   C     C_R   0.236138 0.398868 0.208471 -0.131913
C11   C     C_R   0.256206 0.407834 0.280649 -0.031413
C12   C     C_R   0.417558 0.380359 0.382796 0.526065
C13   C     C_R   0.980503 0.548655 0.453254 -0.012388
C14   C     C_R   0.970067 0.647802 0.402373 -0.051229
C15   C     C_R   0.046701 0.600752 0.339796 -0.046511
C16   C     C_R   0.136654 0.453762 0.328678 -0.013607
C17   C     C_R   0.391775 0.368060 0.307166 0.009223
C18   C     C_R   0.912048 0.209742 0.307968 0.203375
C19   C     C_R   0.952750 0.186759 0.237081 0.216263
C20   C     C_R   0.934182 0.302787 0.193844 -0.055426
C21   C     C_R   0.874411 0.438987 0.222542 -0.154379
C22   C     C_R   0.821250 0.465111 0.289364 0.163373
C23   C     C_R   0.774593 0.381337 0.402101 0.623744
C24   C     C_R   0.839931 0.350033 0.333280 -0.014466
C25   C     C_R   0.407529 0.881823 0.295959 -0.029651
C26   C     C_R   0.416302 0.895953 0.223119 0.254470
C27   C     C_R   0.362979 0.833446 0.174991 0.059528
C28   C     C_R   0.321336 0.740124 0.200766 -0.118828
C29   C     C_R   0.315102 0.724775 0.273323 -0.089985
C30   C     C_R   0.354169 0.798944 0.320974 0.041701
C31   C     C_R   0.333985 0.257749 0.691533 -0.064835
C32   C     C_R   0.303832 0.240507 0.760642 -0.125249
C33   C     C_R   0.304958 0.329754 0.814387 0.047654
C34   C     C_R   0.343685 0.770969 0.604240 0.572445
C35   C     C_R   0.332679 0.438949 0.799028 -0.045565
C36   C     C_R   0.364027 0.455649 0.729554 -0.087519
C37   C     C_R   0.366877 0.363484 0.676331 0.068464
C38   C     C_R   0.914077 0.383913 0.706392 -0.142689
C39   C     C_R   0.953992 0.366255 0.777599 -0.164168
C40   C     C_R   0.924411 0.281257 0.821501 -0.033541
C41   C     C_R   0.864479 0.205121 0.792686 -0.025032
C42   C     C_R   0.818418 0.226662 0.722205 0.245170
C43   C     C_R   0.839423 0.320871 0.678800 0.041921
C44   C     C_R   0.195032 0.841959 0.711763 0.240193
C45   C     C_R   0.405276 0.377850 0.605199 0.559574
C46   C     C_R   0.195562 0.832771 0.785569 0.217971
C47   C     C_R   0.302263 0.836983 0.825793 -0.020008
C48   C     C_R   0.418763 0.826272 0.791170 -0.176338
C49   C     C_R   0.426795 0.817105 0.717789 -0.195486
C50   C     C_R   0.316203 0.823728 0.677233 -0.021124
C51   C     C_R   0.971860 0.288938 0.118874 0.573233
C52   C     C_R   0.327047 0.296260 0.092483 0.561754
C53   C     C_R   0.310298 0.896210 0.104678 0.564868
C54   C     C_R   0.951058 0.279087 0.897555 0.579467
C55   C     C_R   0.295536 0.292245 0.886610 0.557810
C56   C     C_R   0.766661 0.373460 0.610203 0.597898
C57   C     C_R   0.275601 0.892137 0.898332 0.546976
C58   C     C_R   0.752126 0.088139 0.020840 0.281738
C59   C     C_R   0.658546 0.235988 0.013238 0.295389
C60   C     C_R   0.588002 0.316150 0.072661 -0.100498
Cr1   Cr    Cr6+3 0.601770 0.606860 0.505860 1.063873
Cr2   Cr    Cr6+3 0.291380 0.601660 0.495070 1.080919
Cr3   Cr    Cr6+3 0.606880 0.291510 0.499120 1.148145
Cr4   Cr    Cr6+3 0.062440 0.063090 0.008210 1.117022
Cr5   Cr    Cr6+3 0.062880 0.375170 0.998920 1.066725
Cr6   Cr    Cr6+3 0.374700 0.061720 0.992470 1.099848
H1    H     H_    0.607789 0.292260 0.280840 0.128879
H2    H     H_    0.923154 0.585908 0.502231 0.148317
H3    H     H_    0.904995 0.761243 0.412124 0.168864
H4    H     H_    0.044676 0.678766 0.303072 0.159993
H5    H     H_    0.860298 0.529755 0.191505 0.203045
H6    H     H_    0.445323 0.932359 0.332977 0.175984
H7    H     H_    0.281712 0.689387 0.164994 0.139085
H8    H     H_    0.853991 0.910671 0.094610 0.160725
H9    H     H_    0.277653 0.656407 0.292305 0.129851
H10   H     H_    0.334358 0.187311 0.650353 0.170027
H11   H     H_    0.933462 0.454711 0.674093 0.179620
H12   H     H_    0.002948 0.423653 0.799059 0.167563
H13   H     H_    0.843938 0.136682 0.825989 0.259068
H14   H     H_    0.503040 0.827883 0.820779 0.190898
H15   H     H_    0.507217 0.427303 0.065421 0.129460
H16   H     H_    0.211525 0.240926 0.370646 0.153158
H17   H     H_    0.721611 0.049833 0.197707 0.211906
H18   H     H_    0.132798 0.424741 0.189474 0.135168
O1    O     O_R   0.748800 0.497470 0.428000 -0.465646
O2    O     O_R   0.300070 0.471040 0.567100 -0.482002
O3    O     O_R   0.491670 0.258900 0.574910 -0.452923
O4    O     O_R   0.718780 0.304180 0.577850 -0.441291
O5    O     O_3   0.500010 0.500010 0.500020 -0.341085
O6    O     O_R   0.186690 0.923650 0.086970 -0.471450
O7    O     O_R   0.957250 0.194250 0.084630 -0.450577
O8    O     O_R   0.934970 0.407490 0.085330 -0.518755
O9    O     O_R   0.203780 0.365190 0.067090 -0.529986
O10   O     O_R   0.417600 0.174890 0.067840 -0.451591
O11   O     O_R   0.375320 0.946260 0.070860 -0.453438
O12   O     O_R   0.476420 0.724060 0.429470 -0.477173
O13   O     O_R   0.160600 0.919630 0.926660 -0.441286
O14   O     O_R   0.933060 0.190520 0.936020 -0.444211
O15   O     O_R   0.908880 0.403460 0.925020 -0.465856
O16   O     O_R   0.179600 0.361450 0.918490 -0.524274
O17   O     O_R   0.391510 0.170860 0.907530 -0.461611
O18   O     O_R   0.351130 0.942530 0.922260 -0.519382
O19   O     O_3   0.166667 0.166667 0.999870 -0.332682
O20   O     O_R   0.264580 0.744340 0.416750 -0.481189
O21   O     O_R   0.309380 0.472470 0.418200 -0.506724
O22   O     O_R   0.501710 0.260430 0.414300 -0.475003
O23   O     O_R   0.728090 0.305600 0.428960 -0.465816
O24   O     O_R   0.738760 0.495930 0.588610 -0.525659
O25   O     O_R   0.467110 0.722640 0.578360 -0.514062
O26   O     O_R   0.254530 0.742800 0.577360 -0.443982
Cl1   Cl    Cl    0.952343 0.061797 0.364283 -0.502062
Cl2   Cl    Cl    0.016531 0.013378 0.205153 -0.595179
Cl3   Cl    Cl    0.723736 0.648516 0.310306 -0.609832
Cl4   Cl    Cl    0.495734 0.991781 0.196454 -0.600490
H19   H     H_    0.282976 0.155245 0.772769 0.117802
H20   H     H_    0.336026 0.506164 0.840888 0.173117
H21   H     H_    0.391012 0.536378 0.717699 0.098701
Cl5   Cl    Cl    0.721735 0.145092 0.695601 -0.477883
Cl6   Cl    Cl    0.040174 0.874856 0.665006 -0.431079
Cl7   Cl    Cl    0.080110 0.277439 0.505378 -0.587554
Cl8   Cl    Cl    0.065921 0.806345 0.825023 -0.460237
H22   H     H_    0.521043 0.801976 0.692992 0.181444
Cl9   Cl    Cl    0.824210 0.978111 0.946715 -0.467369
Cl10  Cl    Cl    0.612660 0.320358 0.929198 -0.582676

loop_
_geom_bond_atom_site_label_1
_geom_bond_atom_site_label_2
_ccdc_geom_bond_type
C9    H8    S    
C33   C55   S    
Cr5   O8    S    
C40   C41   A    
C6    H16   S    
Cr3   O4    S    
C53   O11   A    
C8    H17   S    
C41   C42   A    
Cr6   O18   S    
C19   C20   A    
Cr4   O6    S    
Cr1   O25   S    
Cr1   O12   S    
Cr2   O21   S    
C19   Cl2   S    
C57   O18   A    
Cr2   O2    S    
C58   Cl9   S    
C21   H5    S    
C18   C24   A    
C1    C30   S    
C28   C29   A    
C45   O3    A    
C18   C19   A    
C20   C51   S    
C12   O21   A    
C2    C60   A    
C56   O4    A    
C15   C16   A    
Cr2   O5    S    
C59   Cl10  S    
C9    C58   A    
C60   H15   S    
Cr1   O24   S    
C56   O24   A    
C51   O7    A    
C22   Cl3   S    
C11   C17   A    
C47   C48   A    
Cr1   O5    S    
C8    C9    A    
C55   O16   A    
C23   C24   S    
C46   Cl8   S    
C52   O10   A    
Cr6   O10   S    
Cr4   O14   S    
C23   O23   A    
C59   C60   A    
C21   C22   A    
Cr6   O17   S    
C28   H7    S    
Cr6   O19   S    
C44   C46   A    
Cr2   O20   S    
C34   C50   S    
C39   H12   S    
C35   H20   S    
C18   Cl1   S    
Cr5   O15   S    
C39   C40   A    
C42   Cl5   S    
C44   Cl6   S    
C58   C59   A    
C31   C37   A    
C35   C36   A    
C12   C17   S    
C26   Cl4   S    
C29   C30   A    
C51   O8    A    
C47   C57   S    
C11   C16   S    
C31   C32   A    
Cr2   O26   S    
C57   O13   A    
Cr3   O5    S    
C26   C27   A    
C52   O9    A    
C25   H6    S    
Cr3   O22   S    
C36   H21   S    
C1    O20   A    
Cr1   O1    S    
C4    C17   A    
C48   C49   A    
C40   C54   S    
C34   O26   A    
C14   H3    S    
C22   C24   A    
C54   O15   A    
C2    C5    S    
C42   C43   A    
Cr5   O19   S    
C37   C45   S    
C53   O6    A    
C44   C50   A    
C25   C30   A    
C15   H4    S    
C46   C47   A    
Cr4   O13   S    
Cr3   O3    S    
C7    Cl7   S    
C2    C8    A    
Cr5   O16   S    
C4    C5    A    
C3    C5    A    
C41   H13   S    
C4    H1    S    
C3    C52   S    
C27   C53   S    
C6    C7    A    
C29   H9    S    
C38   H11   S    
C55   O17   A    
C32   C33   A    
C48   H14   S    
C45   O2    A    
C25   C26   A    
C38   C43   A    
C3    C10   A    
C12   O22   A    
C31   H10   S    
C38   C39   A    
C1    O12   A    
C49   H22   S    
C10   H18   S    
Cr5   O9    S    
C33   C35   A    
C32   H19   S    
Cr4   O19   S    
C10   C11   A    
C6    C16   A    
C43   C56   S    
C7    C13   A    
C20   C21   A    
C36   C37   A    
C49   C50   A    
C23   O1    A    
C27   C28   A    
C34   O25   A    
C14   C15   A    
C54   O14   A    
Cr4   O7    S    
C13   C14   A    
Cr3   O23   S    
Cr6   O11   S    
C13   H2    S    
