data_mof_unit_29356.cif
_audit_creation_date              2013-03-05T16:04:57-0500
_audit_creation_method            fapswitch 2.2
_symmetry_space_group_name_H-M    P1
_symmetry_Int_Tables_number       1
_space_group_crystal_system       triclinic
_cell_length_a                    23.282746
_cell_length_b                    20.437105
_cell_length_c                    15.07815
_cell_angle_alpha                 90.615892
_cell_angle_beta                  99.419198
_cell_angle_gamma                 90.026837
_cell_volume                      7077.50489526

loop_
_atom_site_label
_atom_site_type_symbol
_atom_site_description
_atom_site_fract_x
_atom_site_fract_y
_atom_site_fract_z
_atom_type_partial_charge
O1    O     O_R   0.541320 0.066090 0.608930 -0.610769
O2    O     O_R   0.458680 0.933910 0.391070 -0.607515
O3    O     O_R   0.458680 0.066090 0.391070 -0.619259
O4    O     O_R   0.541320 0.933910 0.608930 -0.614224
O5    O     O_R   0.041320 0.566090 0.608930 -0.607514
O6    O     O_R   0.958680 0.433910 0.391070 -0.608227
O7    O     O_R   0.958680 0.566090 0.391070 -0.616583
O8    O     O_R   0.041320 0.433910 0.608930 -0.617816
O9    O     O_R   0.572880 0.066110 0.470280 -0.638507
O10   O     O_R   0.427120 0.933890 0.529720 -0.643593
O11   O     O_R   0.427120 0.066110 0.529720 -0.632057
O12   O     O_R   0.572880 0.933890 0.470280 -0.640914
O13   O     O_R   0.072880 0.566110 0.470280 -0.639441
O14   O     O_R   0.927120 0.433890 0.529720 -0.639529
O15   O     O_R   0.927120 0.566110 0.529720 -0.640429
O16   O     O_R   0.072880 0.433890 0.470280 -0.641204
C1    C     C_R   0.574825 0.087503 0.553646 0.889894
C2    C     C_R   0.425370 0.912130 0.446499 0.886115
C3    C     C_R   0.425130 0.087408 0.446714 0.887983
C4    C     C_R   0.575066 0.912797 0.553389 0.888163
C5    C     C_R   0.075395 0.586928 0.553997 0.890491
C6    C     C_R   0.925216 0.412442 0.446377 0.890216
C7    C     C_R   0.924815 0.587076 0.446546 0.890328
C8    C     C_R   0.075125 0.412815 0.553426 0.889412
Zn1   Zn    Zn3+2 0.478910 1.000000 0.592580 0.926397
Zn2   Zn    Zn3+2 0.521090 1.000000 0.407420 0.917445
Zn3   Zn    Zn3+2 0.978910 0.500000 0.592580 0.918715
Zn4   Zn    Zn3+2 0.021090 0.500000 0.407420 0.919380
C9    C     C_R   0.619125 0.864713 0.587138 -0.116045
C10   C     C_R   0.381766 0.136292 0.413277 -0.122062
C11   C     C_R   0.386929 0.857208 0.416790 -0.117455
C12   C     C_R   0.614720 0.140682 0.584444 -0.118942
C13   C     C_R   0.119326 0.364783 0.587185 -0.115029
C14   C     C_R   0.880219 0.634539 0.412593 -0.115214
C15   C     C_R   0.885563 0.359001 0.415718 -0.119240
C16   C     C_R   0.118177 0.637167 0.586368 -0.121330
C17   C     C_R   0.689007 0.821047 0.709248 0.305506
C18   C     C_R   0.313352 0.182132 0.291131 0.305321
C19   C     C_R   0.359443 0.761537 0.322216 0.314082
C20   C     C_R   0.642147 0.237991 0.674569 0.330220
C21   C     C_R   0.188148 0.319691 0.709593 0.306474
C22   C     C_R   0.809413 0.676691 0.290508 0.306623
C23   C     C_R   0.858609 0.261452 0.325814 0.330065
C24   C     C_R   0.153238 0.729070 0.683480 0.318575
C25   C     C_R   0.638389 0.856961 0.679418 -0.260874
C26   C     C_R   0.363429 0.145390 0.321051 -0.261298
C27   C     C_R   0.395244 0.816497 0.344607 -0.268559
C28   C     C_R   0.603978 0.185422 0.650653 -0.269951
C29   C     C_R   0.137696 0.355853 0.679460 -0.260240
C30   C     C_R   0.860530 0.641615 0.320323 -0.258988
C31   C     C_R   0.896476 0.314322 0.349526 -0.268048
C32   C     C_R   0.112090 0.679354 0.657945 -0.268917
C33   C     C_R   0.644958 0.829389 0.525601 -0.254884
C34   C     C_R   0.355752 0.171146 0.474990 -0.255074
C35   C     C_R   0.344752 0.841796 0.467878 -0.234702
C36   C     C_R   0.661928 0.149545 0.540982 -0.234861
C37   C     C_R   0.146144 0.330637 0.525700 -0.253853
C38   C     C_R   0.854069 0.669582 0.474040 -0.255944
C39   C     C_R   0.838516 0.349742 0.459402 -0.235520
C40   C     C_R   0.164175 0.645323 0.539954 -0.238108
C41   C     C_R   0.692384 0.789307 0.553144 0.037790
C42   C     C_R   0.308464 0.211533 0.447646 0.042928
C43   C     C_R   0.315983 0.782247 0.456933 0.037148
C44   C     C_R   0.691892 0.208413 0.548650 0.043751
C45   C     C_R   0.193443 0.290395 0.553256 0.036620
C46   C     C_R   0.806089 0.708867 0.446486 0.038643
C47   C     C_R   0.808887 0.290660 0.451854 0.043967
C48   C     C_R   0.198017 0.701300 0.551677 0.037802
C49   C     C_R   0.719371 0.792890 0.644228 0.013357
C50   C     C_R   0.282399 0.209442 0.356017 0.010849
C51   C     C_R   0.317036 0.746458 0.376637 0.012234
C52   C     C_R   0.687301 0.249256 0.623630 0.003723
C53   C     C_R   0.219341 0.292489 0.644890 0.013399
C54   C     C_R   0.778958 0.704758 0.355516 0.012419
C55   C     C_R   0.813591 0.249869 0.376900 0.003368
C56   C     C_R   0.198267 0.738289 0.631651 0.010370
C57   C     C_R   0.718915 0.755242 0.488958 0.026057
C58   C     C_R   0.281118 0.244329 0.512055 0.036179
C59   C     C_R   0.281515 0.761576 0.519915 0.035803
C60   C     C_R   0.728796 0.225255 0.486703 0.035936
C61   C     C_R   0.220772 0.257472 0.488973 0.022896
C62   C     C_R   0.779413 0.742767 0.510651 0.026504
C63   C     C_R   0.772136 0.273599 0.513888 0.036172
C64   C     C_R   0.234724 0.718151 0.489451 0.038473
C65   C     C_R   0.311358 0.263838 0.599018 0.056870
C66   C     C_R   0.687674 0.733807 0.403576 0.062805
C67   C     C_R   0.723769 0.196760 0.398024 0.071253
C68   C     C_R   0.292172 0.782391 0.612443 0.062092
C69   C     C_R   0.810602 0.764249 0.596028 0.063018
C70   C     C_R   0.190444 0.237793 0.402132 0.061616
C71   C     C_R   0.225681 0.695932 0.397079 0.066708
C72   C     C_R   0.777293 0.302005 0.602604 0.071348
C73   C     C_R   0.278687 0.278867 0.666650 -0.197542
C74   C     C_R   0.719357 0.717386 0.335239 -0.192799
C75   C     C_R   0.770921 0.202331 0.351790 -0.221574
C76   C     C_R   0.247099 0.776678 0.662903 -0.195700
C77   C     C_R   0.778918 0.780041 0.664571 -0.191846
C78   C     C_R   0.223031 0.222876 0.334427 -0.191795
C79   C     C_R   0.271067 0.703572 0.347281 -0.200047
C80   C     C_R   0.730178 0.296539 0.648904 -0.221612
H1    H     H_    0.301287 0.289729 0.733787 0.194151
H2    H     H_    0.695968 0.704958 0.269119 0.193204
H3    H     H_    0.770636 0.173918 0.290879 0.194781
H4    H     H_    0.253176 0.796511 0.730643 0.191531
H5    H     H_    0.802297 0.792340 0.730750 0.192456
H6    H     H_    0.200370 0.211932 0.267347 0.193251
H7    H     H_    0.266298 0.682980 0.280044 0.189630
H8    H     H_    0.730580 0.324910 0.709878 0.194941
H9    H     H_    0.368007 0.160135 0.544921 0.173505
H10   H     H_    0.632080 0.839034 0.455374 0.160593
H11   H     H_    0.675702 0.109677 0.502304 0.151357
H12   H     H_    0.332939 0.877651 0.514597 0.153558
H13   H     H_    0.867236 0.660294 0.544329 0.160420
H14   H     H_    0.134078 0.341274 0.455713 0.160868
H15   H     H_    0.174673 0.606615 0.496611 0.155185
H16   H     H_    0.824590 0.389446 0.498209 0.151329
H17   H     H_    0.385695 0.120703 0.272595 0.195481
H18   H     H_    0.616421 0.882129 0.727827 0.197982
H19   H     H_    0.567357 0.178369 0.685610 0.191848
H20   H     H_    0.429340 0.827313 0.305925 0.198497
H21   H     H_    0.882605 0.616548 0.271956 0.195743
H22   H     H_    0.115069 0.380146 0.727796 0.196023
H23   H     H_    0.075771 0.673542 0.693861 0.195812
H24   H     H_    0.932999 0.321633 0.314439 0.192822
N1    N     N_R   0.549130 1.000000 0.284090 -0.124257
N2    N     N_R   0.450870 1.000000 0.715910 -0.116126
N3    N     N_R   0.049130 0.500000 0.284090 -0.122467
N4    N     N_R   0.950870 0.500000 0.715910 -0.123822
C81   C     C_R   0.627074 0.015486 0.200699 -0.284507
C82   C     C_R   0.373030 0.988556 0.800944 -0.303174
C83   C     C_R   0.127265 0.512722 0.200407 -0.284866
C84   C     C_R   0.872698 0.487430 0.799538 -0.284571
C85   C     C_R   0.608076 0.999787 0.280963 0.230063
C86   C     C_R   0.391871 0.995291 0.718979 0.253787
C87   C     C_R   0.108199 0.500192 0.281481 0.230135
C88   C     C_R   0.891791 0.500004 0.718484 0.229868
C89   C     C_R   0.509183 0.007797 0.209427 -0.086244
C90   C     C_R   0.490248 0.005329 0.792376 -0.085546
C91   C     C_R   0.009345 0.502966 0.208333 -0.084755
C92   C     C_R   0.990642 0.496883 0.791654 -0.086542
C93   C     C_R   0.526936 0.014178 0.124768 0.006902
C94   C     C_R   0.471653 0.006247 0.877349 0.005864
C95   C     C_R   0.027570 0.504927 0.123580 0.007159
C96   C     C_R   0.972405 0.494931 0.876385 0.007591
C97   C     C_R   0.586986 0.021802 0.122758 0.125649
C98   C     C_R   0.411991 0.995319 0.879655 0.130686
C99   C     C_R   0.087485 0.514079 0.121676 0.127359
C100  C     C_R   0.912478 0.485893 0.878268 0.126363
C101  C     C_R   0.487823 0.010921 0.042583 0.081337
C102  C     C_R   0.509862 0.015982 0.959653 0.081857
C103  C     C_R   0.988977 0.497417 0.041402 0.080993
C104  C     C_R   0.011001 0.502387 0.958560 0.081357
C105  C     C_R   0.569257 0.030374 0.961830 -0.191090
C106  C     C_R   0.427960 0.999412 0.040660 -0.187047
C107  C     C_R   0.070407 0.516739 0.960472 -0.186387
C108  C     C_R   0.929564 0.483089 0.039474 -0.190079
C109  C     C_R   0.607208 0.032645 0.042288 -0.158762
C110  C     C_R   0.390780 0.992244 0.960370 -0.150428
C111  C     C_R   0.108037 0.521642 0.040876 -0.156319
C112  C     C_R   0.891924 0.478276 0.959059 -0.155938
H25   H     H_    0.653108 0.040890 0.041205 0.167501
H26   H     H_    0.344918 0.983702 0.961553 0.168293
H27   H     H_    0.153848 0.530455 0.039685 0.166369
H28   H     H_    0.846102 0.469524 0.960239 0.167980
H29   H     H_    0.535289 0.008579 0.784625 0.140272
H30   H     H_    0.464387 0.008547 0.218768 0.141835
H31   H     H_    0.035678 0.496477 0.783365 0.141647
H32   H     H_    0.964309 0.503228 0.216624 0.140901
H33   H     H_    0.672861 0.019396 0.196531 0.151413
H34   H     H_    0.327207 0.980563 0.803288 0.159786
H35   H     H_    0.173032 0.517303 0.196422 0.153180
H36   H     H_    0.826928 0.482885 0.803512 0.151839
H37   H     H_    0.588047 0.039221 0.902358 0.152065
H38   H     H_    0.408165 0.994750 0.099952 0.152514
H39   H     H_    0.089436 0.524405 0.900951 0.152739
H40   H     H_    0.910529 0.475432 0.098991 0.152446
N5    N     N_R   0.710121 0.816119 0.804153 0.206287
O17   O     O_R   0.697271 0.860975 0.859584 -0.370084
O18   O     O_R   0.735455 0.762804 0.836748 -0.353825
N6    N     N_R   0.293264 0.188616 0.196140 0.206823
O19   O     O_R   0.306301 0.144438 0.139910 -0.373808
O20   O     O_R   0.268817 0.242662 0.164563 -0.352538
N7    N     N_R   0.367747 0.721238 0.246560 0.200247
O21   O     O_R   0.386514 0.747069 0.178116 -0.374513
O22   O     O_R   0.365294 0.657793 0.251577 -0.397138
N8    N     N_R   0.633891 0.279126 0.749147 0.197986
O23   O     O_R   0.581952 0.300101 0.755520 -0.394921
O24   O     O_R   0.674609 0.283483 0.819205 -0.379268
N9    N     N_R   0.208182 0.313437 0.804622 0.206510
O25   O     O_R   0.194971 0.357682 0.860623 -0.370739
O26   O     O_R   0.232719 0.259508 0.836467 -0.354416
N10   N     N_R   0.787993 0.680956 0.195626 0.206313
O27   O     O_R   0.800908 0.635845 0.140606 -0.372323
O28   O     O_R   0.762395 0.733993 0.162536 -0.352921
N11   N     N_R   0.867016 0.220363 0.251269 0.198291
O29   O     O_R   0.919055 0.199768 0.244797 -0.394373
O30   O     O_R   0.826252 0.215682 0.181313 -0.379103
N12   N     N_R   0.147331 0.770683 0.758995 0.200966
O31   O     O_R   0.124643 0.747772 0.825701 -0.375579
O32   O     O_R   0.156066 0.833421 0.755228 -0.395162
C113  C     C_3   0.376299 0.280847 0.619052 -0.398197
C114  C     C_3   0.393255 0.330805 0.552382 -0.358404
C115  C     C_3   0.457494 0.349493 0.575788 -0.789701
H41   H     H_    0.466796 0.371905 0.644083 0.282625
H42   H     H_    0.485328 0.305569 0.573279 0.267782
H43   H     H_    0.468460 0.385524 0.526521 0.244883
H44   H     H_    0.385429 0.310428 0.482949 0.239792
H45   H     H_    0.366323 0.375609 0.553823 0.229367
H46   H     H_    0.387147 0.303326 0.687280 0.215908
H47   H     H_    0.404937 0.237646 0.622578 0.200039
C116  C     C_3   0.622728 0.716629 0.386319 -0.397381
C117  C     C_3   0.606838 0.668161 0.455691 -0.352663
C118  C     C_3   0.542358 0.649986 0.435799 -0.810309
H48   H     H_    0.515026 0.694310 0.438440 0.262460
H49   H     H_    0.531564 0.626614 0.368264 0.279248
H50   H     H_    0.532208 0.614926 0.486852 0.248578
H51   H     H_    0.633295 0.622984 0.454390 0.228863
H52   H     H_    0.616118 0.689644 0.524437 0.239536
H53   H     H_    0.594111 0.759874 0.382168 0.200326
H54   H     H_    0.610981 0.692813 0.319089 0.213284
C119  C     C_3   0.667381 0.169693 0.343117 -0.415634
C120  C     C_3   0.616782 0.218464 0.337395 -0.320515
C121  C     C_3   0.561341 0.190027 0.282213 -0.814491
H55   H     H_    0.568524 0.177541 0.212977 0.266009
H56   H     H_    0.547751 0.145297 0.314549 0.281131
H57   H     H_    0.525715 0.226519 0.278073 0.254149
H58   H     H_    0.607542 0.231141 0.405353 0.231598
H59   H     H_    0.628592 0.264210 0.305360 0.235062
H60   H     H_    0.673831 0.159346 0.272800 0.206425
H61   H     H_    0.654668 0.121780 0.366188 0.206873
C122  C     C_3   0.352112 0.801896 0.663933 -0.414892
C123  C     C_3   0.398581 0.749875 0.655537 -0.329755
C124  C     C_3   0.458158 0.771334 0.705380 -0.817606
H62   H     H_    0.472132 0.817345 0.676446 0.271263
H63   H     H_    0.456556 0.779310 0.777922 0.270757
H64   H     H_    0.490797 0.732775 0.698620 0.254342
H65   H     H_    0.386023 0.703041 0.684030 0.232939
H66   H     H_    0.402437 0.741054 0.584031 0.232841
H67   H     H_    0.366905 0.850183 0.644869 0.207163
H68   H     H_    0.350076 0.807732 0.736803 0.206118
C125  C     C_3   0.875178 0.783036 0.612553 -0.399926
C126  C     C_3   0.889267 0.832875 0.543610 -0.349386
C127  C     C_3   0.953171 0.853435 0.563017 -0.817753
H69   H     H_    0.963571 0.876564 0.630759 0.275051
H70   H     H_    0.981750 0.810262 0.559588 0.263373
H71   H     H_    0.961983 0.889401 0.512195 0.250657
H72   H     H_    0.880214 0.811730 0.474630 0.239860
H73   H     H_    0.861563 0.876963 0.545860 0.229028
H74   H     H_    0.886948 0.806289 0.680152 0.212247
H75   H     H_    0.904732 0.740683 0.615168 0.200322
C128  C     C_3   0.125485 0.220743 0.382167 -0.394581
C129  C     C_3   0.108447 0.170977 0.449005 -0.363606
C130  C     C_3   0.043975 0.153154 0.426426 -0.786860
H76   H     H_    0.016658 0.197421 0.429647 0.265982
H77   H     H_    0.034026 0.131010 0.358022 0.283148
H78   H     H_    0.032961 0.117160 0.475704 0.245437
H79   H     H_    0.134829 0.125823 0.446895 0.230021
H80   H     H_    0.116908 0.191154 0.518526 0.239128
H81   H     H_    0.096824 0.263939 0.378315 0.201497
H82   H     H_    0.114642 0.198064 0.314061 0.214926
C131  C     C_3   0.167145 0.673805 0.343270 -0.418434
C132  C     C_3   0.118795 0.724512 0.346128 -0.324470
C133  C     C_3   0.060961 0.700340 0.293191 -0.816765
H83   H     H_    0.065065 0.691024 0.221776 0.266608
H84   H     H_    0.047182 0.654494 0.322701 0.280505
H85   H     H_    0.026882 0.737979 0.295771 0.252851
H86   H     H_    0.112501 0.734768 0.416239 0.234373
H87   H     H_    0.131096 0.771096 0.316688 0.231828
H88   H     H_    0.171030 0.666839 0.271200 0.202110
H89   H     H_    0.153373 0.625141 0.362209 0.208645
C134  C     C_3   0.833776 0.328975 0.657338 -0.415710
C135  C     C_3   0.884354 0.280210 0.662634 -0.321540
C136  C     C_3   0.939914 0.308648 0.717465 -0.814318
H90   H     H_    0.953312 0.353490 0.685154 0.280922
H91   H     H_    0.932975 0.320964 0.786869 0.266307
H92   H     H_    0.975566 0.272218 0.721157 0.253958
H93   H     H_    0.872662 0.234438 0.694725 0.235083
H94   H     H_    0.893382 0.267591 0.594539 0.231528
H95   H     H_    0.846471 0.376891 0.634254 0.207417
H96   H     H_    0.827477 0.339243 0.727745 0.206694
C137  C     C_3   0.343755 0.998079 0.637983 -0.426581
C138  C     C_3   0.304479 0.058242 0.642287 -0.340016
C139  C     C_3   0.258838 0.063631 0.557535 -0.859498
H97   H     H_    0.279920 0.066015 0.496734 0.265759
H98   H     H_    0.229154 0.020676 0.551321 0.266406
H99   H     H_    0.232764 0.108744 0.561464 0.255654
H100  H     H_    0.281236 0.055075 0.700806 0.238536
H101  H     H_    0.331430 0.103334 0.650998 0.229707
H102  H     H_    0.359574 0.999292 0.574244 0.267296
H103  H     H_    0.316567 0.953235 0.636325 0.174733
C140  C     C_3   0.651856 0.977693 0.361096 -0.382527
C141  C     C_3   0.716830 0.982504 0.353268 -0.433466
C142  C     C_3   0.755087 0.959464 0.439340 -0.844042
H104  H     H_    0.747598 0.990238 0.497539 0.258910
H105  H     H_    0.745422 0.907547 0.452515 0.266875
H106  H     H_    0.801635 0.963465 0.432009 0.256802
H107  H     H_    0.726252 0.951002 0.296834 0.253650
H108  H     H_    0.728435 0.034042 0.341153 0.228602
H109  H     H_    0.646041 0.006038 0.421301 0.241397
H110  H     H_    0.642757 0.925425 0.370624 0.220771
C143  C     C_3   0.847841 0.520566 0.637521 -0.383214
C144  C     C_3   0.782827 0.514588 0.644756 -0.436859
C145  C     C_3   0.744506 0.535242 0.557442 -0.841918
H111  H     H_    0.753461 0.586962 0.542106 0.267004
H112  H     H_    0.752678 0.503344 0.500709 0.258404
H113  H     H_    0.697946 0.530774 0.564514 0.257004
H114  H     H_    0.772135 0.463112 0.658831 0.229393
H115  H     H_    0.772470 0.546977 0.699689 0.253300
H116  H     H_    0.856035 0.572917 0.627089 0.220781
H117  H     H_    0.854189 0.492115 0.577857 0.242757
C146  C     C_3   0.152155 0.479471 0.362265 -0.389894
C147  C     C_3   0.217178 0.486447 0.355587 -0.430131
C148  C     C_3   0.255466 0.466031 0.443053 -0.836939
H118  H     H_    0.246862 0.497700 0.499757 0.256980
H119  H     H_    0.246904 0.414173 0.458211 0.265431
H120  H     H_    0.302041 0.471052 0.436322 0.260725
H121  H     H_    0.228082 0.454404 0.300679 0.253970
H122  H     H_    0.227358 0.538124 0.341784 0.234726
H123  H     H_    0.145357 0.507167 0.422230 0.244033
H124  H     H_    0.144302 0.426953 0.371843 0.219144

loop_
_geom_bond_atom_site_label_1
_geom_bond_atom_site_label_2
_geom_bond_distance
_ccdc_geom_bond_type
C25   H18   1.083182 S    
C123  H66   1.109300 S    
C17   C49   1.416752 A    
C82   C98   1.376411 A    
C94   C98   1.412920 A    
C121  H55   1.111016 S    
C53   C73   1.395813 A    
C18   C50   1.416853 A    
C121  H57   1.110287 S    
C55   C75   1.393661 A    
C145  H112  1.111007 S    
C143  C144  1.540226 S    
C116  H54   1.112586 S    
C115  H42   1.111335 S    
C83   H35   1.081113 S    
C138  C139  1.527439 S    
N3    C91   1.349711 A    
C90   H29   1.076117 S    
C106  C110  1.374588 A    
C134  C135  1.535705 S    
C105  H37   1.077045 S    
C136  H92   1.110304 S    
C42   C50   1.415336 A    
C133  H84   1.110962 S    
C100  C112  1.389970 A    
C140  C141  1.539692 S    
C135  C136  1.527614 S    
C38   H13   1.072978 S    
O3    C3    1.308012 A    
C64   C71   1.442487 A    
C81   C97   1.383218 A    
C87   C146  1.521145 S    
C77   H5    1.082532 S    
C95   C103  1.413384 A    
C141  H107  1.111807 S    
C82   C86   1.385590 A    
C30   H21   1.083221 S    
C60   C63   1.420352 A    
C21   C29   1.402072 A    
C89   H30   1.075137 S    
N6    O20   1.301495 A    
O9    Zn2   1.942849 S    
C118  H49   1.110827 S    
C23   C55   1.419838 A    
C86   C137  1.517736 S    
C114  C115  1.526820 S    
C129  H80   1.109371 S    
C128  C129  1.536207 S    
C125  H74   1.112605 S    
C66   C116  1.531733 S    
C73   H1    1.082424 S    
C72   C134  1.532535 S    
C88   C143  1.522022 S    
C51   C79   1.394744 A    
O7    Zn4   1.971880 S    
C26   H17   1.083242 S    
C9    C25   1.401020 A    
Zn1   N2    2.069214 S    
C128  H82   1.112609 S    
C46   C62   1.408723 A    
C97   C109  1.391264 A    
Zn3   N4    2.069214 S    
O15   Zn3   1.957747 S    
C145  H111  1.111318 S    
C146  H124  1.103669 S    
O12   C4    1.322694 A    
O13   C5    1.319872 A    
O2    Zn2   1.967314 S    
C81   C85   1.395243 A    
C61   C70   1.435507 A    
C43   C51   1.411415 A    
C76   H4    1.082261 S    
C15   C31   1.399311 A    
C17   C25   1.401561 A    
C19   C27   1.403300 A    
C20   C28   1.399959 A    
C135  H94   1.109010 S    
O3    Zn2   1.971880 S    
C78   H6    1.082494 S    
C21   N9    1.439515 S    
C41   C49   1.414815 A    
C56   C76   1.395020 A    
C57   C62   1.416797 A    
O10   C2    1.321077 A    
N11   O29   1.301150 A    
O4    C4    1.308717 A    
O5    C5    1.311185 A    
C117  C118  1.526912 S    
C74   H2    1.082456 S    
O12   Zn2   1.957749 S    
C14   C38   1.383042 A    
C1    C12   1.451420 S    
C19   C51   1.418976 A    
N12   O32   1.301420 A    
C2    C11   1.455541 S    
C84   H36   1.081092 S    
N8    O23   1.301152 A    
C3    C10   1.454934 S    
C129  C130  1.526878 S    
C47   C63   1.413264 A    
C144  H115  1.111796 S    
C91   C95   1.411850 A    
O4    Zn1   1.971882 S    
C10   C34   1.382306 A    
C119  C120  1.535742 S    
C62   C69   1.434871 A    
C67   C119  1.532552 S    
C59   C64   1.418453 A    
C148  H119  1.111369 S    
C20   N8    1.434849 S    
O11   Zn1   1.957747 S    
C46   C54   1.414711 A    
C147  C148  1.528226 S    
C23   N11   1.434836 S    
C125  C126  1.536155 S    
C109  H25   1.084598 S    
N9    O26   1.301492 A    
C39   C47   1.384682 A    
O5    Zn3   1.967312 S    
C65   C73   1.400093 A    
O6    Zn4   1.967314 S    
C41   C57   1.408721 A    
N5    O18   1.301503 A    
C35   C43   1.384110 A    
C119  H61   1.099200 S    
C36   C44   1.384675 A    
C83   C99   1.381551 A    
C124  H62   1.111508 S    
C131  H88   1.112728 S    
C16   C32   1.399416 A    
Zn4   N3    2.069213 S    
C127  H71   1.110405 S    
C92   H31   1.076136 S    
C138  H100  1.110432 S    
C139  H99   1.110500 S    
N9    O25   1.301582 A    
C113  H46   1.112598 S    
C75   H3    1.080394 S    
C80   H8    1.080391 S    
C106  H38   1.075833 S    
C107  C111  1.377337 A    
C108  C112  1.377460 A    
C132  H86   1.108572 S    
C126  H73   1.111791 S    
C67   C75   1.398679 A    
C122  H68   1.112634 S    
N10   O28   1.301507 A    
C142  H104  1.111012 S    
C84   C88   1.393465 A    
C7    C14   1.455591 S    
C140  H110  1.104359 S    
N2    C86   1.385318 A    
C22   C30   1.401784 A    
O10   Zn1   1.942850 S    
C27   H20   1.083244 S    
C143  H117  1.096188 S    
C114  H44   1.109404 S    
C123  H65   1.111716 S    
C147  H122  1.111548 S    
C47   C55   1.415840 A    
C58   C65   1.435393 A    
C20   C52   1.419884 A    
C10   C26   1.400686 A    
C130  H78   1.110365 S    
C121  H56   1.110535 S    
C132  C133  1.527567 S    
C98   C110  1.388282 A    
C93   C97   1.411985 A    
C48   C56   1.415514 A    
C17   N5    1.439592 S    
C70   C128  1.532221 S    
O1    C1    1.309675 A    
O14   C6    1.320299 A    
N4    C92   1.349572 A    
C96   C104  1.413272 A    
O7    C7    1.309116 A    
C134  H95   1.099185 S    
O8    C8    1.309169 A    
C69   C125  1.531284 S    
C124  H64   1.110429 S    
C18   C26   1.400965 A    
C21   C53   1.417377 A    
C139  H97   1.109955 S    
C71   C79   1.402462 A    
N11   O30   1.301014 A    
C49   C77   1.395744 A    
C68   C76   1.398912 A    
C131  C132  1.535918 S    
C12   C28   1.399136 A    
C54   C74   1.396026 A    
C141  H108  1.111668 S    
C115  H41   1.110809 S    
C133  H83   1.110930 S    
C118  H48   1.111366 S    
C24   N12   1.438459 S    
O11   C3    1.323171 A    
C112  H28   1.084708 S    
N3    C87   1.382277 A    
C142  H106  1.110311 S    
N4    C88   1.382398 A    
O2    C2    1.310710 A    
C117  H51   1.111928 S    
C13   C29   1.401007 A    
C127  H69   1.110823 S    
O6    C6    1.309661 A    
C15   C39   1.381363 A    
C128  H81   1.103163 S    
C39   H16   1.076147 S    
C102  C105  1.408715 A    
C146  H123  1.094930 S    
C103  C104  1.430326 A    
O13   Zn4   1.942849 S    
O14   Zn3   1.942850 S    
C28   H19   1.083595 S    
C36   H11   1.076140 S    
C65   C113  1.531650 S    
C137  H103  1.111328 S    
C11   C27   1.401411 A    
C31   H24   1.083572 S    
C44   C60   1.413688 A    
C59   C68   1.436239 A    
C42   C58   1.409472 A    
C129  H79   1.111848 S    
C145  H113  1.110338 S    
C115  H43   1.110373 S    
C22   C54   1.417186 A    
C18   N6    1.439658 S    
C48   C64   1.413667 A    
C90   C94   1.417893 A    
C34   C42   1.386742 A    
N1    C89   1.348735 A    
C144  H114  1.111573 S    
Zn2   N1    2.069213 S    
C101  C106  1.408918 A    
C63   C72   1.439261 A    
C45   C61   1.409014 A    
C116  C117  1.536491 S    
C104  C107  1.409373 A    
C120  H59   1.111719 S    
C126  C127  1.526501 S    
C103  C108  1.409403 A    
C134  H96   1.112984 S    
N8    O24   1.301013 A    
C85   C140  1.520476 S    
C116  H53   1.103195 S    
N6    O19   1.301611 A    
C118  H50   1.110431 S    
C107  H39   1.076752 S    
C89   C93   1.411943 A    
C108  H40   1.076738 S    
C125  H75   1.103029 S    
C92   C96   1.411660 A    
C37   C45   1.385731 A    
C79   H7    1.082215 S    
C8    C13   1.456707 S    
C94   C102  1.415698 A    
C101  C102  1.431913 A    
C58   C61   1.417606 A    
C23   C31   1.400094 A    
C148  H118  1.110997 S    
C130  H76   1.111344 S    
C82   H34   1.085566 S    
C123  C124  1.527201 S    
C105  C109  1.379330 A    
C91   H32   1.076127 S    
C68   C122  1.532151 S    
C40   C48   1.382060 A    
N5    O17   1.301576 A    
C119  H60   1.112981 S    
O8    Zn3   1.971882 S    
C11   C35   1.381828 A    
C12   C36   1.381473 A    
C19   N7    1.438462 S    
C33   H10   1.072672 S    
O16   Zn4   1.957749 S    
C133  H85   1.110335 S    
C146  C147  1.540251 S    
C138  H101  1.109110 S    
C135  H93   1.111714 S    
C35   H12   1.077655 S    
C139  H98   1.110658 S    
C113  C114  1.536374 S    
C96   C100  1.412273 A    
C99   C111  1.389946 A    
C93   C101  1.413559 A    
C5    C16   1.453880 S    
C43   C59   1.407858 A    
C95   C99   1.412347 A    
C6    C15   1.451700 S    
C9    C33   1.382943 A    
C81   H33   1.081087 S    
C141  C142  1.527924 S    
C60   C67   1.439685 A    
C83   C87   1.393299 A    
N7    O22   1.301434 A    
C132  H87   1.111709 S    
C32   H23   1.083341 S    
C45   C53   1.414369 A    
C122  H67   1.101498 S    
C120  H58   1.108992 S    
C66   C74   1.400013 A    
C136  H91   1.110989 S    
C38   C46   1.386077 A    
C127  H70   1.111216 S    
N12   O31   1.301435 A    
C140  H109  1.098628 S    
O15   C7    1.322432 A    
C143  H116  1.104133 S    
O16   C8    1.322937 A    
C114  H45   1.112050 S    
O1    Zn1   1.967312 S    
C33   C41   1.385947 A    
C4    C9    1.455250 S    
C14   C30   1.400822 A    
C84   C100  1.381652 A    
C130  H77   1.110815 S    
C148  H120  1.110357 S    
C137  C138  1.539800 S    
C34   H9    1.072642 S    
C69   C77   1.399653 A    
N7    O21   1.301441 A    
C136  H90   1.110668 S    
C124  H63   1.110810 S    
C131  H89   1.099673 S    
O9    C1    1.320156 A    
C57   C66   1.435083 A    
C111  H27   1.084715 S    
C113  H47   1.103133 S    
C72   C80   1.398364 A    
C52   C80   1.393651 A    
N1    C85   1.380930 A    
C144  C145  1.528169 S    
N2    C90   1.353873 A    
C13   C37   1.382854 A    
C16   C40   1.382803 A    
C71   C131  1.532903 S    
C37   H14   1.071328 S    
C126  H72   1.109701 S    
N10   O27   1.301573 A    
C142  H105  1.111232 S    
C24   C32   1.402998 A    
C117  H52   1.109383 S    
C29   H22   1.083210 S    
C44   C52   1.416225 A    
C120  C121  1.527625 S    
C110  H26   1.084953 S    
C22   N10   1.439534 S    
C122  C123  1.536199 S    
C147  H121  1.111762 S    
C40   H15   1.074259 S    
C24   C56   1.420039 A    
C70   C78   1.399222 A    
C50   C78   1.395331 A    
C137  H102  1.084573 S    
