data_mof_unit_26750.cif
_audit_creation_date              2012-12-11T14:08:23-0500
_audit_creation_method            fapswitch 2.2
_symmetry_space_group_name_H-M    P1
_symmetry_Int_Tables_number       1
_space_group_crystal_system       triclinic
_cell_length_a                    10.920206
_cell_length_b                    10.959293
_cell_length_c                    18.69063
_cell_angle_alpha                 90.527658
_cell_angle_beta                  89.692721
_cell_angle_gamma                 60.30164
_cell_volume                      1942.82287531

loop_
_atom_site_label
_atom_site_type_symbol
_atom_type_description
_atom_site_fract_x
_atom_site_fract_y
_atom_site_fract_z
_atom_type_partial_charge
C1    C     C_R   0.237473 0.645327 0.609136 0.527119
C2    C     C_3   0.707565 0.528703 0.799934 -0.247451
C3    C     C_3   0.696915 0.672114 0.814243 0.039150
C4    C     C_3   0.668491 0.645339 0.678197 0.054690
C5    C     C_3   0.792615 0.674889 0.689757 -0.091945
C6    C     C_3   0.692928 0.511846 0.719789 -0.200360
C7    C     C_2   0.674843 0.156658 0.670525 -0.128944
C8    C     C_2   0.689762 0.166234 0.827828 -0.120925
C9    C     C_2   0.801394 0.120946 0.783284 -0.174043
C10   C     C_2   0.782420 0.153809 0.706507 -0.180391
C11   C     C_2   0.184789 0.661740 0.682375 -0.128734
C12   C     C_R   0.652231 0.620575 0.602459 0.532339
C13   C     C_2   0.197777 0.661224 0.840062 -0.129279
C14   C     C_2   0.196886 0.559506 0.800216 -0.173708
C15   C     C_2   0.227075 0.547600 0.723327 -0.142174
C16   C     C_2   0.651258 0.639930 0.315069 -0.140878
C17   C     C_2   0.630417 0.665717 0.158035 -0.140661
C18   C     C_2   0.705341 0.543564 0.190767 -0.129446
C19   C     C_2   0.725093 0.529932 0.268537 -0.025889
C20   C     C_2   0.673757 0.137374 0.333397 -0.126871
C21   C     C_2   0.651250 0.146200 0.179309 -0.093332
C22   C     C_2   0.608505 0.075530 0.221693 -0.157353
C23   C     C_R   0.628042 0.227846 0.601957 0.533736
C24   C     C_2   0.591094 0.100699 0.298075 -0.167969
C25   C     C_2   0.106444 0.688297 0.349006 -0.034599
C26   C     C_2   0.114391 0.692287 0.190750 -0.106409
C27   C     C_2   0.034361 0.803473 0.233975 -0.124244
C28   C     C_2   0.064634 0.805086 0.309879 -0.067184
C29   C     C_R   0.703636 0.101818 0.897502 0.547143
C30   C     C_R   0.721162 0.686318 0.889744 0.538327
C31   C     C_R   0.119897 0.705869 0.907644 0.547367
C32   C     C_R   0.675379 0.105531 0.105145 0.545228
C33   C     C_R   0.690678 0.688359 0.093686 0.543894
C34   C     C_R   0.212467 0.652616 0.405346 0.563254
C35   C     C_R   0.087937 0.712845 0.115068 0.547221
C36   C     C_R   0.641010 0.617741 0.391342 0.547781
C37   C     C_R   0.621240 0.222624 0.397386 0.553846
C38   C     C_3   0.550084 0.790429 0.789563 -0.247233
C39   C     C_3   0.531592 0.772041 0.709641 -0.255368
C40   C     C_3   0.813405 0.682949 0.770826 -0.189436
Cr1   Cr    Cr6+3 0.393010 0.398050 0.501480 1.080691
Cr2   Cr    Cr6+3 0.398820 0.707980 0.501630 1.029595
Cr3   Cr    Cr6+3 0.708140 0.393940 0.496850 1.046408
Cr4   Cr    Cr6+3 0.937950 0.938450 0.008940 1.044708
Cr5   Cr    Cr6+3 0.626180 0.937030 0.994750 1.025083
Cr6   Cr    Cr6+3 0.937790 0.625760 0.001410 1.029570
H1    H     H_    0.540253 0.895574 0.798393 0.150434
H2    H     H_    0.789688 0.417015 0.700289 0.190355
H3    H     H_    0.918820 0.597679 0.787202 0.172811
H4    H     H_    0.907890 0.055256 0.802559 0.154732
H5    H     H_    0.855841 0.178828 0.680106 0.160289
H6    H     H_    0.583763 0.232954 0.808078 0.108600
H7    H     H_    0.607567 0.122712 0.696398 0.110247
H8    H     H_    0.165784 0.488001 0.823018 0.164155
H9    H     H_    0.282925 0.442440 0.700095 0.179720
H10   H     H_    0.235952 0.727469 0.817490 0.103102
H11   H     H_    0.464706 0.787470 0.820987 0.122280
H12   H     H_    0.126753 0.766948 0.705437 0.102458
H13   H     H_    0.780156 0.453550 0.158691 0.194554
H14   H     H_    0.546336 0.757682 0.184471 0.112441
H15   H     H_    0.574570 0.742733 0.296319 0.098510
H16   H     H_    0.578843 0.001835 0.199554 0.158946
H17   H     H_    0.499228 0.104504 0.323146 0.183232
H18   H     H_    0.681061 0.220494 0.199972 0.149703
H19   H     H_    0.769884 0.124645 0.309110 0.167370
H20   H     H_    0.954231 0.902249 0.211676 0.182808
H21   H     H_    0.440283 0.754255 0.703007 0.148924
H22   H     H_    0.196087 0.592101 0.210560 0.111547
H23   H     H_    0.506766 0.870127 0.680956 0.128562
H24   H     H_    0.810229 0.783998 0.783689 0.099531
H25   H     H_    0.761331 0.779741 0.666864 0.062636
H26   H     H_    0.810712 0.441490 0.818036 0.155393
H27   H     H_    0.623049 0.521447 0.829907 0.112887
H28   H     H_    0.603351 0.492142 0.710830 0.110700
O1    O     O_R   0.507110 0.256280 0.580300 -0.517463
O2    O     O_R   0.524640 0.695370 0.425100 -0.482703
O3    O     O_R   0.735890 0.504390 0.415980 -0.521714
O4    O     O_R   0.690560 0.277820 0.422350 -0.496080
O5    O     O_3   0.499990 0.499990 0.499980 -0.264805
O6    O     O_R   0.089190 0.825870 0.932320 -0.516961
O7    O     O_R   0.819070 0.053960 0.931440 -0.495118
O8    O     O_R   0.607070 0.076440 0.916460 -0.517439
O9    O     O_R   0.647110 0.806550 0.917690 -0.508743
O10   O     O_R   0.837080 0.593860 0.915300 -0.527737
O11   O     O_R   0.064770 0.636080 0.932550 -0.499541
O12   O     O_R   0.280830 0.527190 0.577940 -0.495176
O13   O     O_R   0.068250 0.829200 0.092940 -0.494287
O14   O     O_R   0.799650 0.057040 0.080330 -0.491003
O15   O     O_R   0.586130 0.079760 0.077080 -0.506742
O16   O     O_R   0.627700 0.809630 0.066580 -0.498498
O17   O     O_R   0.816140 0.597180 0.075920 -0.508305
O18   O     O_R   0.045360 0.639170 0.081440 -0.491575
O19   O     O_3   0.833980 0.833750 0.001700 -0.258999
O20   O     O_R   0.261360 0.738990 0.584270 -0.523677
O21   O     O_R   0.532590 0.694780 0.574370 -0.513087
O22   O     O_R   0.744470 0.503750 0.577000 -0.498188
O23   O     O_R   0.698520 0.277230 0.571620 -0.504562
O24   O     O_R   0.498530 0.256920 0.419280 -0.491131
O25   O     O_R   0.272880 0.527780 0.428680 -0.432866
O26   O     O_R   0.252780 0.739630 0.423250 -0.532031
C41   C     C_2   0.929096 0.571636 0.652280 0.229971
H29   H     H_    0.965107 0.605349 0.606247 0.116485
O27   O     O_2   0.998234 0.450224 0.671908 -0.521163
C42   C     C_2   0.842573 0.390305 0.290426 0.287614
H30   H     H_    0.914035 0.381348 0.332639 0.190430
O28   O     O_2   0.865127 0.283454 0.258483 -0.507458
C43   C     C_2   0.059026 0.934674 0.338597 0.263517
H31   H     H_    0.039292 0.961215 0.395148 0.117332
O29   O     O_2   0.075719 0.013361 0.299042 -0.447104
C44   C     C_2   0.054226 0.588522 0.330666 0.193707
H32   H     H_    0.970264 0.618155 0.292200 0.104427
O30   O     O_2   0.101713 0.474103 0.358868 -0.488573

loop_
_geom_bond_atom_site_label_1
_geom_bond_atom_site_label_2
_ccdc_geom_bond_type
C7    C10   D    
C41   H29   S    
C31   O11   A    
Cr5   O8    S    
C1    C11   S    
Cr5   O19   S    
C42   O28   D    
C31   O6    A    
C2    C6    S    
C25   C28   D    
Cr1   O12   S    
C26   C27   D    
C40   H24   S    
C8    C29   S    
C36   O3    A    
C33   O17   A    
C38   C39   S    
Cr1   O1    S    
C28   C43   S    
C35   O13   A    
C40   H3    S    
C32   O14   A    
C18   C19   S    
C30   O9    A    
C44   H32   S    
C37   O24   A    
C21   H18   S    
Cr4   O19   S    
C36   O2    A    
C11   C15   D    
C20   C24   D    
C3    C38   S    
C8    C9    D    
C34   O26   A    
C43   H31   S    
Cr1   O25   S    
C12   O21   A    
C6    H28   S    
C4    C12   S    
C11   H12   S    
Cr5   O15   S    
C9    C10   S    
C8    H6    S    
C25   C34   S    
Cr6   O11   S    
C35   O18   A    
Cr2   O5    S    
C41   O27   D    
C13   C14   D    
C43   O29   D    
Cr5   O9    S    
C17   C33   S    
C2    H26   S    
C10   H5    S    
C42   H30   S    
Cr3   O22   S    
C21   C32   S    
C5    C41   S    
Cr2   O21   S    
C20   H19   S    
Cr4   O6    S    
C4    C6    S    
Cr4   O7    S    
C1    O20   A    
Cr6   O17   S    
Cr3   O4    S    
C15   H9    S    
C3    C30   S    
C29   O7    A    
Cr2   O26   S    
C22   H16   S    
C38   H11   S    
C19   C42   S    
C18   H13   S    
C32   O15   A    
C14   C15   S    
C4    C39   S    
C17   C18   D    
C39   H23   S    
Cr5   O16   S    
C38   H1    S    
C2    H27   S    
C6    H2    S    
C25   C44   S    
Cr6   O10   S    
C23   O23   A    
C3    C40   S    
C24   H17   S    
C22   C24   S    
C16   H15   S    
C7    H7    S    
Cr4   O13   S    
C1    O12   A    
C14   H8    S    
Cr2   O20   S    
C39   H21   S    
C13   C31   S    
C9    H4    S    
Cr3   O23   S    
C23   O1    A    
C4    C5    S    
Cr1   O5    S    
Cr3   O3    S    
C34   O25   A    
C37   O4    A    
Cr2   O2    S    
C26   H22   S    
C13   H10   S    
C2    C3    S    
C29   O8    A    
C5    H25   S    
C27   H20   S    
Cr4   O14   S    
C33   O16   A    
C16   C36   S    
C20   C37   S    
Cr6   O19   S    
C16   C19   D    
C7    C23   S    
C30   O10   A    
C44   O30   D    
C17   H14   S    
C26   C35   S    
Cr6   O18   S    
C5    C40   S    
C27   C28   S    
Cr1   O24   S    
C12   O22   A    
C21   C22   D    
Cr3   O5    S    
