data_mof_unit_15063.cif
_audit_creation_date              2012-10-26T19:15:29-0400
_audit_creation_method            fapswitch 2.2
_symmetry_space_group_name_H-M    P1
_symmetry_Int_Tables_number       1
_space_group_crystal_system       triclinic
_cell_length_a                    15.994628
_cell_length_b                    10.885245
_cell_length_c                    9.59853
_cell_angle_alpha                 92.13539
_cell_angle_beta                  89.776542
_cell_angle_gamma                 92.227414
_cell_volume                      1668.72900841

loop_
_atom_site_label
_atom_site_type_symbol
_atom_type_description
_atom_site_fract_x
_atom_site_fract_y
_atom_site_fract_z
_atom_type_partial_charge
C1    C     C_R   0.493489 0.262427 0.497798 0.546690
C2    C     C_R   0.481080 0.928663 0.376248 -0.144817
C3    C     C_R   0.486520 0.870819 0.504664 -0.050478
C4    C     C_R   0.341397 0.499545 0.500104 0.534121
C5    C     C_R   0.469266 0.941980 0.626256 -0.013110
C6    C     C_3   0.504989 0.952706 0.773058 0.500982
C7    C     C_3   0.506834 0.092539 0.760757 0.206909
C8    C     C_R   0.571057 0.530165 0.074046 0.150978
C9    C     C_R   0.434344 0.449007 0.071748 0.335282
C10   C     C_R   0.432729 0.452566 0.922705 0.422373
C11   C     C_R   0.571166 0.529931 0.927753 0.135845
C12   C     C_R   0.043332 0.533896 0.623595 0.274132
C13   C     C_3   0.622882 0.646643 0.927518 0.151973
C14   C     C_3   0.624993 0.644413 0.087253 0.154328
C15   C     C_R   0.497907 0.737915 0.502464 0.536235
C16   C     C_R   0.658400 0.497267 0.499681 0.545259
C17   C     C_R   0.955824 0.527083 0.626465 0.301062
C18   C     C_R   0.911302 0.479781 0.508285 -0.081145
C19   C     C_R   0.954191 0.434785 0.391520 -0.099444
C20   C     C_R   0.041355 0.437025 0.388020 0.224527
C21   C     C_R   0.086876 0.488177 0.504298 -0.030625
C22   C     C_3   0.288991 0.424173 0.881138 0.040875
C23   C     C_1   0.821804 0.482840 0.502075 -0.078918
C24   C     C_3   0.233444 0.309910 0.909791 -0.267545
C25   C     C_3   0.141229 0.339767 0.919967 -0.443525
C26   C     C_3   0.746052 0.741824 0.848396 0.044431
C27   C     C_3   0.747497 0.776410 0.695256 -0.246002
C28   C     C_3   0.785174 0.905987 0.677829 -0.465139
C29   C     C_3   0.741828 0.717644 0.213249 0.017234
C30   C     C_3   0.836304 0.701242 0.218287 -0.240329
C31   C     C_3   0.879886 0.795075 0.318042 -0.483385
C32   C     C_3   0.361788 0.109694 0.234478 0.027270
C33   C     C_3   0.314146 0.983795 0.228832 -0.295148
C34   C     C_1   0.176988 0.493362 0.501597 -0.095271
C35   C     C_3   0.221497 0.997864 0.197665 -0.479505
C36   C     C_3   0.388455 0.830002 0.856301 0.001337
C37   C     C_3   0.307759 0.895242 0.825183 -0.297704
C38   C     C_3   0.234680 0.802854 0.802806 -0.464479
C39   C     C_1   0.252161 0.496826 0.500328 -0.049063
C40   C     C_1   0.747056 0.488827 0.499336 -0.005597
C41   C     C_R   0.469388 0.068495 0.620067 -0.111878
C42   C     C_R   0.478214 0.128952 0.495102 -0.023931
C43   C     C_R   0.469789 0.055331 0.371087 0.252176
Cu1   Cu    Cu3+1 0.500000 0.499980 0.640670 1.012714
Cu2   Cu    Cu3+1 0.500000 0.500020 0.359330 0.983976
H1    H     H_    0.570694 0.136658 0.756990 0.146159
H2    H     H_    0.241398 0.239194 0.824637 0.157626
H3    H     H_    0.252497 0.270077 0.008816 0.192583
H4    H     H_    0.132245 0.419355 0.993546 0.210750
H5    H     H_    0.104611 0.258862 0.957872 0.166104
H6    H     H_    0.117352 0.360937 0.815596 0.175541
H7    H     H_    0.811495 0.730670 0.881966 0.179330
H8    H     H_    0.722080 0.818490 0.915570 0.106107
H9    H     H_    0.785725 0.710653 0.634693 0.156802
H10   H     H_    0.683245 0.770031 0.651675 0.217791
H11   H     H_    0.750138 0.974530 0.740793 0.173980
H12   H     H_    0.586270 0.720352 0.884885 0.143061
H13   H     H_    0.781876 0.930144 0.566705 0.144407
H14   H     H_    0.851722 0.910628 0.710954 0.157907
H15   H     H_    0.715887 0.720828 0.321001 0.141515
H16   H     H_    0.730666 0.806655 0.163907 0.099312
H17   H     H_    0.848878 0.607326 0.251783 0.194162
H18   H     H_    0.863187 0.711164 0.112318 0.177857
H19   H     H_    0.865592 0.890130 0.290194 0.149873
H20   H     H_    0.948609 0.784677 0.312049 0.163870
H21   H     H_    0.859411 0.779140 0.426530 0.152754
H22   H     H_    0.857513 0.538494 0.746965 0.340716
H23   H     H_    0.592590 0.721292 0.142256 0.064474
H24   H     H_    0.140024 0.393009 0.277521 0.336816
H25   H     H_    0.348947 0.153548 0.134875 0.199891
H26   H     H_    0.336644 0.169275 0.320564 0.114404
H27   H     H_    0.342063 0.922927 0.147412 0.190800
H28   H     H_    0.318154 0.939384 0.330732 0.152012
H29   H     H_    0.191819 0.052297 0.283275 0.162640
H30   H     H_    0.189393 0.905611 0.188903 0.159970
H31   H     H_    0.213285 0.044974 0.098322 0.140106
H32   H     H_    0.377689 0.773585 0.949264 0.125976
H33   H     H_    0.403176 0.764352 0.770621 0.167340
H34   H     H_    0.919573 0.398148 0.301310 0.164327
H35   H     H_    0.293180 0.959848 0.913020 0.168696
H36   H     H_    0.315275 0.949294 0.729965 0.147901
H37   H     H_    0.247692 0.740482 0.711723 0.145522
H38   H     H_    0.176872 0.852304 0.781953 0.176991
H39   H     H_    0.224459 0.747805 0.896989 0.156311
H40   H     H_    0.609014 0.942225 0.870424 0.315618
H41   H     H_    0.394899 0.131717 0.832873 0.338596
H42   H     H_    0.482931 0.875987 0.278337 0.159200
H43   H     H_    0.144074 0.578764 0.732121 0.299978
H44   H     H_    0.395343 0.346823 0.215360 0.373393
H45   H     H_    0.263431 0.468981 0.789843 0.134552
H46   H     H_    0.285275 0.493067 0.969632 0.132849
N1    N     N_R   0.500520 0.500930 0.147930 -0.299984
N2    N     N_R   0.500520 0.500890 0.852020 -0.290894
O1    O     O_R   0.500000 0.319640 0.618810 -0.457799
O2    O     O_3   0.370414 0.386073 0.135997 -0.728901
O3    O     O_3   0.370891 0.386984 0.847110 -0.499433
O4    O     O_3   0.701457 0.627999 0.863364 -0.517197
O5    O     O_3   0.704665 0.616059 0.137850 -0.510908
O6    O     O_3   0.916713 0.568303 0.747158 -0.656128
O7    O     O_3   0.078443 0.389262 0.268443 -0.710392
O8    O     O_3   0.450135 0.102666 0.244419 -0.519193
O9    O     O_3   0.454594 0.916177 0.888938 -0.540071
O10   O     O_3   0.585929 0.910293 0.779691 -0.757664
O11   O     O_3   0.454107 0.153748 0.856260 -0.619088
O12   O     O_R   0.500010 0.319680 0.381230 -0.485374
O13   O     O_R   0.380300 0.499950 0.618760 -0.485429
O14   O     O_R   0.380310 0.499990 0.381180 -0.492202
O15   O     O_R   0.499990 0.680320 0.618770 -0.507352
O16   O     O_R   0.500000 0.680360 0.381190 -0.527726
O17   O     O_R   0.619690 0.500010 0.618820 -0.466469
O18   O     O_R   0.619700 0.500050 0.381240 -0.468313
O19   O     O_3   0.083001 0.585661 0.740676 -0.669733

loop_
_geom_bond_atom_site_label_1
_geom_bond_atom_site_label_2
_ccdc_geom_bond_type
C31   H21   S    
C35   H29   S    
C38   H38   S    
C41   C42   A    
C15   O16   A    
C19   C20   A    
H41   O11   S    
C25   H6    S    
C28   H11   S    
C27   H9    S    
C16   O17   A    
C35   H30   S    
C26   C27   S    
C29   C30   S    
C29   O5    S    
C36   C37   S    
C36   H32   S    
C30   C31   S    
Cu2   O16   S    
C13   H12   S    
C23   C40   T    
C36   O9    S    
C18   C19   A    
Cu2   N1    S    
C25   H5    S    
Cu1   N2    S    
C33   H27   S    
C1    O1    A    
C12   C17   A    
C22   H46   S    
C29   H15   S    
C8    N1    A    
C9    C10   A    
C9    O2    S    
H40   O10   S    
H22   O6    S    
C11   N2    A    
C7    C41   S    
C13   C14   S    
C38   H37   S    
C37   H36   S    
C9    N1    A    
C4    O14   A    
Cu2   O12   S    
C14   O5    S    
C32   H26   S    
Cu1   O15   S    
C37   H35   S    
C29   H16   S    
C35   H31   S    
C34   C39   T    
C24   H3    S    
C7    H1    S    
C24   C25   S    
C32   H25   S    
C21   C34   S    
C10   N2    A    
C4    O13   A    
C12   C21   A    
C18   C23   S    
C15   O15   A    
H44   O2    S    
C43   O8    S    
C37   C38   S    
C26   H7    S    
C20   O7    S    
C4    C39   S    
C10   O3    S    
C2    C43   A    
C17   C18   A    
C22   H45   S    
C2    H42   S    
C6    O10   S    
C19   H34   S    
C17   O6    S    
C16   C40   S    
C33   H28   S    
Cu1   O13   S    
C7    O11   S    
C30   H17   S    
C22   C24   S    
C42   C43   A    
C26   H8    S    
C12   O19   S    
C3    C15   S    
Cu1   Cu2   S    
C28   H14   S    
C31   H20   S    
C5    C41   A    
C8    C14   S    
C38   H39   S    
C24   H2    S    
C22   O3    S    
C31   H19   S    
C3    C5    A    
Cu2   O18   S    
C6    C7    S    
C28   H13   S    
C32   C33   S    
C2    C3    A    
C36   H33   S    
C11   C13   S    
C5    C6    S    
C8    C11   A    
C33   C35   S    
C27   H10   S    
C6    O9    S    
C13   O4    S    
C25   H4    S    
Cu1   O1    S    
C26   O4    S    
H43   O19   S    
H24   O7    S    
C1    C42   S    
C20   C21   A    
C27   C28   S    
C14   H23   S    
C32   O8    S    
C30   H18   S    
Cu2   O14   S    
C16   O18   A    
C1    O12   A    
Cu1   O17   S    
