data_mof_unit_21582.cif
_audit_creation_date              2012-12-10T19:09:35-0500
_audit_creation_method            fapswitch 2.2
_symmetry_space_group_name_H-M    P1
_symmetry_Int_Tables_number       1
_space_group_crystal_system       triclinic
_cell_length_a                    9.602207
_cell_length_b                    10.79285
_cell_length_c                    17.072738
_cell_angle_alpha                 88.569005
_cell_angle_beta                  94.104661
_cell_angle_gamma                 89.334804
_cell_volume                      1764.08821848

loop_
_atom_site_label
_atom_site_type_symbol
_atom_type_description
_atom_site_fract_x
_atom_site_fract_y
_atom_site_fract_z
_atom_type_partial_charge
C1    C     C_R   0.500548 0.262736 0.498816 0.822966
C2    C     C_R   0.640356 0.554944 0.779812 -0.013823
C3    C     C_R   0.604091 0.468879 0.145778 0.385012
C4    C     C_R   0.599271 0.494092 0.224821 -0.265944
C5    C     C_R   0.478943 0.440302 0.101161 0.246666
C6    C     C_R   0.475308 0.482117 0.263089 -0.144500
C7    C     C_R   0.352286 0.444642 0.220059 0.078378
C8    C     C_R   0.354677 0.424961 0.138638 0.057590
C9    C     C_R   0.608780 0.060851 0.535417 -0.092294
C10   C     C_R   0.502319 0.129550 0.493883 -0.048710
C11   C     C_R   0.402638 0.067752 0.444617 0.146037
C12   C     C_R   0.517783 0.497815 0.650964 0.882127
C13   C     C_R   0.402799 0.937769 0.445215 -0.232628
C14   C     C_R   0.499908 0.870521 0.495148 -0.026435
C15   C     C_R   0.605654 0.933119 0.536883 0.030223
C16   C     C_3   0.655235 0.920389 0.621751 0.170189
C17   C     C_3   0.661524 0.062110 0.620750 0.444173
C18   C     C_R   0.065215 0.560388 0.441356 0.005447
C19   C     C_R   0.083642 0.433580 0.554244 -0.031142
C20   C     C_R   0.936405 0.432779 0.554931 0.466858
C21   C     C_R   0.917947 0.561096 0.441612 0.058569
C22   C     C_3   0.906593 0.696324 0.418430 0.632570
C23   C     C_R   0.499326 0.737271 0.498991 0.848120
C24   C     C_3   0.065837 0.696190 0.418253 0.446203
C25   C     C_R   0.482514 0.497463 0.349046 0.824579
C26   C     C_R   0.528326 0.496025 0.737646 -0.049662
C27   C     C_R   0.424605 0.436592 0.778743 0.052742
C28   C     C_R   0.429564 0.440359 0.860263 -0.295285
C29   C     C_R   0.538127 0.501119 0.902620 0.312809
C30   C     C_R   0.644251 0.557890 0.863064 0.347864
Cu1   Cu    Cu3+1 0.640670 0.499980 0.500000 0.987376
Cu2   Cu    Cu3+1 0.359330 0.500020 0.500000 0.992997
H1    H     H_    0.695925 0.518464 0.257099 0.218414
H2    H     H_    0.326383 0.890212 0.407758 0.192166
H3    H     H_    0.757532 0.870705 0.631368 0.130305
H4    H     H_    0.146492 0.380660 0.598585 0.182341
H5    H     H_    0.346984 0.396214 0.890305 0.199218
N1    N     N_2   0.542585 0.509522 0.985548 -0.156089
N2    N     N_2   0.473557 0.428973 0.018532 -0.230752
N3    N     N_R   0.147870 0.500930 0.499500 -0.218908
N4    N     N_R   0.851960 0.500890 0.499500 -0.226492
O1    O     O_R   0.618810 0.319640 0.500000 -0.618982
O2    O     O_R   0.381230 0.319680 0.499990 -0.549491
O3    O     O_R   0.631790 0.498830 0.613930 -0.560427
O4    O     O_R   0.394210 0.498870 0.613920 -0.567014
O5    O     O_R   0.618770 0.680320 0.500010 -0.542341
O6    O     O_R   0.381190 0.680360 0.500000 -0.547424
O7    O     O_R   0.605790 0.501130 0.386080 -0.606616
O8    O     O_R   0.368210 0.501170 0.386070 -0.548356
O9    O     O_3   0.550715 0.872221 0.666721 -0.701757
H6    H     H_    0.589668 0.872628 0.722082 0.326679
N5    N     N_3   0.564052 0.121572 0.670739 -0.520668
H7    H     H_    0.600832 0.105139 0.729252 0.237964
H8    H     H_    0.568570 0.217389 0.660976 0.207678
O10   O     O_3   0.798080 0.107291 0.633421 -0.722688
H9    H     H_    0.856681 0.071026 0.593915 0.325012
O11   O     O_3   0.884055 0.365426 0.615142 -0.707066
H10   H     H_    0.789103 0.340975 0.598284 0.390742
O12   O     O_3   0.836181 0.717356 0.344181 -0.750836
H11   H     H_    0.735037 0.711878 0.351935 0.337970
O13   O     O_3   0.856789 0.771410 0.476585 -0.738962
H12   H     H_    0.862422 0.858211 0.456571 0.336366
N6    N     N_3   0.117537 0.720201 0.340674 -0.522851
H13   H     H_    0.225610 0.705715 0.345150 0.225054
H14   H     H_    0.075954 0.655978 0.300845 0.223400
O14   O     O_3   0.733136 0.470290 0.115023 -0.689178
H15   H     H_    0.731459 0.413241 0.070427 0.348224
O15   O     O_3   0.129805 0.773536 0.475209 -0.699735
H16   H     H_    0.107842 0.742694 0.528178 0.346245
O16   O     O_3   0.749128 0.614754 0.908392 -0.694216
H17   H     H_    0.821405 0.646795 0.875218 0.324640
N7    N     N_3   0.747210 0.612776 0.737526 -0.537272
H18   H     H_    0.842911 0.569138 0.754178 0.240820
H19   H     H_    0.752597 0.706333 0.751497 0.210730
N8    N     N_3   0.227048 0.423335 0.259185 -0.551521
H20   H     H_    0.146690 0.478717 0.232127 0.221002
H21   H     H_    0.199797 0.330405 0.253223 0.227017
N9    N     N_3   0.230806 0.390887 0.092581 -0.555495
H22   H     H_    0.193880 0.307895 0.115585 0.225156
H23   H     H_    0.154829 0.460141 0.096498 0.244256
N10   N     N_3   0.314920 0.369622 0.737946 -0.570235
H24   H     H_    0.320298 0.277574 0.758662 0.238925
H25   H     H_    0.219330 0.407436 0.751930 0.241171
N11   N     N_3   0.301084 0.136225 0.394825 -0.563537
H26   H     H_    0.201872 0.109235 0.409608 0.245109
H27   H     H_    0.312325 0.111101 0.336840 0.213235

loop_
_geom_bond_atom_site_label_1
_geom_bond_atom_site_label_2
_ccdc_geom_bond_type
O10   H9    S    
N6    H14   S    
N7    H19   S    
Cu1   O1    S    
C18   C21   A    
Cu2   O4    S    
C19   C20   A    
N10   H24   S    
C7    C8    A    
C26   C27   A    
C18   C24   S    
C28   C29   A    
N11   H27   S    
C19   H4    S    
C16   H3    S    
N1    N2    D    
N9    H23   S    
C6    C25   S    
C15   C16   S    
C18   N3    A    
N10   H25   S    
C1    O2    A    
O15   H16   S    
Cu1   O5    S    
C29   N1    S    
O16   H17   S    
C9    C10   A    
C17   O10   S    
O14   H15   S    
O12   H11   S    
C23   O5    A    
C13   C14   A    
C8    N9    S    
C2    N7    S    
C17   N5    S    
C30   O16   S    
N5    H8    S    
C20   N4    A    
C23   O6    A    
Cu1   O3    S    
C27   N10   S    
N11   H26   S    
C4    C6    A    
C10   C11   A    
C22   O12   S    
N9    H22   S    
N7    H18   S    
C7    N8    S    
C12   C26   S    
C14   C23   S    
N8    H20   S    
C29   C30   A    
Cu1   Cu2   S    
O9    H6    S    
C2    C26   A    
N8    H21   S    
C25   O7    A    
C21   N4    A    
C9    C17   S    
C24   N6    S    
Cu1   O7    S    
C5    N2    S    
Cu2   O6    S    
C22   C24   S    
C3    O14   S    
C3    C4    A    
N5    H7    S    
C4    H1    S    
Cu1   N4    S    
C1    C10   S    
C16   O9    S    
C12   O4    A    
C3    C5    A    
C5    C8    A    
C6    C7    A    
C11   N11   S    
C2    C30   A    
C9    C15   A    
C13   H2    S    
C12   O3    A    
C22   O13   S    
C11   C13   A    
O11   H10   S    
C16   C17   S    
C28   H5    S    
Cu2   O2    S    
Cu2   N3    S    
O13   H12   S    
C25   O8    A    
Cu2   O8    S    
C19   N3    A    
C24   O15   S    
N6    H13   S    
C1    O1    A    
C27   C28   A    
C14   C15   A    
C20   O11   S    
C21   C22   S    
