data_mof_unit_48078.cif
_audit_creation_date              2012-12-10T17:24:47-0500
_audit_creation_method            fapswitch 2.2
_symmetry_space_group_name_H-M    P1
_symmetry_Int_Tables_number       1
_space_group_crystal_system       triclinic
_cell_length_a                    23.48947
_cell_length_b                    10.834064
_cell_length_c                    9.656889
_cell_angle_alpha                 91.88744
_cell_angle_beta                  89.90097
_cell_angle_gamma                 94.683393
_cell_volume                      2448.01160051

loop_
_atom_site_label
_atom_site_type_symbol
_atom_type_description
_atom_site_fract_x
_atom_site_fract_y
_atom_site_fract_z
_atom_type_partial_charge
C1    C     C_R   0.502889 0.262913 0.498649 0.816634
C2    C     C_R   0.963389 0.280013 0.533552 -0.162251
C3    C     C_R   0.022841 0.281623 0.533838 -0.163992
C4    C     C_R   0.056759 0.393163 0.517609 -0.012478
C5    C     C_R   0.030369 0.503962 0.501442 -0.017577
C6    C     C_R   0.063976 0.616287 0.485110 -0.014504
C7    C     C_R   0.037198 0.726308 0.469300 -0.161819
C8    C     C_R   0.977740 0.724806 0.469422 -0.163923
C9    C     C_R   0.116601 0.396951 0.517174 0.528963
C10   C     C_R   0.123683 0.615397 0.484382 0.532139
C11   C     C_R   0.242316 0.570212 0.604912 -0.105659
C12   C     C_R   0.391277 0.501187 0.499914 0.771908
C13   C     C_R   0.301641 0.569385 0.604553 -0.235330
C14   C     C_R   0.329036 0.505059 0.498733 -0.035588
C15   C     C_R   0.296539 0.445005 0.390788 -0.225425
C16   C     C_R   0.237236 0.446119 0.391044 -0.098270
C17   C     C_R   0.209842 0.507916 0.498634 0.352029
C18   C     C_R   0.760551 0.486553 0.370551 0.205558
C19   C     C_R   0.700968 0.486225 0.372995 -0.237511
C20   C     C_R   0.671506 0.497135 0.498993 -0.074640
C21   C     C_R   0.702321 0.506057 0.623741 -0.240421
C22   C     C_R   0.761578 0.506114 0.622446 -0.150608
C23   C     C_R   0.494076 0.736201 0.502905 0.832787
C24   C     C_R   0.790986 0.497037 0.496837 0.376226
C25   C     C_R   0.562131 0.125587 0.719308 0.204079
C26   C     C_R   0.563380 0.073969 0.850284 -0.128223
C27   C     C_R   0.531620 0.963363 0.875618 -0.188680
C28   C     C_R   0.503368 0.896948 0.766880 -0.157391
C29   C     C_R   0.504720 0.943037 0.631235 0.017002
C30   C     C_R   0.525102 0.067738 0.614815 0.090461
C31   C     C_R   0.505747 0.128412 0.497646 -0.159209
C32   C     C_R   0.477358 0.059180 0.390355 -0.216012
C33   C     C_R   0.470242 0.930809 0.391644 0.176156
C34   C     C_R   0.608890 0.499163 0.499791 0.808759
C35   C     C_R   0.486862 0.870363 0.510915 -0.144082
C36   C     C_R   0.591195 0.650851 0.138621 0.505723
C37   C     C_R   0.638496 0.686837 0.052668 -0.310460
C38   C     C_R   0.631835 0.694273 0.913080 -0.277461
C39   C     C_R   0.581302 0.649649 0.853540 -0.107561
C40   C     C_R   0.540534 0.574996 0.925907 0.029548
C41   C     C_R   0.542355 0.576019 0.075669 0.057317
C42   C     C_R   0.464339 0.419935 0.069664 0.122931
C43   C     C_R   0.460826 0.428584 0.922413 0.531056
C44   C     C_R   0.883983 0.609228 0.484693 0.530883
C45   C     C_R   0.876932 0.390534 0.515843 0.532642
C46   C     C_R   0.936623 0.389929 0.517222 -0.017095
C47   C     C_R   0.970225 0.502385 0.501350 -0.019192
C48   C     C_R   0.943826 0.613226 0.485146 -0.015974
Cu1   Cu    Cu3+1 0.500000 0.499990 0.640660 0.954894
Cu2   Cu    Cu3+1 0.500000 0.500010 0.359340 0.965007
H1    H     H_    0.938519 0.192413 0.545982 0.190185
H2    H     H_    0.677740 0.478254 0.275799 0.165001
H3    H     H_    0.680747 0.513266 0.722422 0.175601
H4    H     H_    0.784892 0.513723 0.719410 0.144482
H5    H     H_    0.459461 0.105149 0.305638 0.157197
H6    H     H_    0.589624 0.118923 0.932462 0.138283
H7    H     H_    0.530995 0.926049 0.978329 0.149331
H8    H     H_    0.478504 0.812734 0.792824 0.168186
H9    H     H_    0.042091 0.195190 0.546500 0.187792
H10   H     H_    0.679513 0.724403 0.092038 0.142534
H11   H     H_    0.665477 0.739020 0.850943 0.176113
H12   H     H_    0.577425 0.671436 0.748249 0.212793
H13   H     H_    0.062062 0.813883 0.456665 0.190838
H14   H     H_    0.958480 0.811239 0.456855 0.187223
H15   H     H_    0.221513 0.618901 0.687915 0.145487
H16   H     H_    0.326106 0.620105 0.685894 0.138719
H17   H     H_    0.316898 0.395674 0.307535 0.142134
H18   H     H_    0.212476 0.398597 0.307962 0.143338
N1    N     N_R   0.852044 0.498976 0.499208 -0.470833
N2    N     N_R   0.148704 0.506817 0.500217 -0.469536
N3    N     N_R   0.500540 0.501210 0.147910 -0.204216
N4    N     N_R   0.500560 0.501290 0.852040 -0.244684
O1    O     O_R   0.500000 0.319640 0.618810 -0.518759
O2    O     O_2   0.843956 0.283805 0.530367 -0.533475
O3    O     O_2   0.142560 0.291906 0.534553 -0.539176
O4    O     O_2   0.156489 0.721869 0.466675 -0.535164
O5    O     O_R   0.500000 0.319660 0.381240 -0.595608
O6    O     O_R   0.417880 0.499950 0.618810 -0.553701
O7    O     O_R   0.417880 0.499980 0.381240 -0.592937
O8    O     O_R   0.500000 0.680340 0.618760 -0.634699
O9    O     O_R   0.500000 0.680360 0.381190 -0.498471
O10   O     O_R   0.582120 0.500020 0.618760 -0.617047
O11   O     O_R   0.582120 0.500050 0.381190 -0.530669
O12   O     O_2   0.857825 0.714303 0.469420 -0.537140
C49   C     C_3   0.606637 0.229562 0.691356 -0.823615
H19   H     H_    0.649450 0.201497 0.719478 0.225010
H20   H     H_    0.608796 0.251760 0.580264 0.210365
H21   H     H_    0.598169 0.312356 0.756361 0.257675
C50   C     C_3   0.441253 0.862562 0.268500 -0.807619
H22   H     H_    0.409070 0.789497 0.303877 0.231576
H23   H     H_    0.418374 0.925620 0.203858 0.212451
H24   H     H_    0.473448 0.820901 0.201249 0.245606
C51   C     C_3   0.437617 0.304254 0.132751 -0.778211
H25   H     H_    0.408886 0.245856 0.062025 0.218409
H26   H     H_    0.472877 0.246089 0.153585 0.230433
H27   H     H_    0.412832 0.324144 0.226742 0.247114
O13   O     O_3   0.590249 0.697557 0.275187 -0.536929
C52   C     C_3   0.638191 0.778966 0.317551 0.040065
H28   H     H_    0.644173 0.859222 0.248317 0.149761
H29   H     H_    0.677262 0.727742 0.319815 0.157536
C53   C     C_3   0.630132 0.832160 0.463112 -0.768497
H30   H     H_    0.615686 0.758167 0.534607 0.230953
H31   H     H_    0.671279 0.878008 0.502096 0.216796
H32   H     H_    0.598940 0.903182 0.461035 0.234547
O14   O     O_3   0.420947 0.352997 0.847091 -0.545989
C54   C     C_3   0.365726 0.392274 0.873197 0.039327
H33   H     H_    0.362939 0.488618 0.839983 0.149782
H34   H     H_    0.353988 0.390484 0.984697 0.124716
C55   C     C_3   0.321808 0.306309 0.794032 -0.710619
H35   H     H_    0.320997 0.211527 0.834812 0.236777
H36   H     H_    0.278754 0.340633 0.806386 0.209300
H37   H     H_    0.332731 0.302034 0.682235 0.255333
C56   C     C_3   0.789841 0.475788 0.232396 -0.832283
H38   H     H_    0.836852 0.475468 0.241891 0.239652
H39   H     H_    0.773579 0.388213 0.177773 0.232168
H40   H     H_    0.780456 0.555034 0.168451 0.227926

loop_
_geom_bond_atom_site_label_1
_geom_bond_atom_site_label_2
_ccdc_geom_bond_type
C43   N4    A    
C42   C51   S    
C1    O5    A    
C19   C20   A    
Cu2   O7    S    
O13   C52   S    
C7    C8    A    
C22   H4    S    
C49   H19   S    
C2    C46   A    
C5    C47   A    
C26   C27   A    
C51   H25   S    
C18   C24   A    
C28   C29   A    
C37   C38   A    
C55   H36   S    
C30   C31   A    
C54   H33   S    
C15   C16   A    
C12   O7    A    
C1    C31   S    
Cu1   O6    S    
C18   C19   A    
C43   O14   S    
C51   H26   S    
C10   O4    S    
C19   H2    S    
C31   C32   A    
C16   C17   A    
Cu1   N4    S    
C12   O6    A    
C24   N1    S    
C36   O13   S    
C16   H18   S    
C23   O8    A    
C50   H23   S    
C40   N4    A    
C32   H5    S    
C41   N3    A    
C38   H11   S    
C20   C34   S    
C17   N2    S    
C53   H31   S    
C21   C22   A    
C36   C41   A    
C18   C56   S    
Cu2   O11   S    
C13   H16   S    
C49   H20   S    
C38   C39   A    
C45   N1    A    
C53   H30   S    
C9    N2    A    
C27   H7    S    
C55   H37   S    
C39   C40   A    
C25   C26   A    
C45   C46   A    
C45   O2    S    
Cu1   O10   S    
Cu2   N3    S    
C8    C48   A    
C29   C30   A    
C33   C50   S    
C47   C48   A    
C15   H17   S    
C25   C49   S    
C44   N1    A    
C50   H24   S    
C7    H13   S    
C8    H14   S    
C10   N2    A    
C40   C41   A    
C12   C14   S    
Cu1   Cu2   S    
C53   H32   S    
C52   H29   S    
C22   C24   A    
C34   O11   A    
C3    C4    A    
Cu2   O5    S    
C56   H38   S    
C49   H21   S    
C25   C30   A    
C39   H12   S    
C46   C47   A    
C11   C17   A    
C23   O9    A    
C4    C5    A    
C44   O12   S    
C26   H6    S    
C6    C10   A    
C6    C7    A    
C28   H8    S    
C51   H27   S    
C52   C53   S    
C34   O10   A    
O14   C54   S    
C29   C35   A    
C23   C35   S    
Cu1   O8    S    
C1    O1    A    
C32   C33   A    
C56   H40   S    
C2    C3    A    
C4    C9    A    
C55   H35   S    
C21   H3    S    
C11   C13   A    
C5    C6    A    
C54   H34   S    
C42   N3    A    
C33   C35   A    
Cu1   O1    S    
C37   H10   S    
C2    H1    S    
C11   H15   S    
C20   C21   A    
C36   C37   A    
C52   H28   S    
C42   C43   A    
C27   C28   A    
C14   C15   A    
C9    O3    S    
C50   H22   S    
C13   C14   A    
C44   C48   A    
Cu2   O9    S    
C56   H39   S    
C54   C55   S    
C3    H9    S    
