data_mof_unit_14919.cif
_audit_creation_date              2012-10-26T19:57:06-0400
_audit_creation_method            fapswitch 2.2
_symmetry_space_group_name_H-M    P1
_symmetry_Int_Tables_number       1
_space_group_crystal_system       triclinic
_cell_length_a                    13.074866
_cell_length_b                    10.892172
_cell_length_c                    9.809787
_cell_angle_alpha                 91.249752
_cell_angle_beta                  96.192841
_cell_angle_gamma                 90.166159
_cell_volume                      1388.54563581

loop_
_atom_site_label
_atom_site_type_symbol
_atom_type_description
_atom_site_fract_x
_atom_site_fract_y
_atom_site_fract_z
_atom_type_partial_charge
C1    C     C_R   0.501648 0.265937 0.498231 0.567869
C2    C     C_2   0.506128 0.134037 0.491796 -0.078066
C3    C     C_2   0.454822 0.416231 0.914930 0.021627
C4    C     C_R   0.300443 0.499698 0.474287 0.558888
C5    C     C_2   0.471187 0.406534 0.070068 -0.019948
C6    C     C_R   0.491774 0.734581 0.501467 0.564752
C7    C     C_R   0.698647 0.492456 0.525659 0.567631
C8    C     C_R   0.810971 0.478042 0.540633 -0.017548
C9    C     C_R   0.186376 0.494618 0.459727 -0.042907
C10   C     C_R   0.022219 0.472039 0.317289 -0.032304
C11   C     C_R   0.130003 0.463549 0.331781 0.030418
C12   C     C_R   0.026028 0.490785 0.565974 -0.017368
C13   C     C_R   0.132215 0.516829 0.575616 0.032997
C14   C     C_1   0.595742 0.539530 0.903479 0.416285
C15   C     C_2   0.474364 0.619981 0.105593 0.767840
C16   C     C_2   0.814408 0.378937 0.769292 0.618588
C17   C     C_2   0.963510 0.453916 0.180682 0.642741
C18   C     C_2   0.033731 0.431862 0.812579 0.643721
C19   C     C_2   0.182003 0.421953 0.212590 0.619616
C20   C     C_2   0.179015 0.591377 0.695046 0.624683
C21   C     C_2   0.375830 0.876827 0.278872 0.638876
C22   C     C_2   0.476514 0.919639 0.655479 0.566917
C23   C     C_R   0.970169 0.485880 0.434887 -0.041533
C24   C     C_R   0.862954 0.490421 0.424923 -0.134950
C25   C     C_R   0.866621 0.446674 0.666002 0.029799
C26   C     C_R   0.974429 0.463563 0.682015 0.037591
C27   C     C_2   0.433014 0.934341 0.403003 -0.001238
C28   C     C_2   0.470448 0.867070 0.512352 0.015020
C29   C     C_2   0.435560 0.070325 0.409334 -0.123130
Cu1   Cu    Cu3+1 0.500020 0.500020 0.638640 1.095272
Cu2   Cu    Cu3+1 0.499980 0.499980 0.361360 1.041893
H1    H     H_    0.818873 0.500769 0.326198 0.169517
H2    H     H_    0.242714 0.467204 0.041045 0.369647
H3    H     H_    0.195182 0.758912 0.786236 0.381537
H4    H     H_    0.268986 0.752162 0.202291 0.389220
H5    H     H_    0.555373 0.932050 0.843823 0.369045
H6    H     H_    0.568069 0.090471 0.555142 0.135525
H7    H     H_    0.401330 0.352123 0.858931 0.164987
H8    H     H_    0.458880 0.317554 0.113095 0.155487
H9    H     H_    0.377982 0.119537 0.343428 0.181953
H10   H     H_    0.613496 0.686511 0.180133 0.319108
H11   H     H_    0.713207 0.246035 0.804757 0.346049
H12   H     H_    0.917869 0.630725 0.171530 0.309570
H13   H     H_    0.124307 0.308980 0.917721 0.373466
N1    N     N_2   0.498860 0.498660 0.846770 -0.256298
N2    N     N_2   0.498840 0.498630 0.152900 -0.293321
N3    N     N_1   0.676173 0.573965 0.949711 -0.211331
O1    O     O_R   0.500020 0.321960 0.617050 -0.494422
O2    O     O_R   0.546349 0.715185 0.129797 -0.630209
O3    O     O_2   0.832549 0.403949 0.891189 -0.398050
O4    O     O_R   0.744571 0.284833 0.725828 -0.683282
O5    O     O_2   0.961655 0.352737 0.124459 -0.385716
O6    O     O_R   0.908777 0.550748 0.116727 -0.583914
O7    O     O_2   0.037510 0.504343 0.909581 -0.392428
O8    O     O_R   0.086809 0.320749 0.823079 -0.647003
O9    O     O_2   0.206933 0.314338 0.201900 -0.503817
O10   O     O_R   0.204565 0.506427 0.115128 -0.615913
O11   O     O_2   0.232153 0.543059 0.788978 -0.465139
O12   O     O_R   0.499980 0.321920 0.382890 -0.512544
O13   O     O_R   0.159874 0.717389 0.700197 -0.640795
O14   O     O_2   0.381213 0.921225 0.166425 -0.438960
O15   O     O_R   0.309968 0.777376 0.292156 -0.654972
O16   O     O_2   0.407162 0.984511 0.690237 -0.470581
O17   O     O_R   0.560560 0.892292 0.750418 -0.653039
O18   O     O_R   0.349010 0.500000 0.598060 -0.474141
O19   O     O_R   0.348980 0.499950 0.363910 -0.467134
O20   O     O_R   0.500020 0.678080 0.617110 -0.458764
O21   O     O_R   0.499980 0.678040 0.382950 -0.488943
O22   O     O_R   0.651020 0.500050 0.636090 -0.488174
O23   O     O_R   0.650990 0.500000 0.401940 -0.525203
O24   O     O_2   0.390165 0.642015 0.044584 -0.425049

loop_
_geom_bond_atom_site_label_1
_geom_bond_atom_site_label_2
_ccdc_geom_bond_type
C19   O9    D    
C7    O22   A    
Cu2   O19   S    
C4    O19   A    
C23   C24   A    
C24   H1    S    
C1    O1    A    
C14   N3    T    
C10   C23   A    
C14   N1    S    
C15   O24   D    
C5    N2    D    
Cu1   N1    S    
C21   O14   D    
Cu1   O20   S    
C2    H6    S    
C16   O4    S    
H11   O4    S    
C7    O23   A    
C6    O21   A    
C22   O16   D    
C13   C20   S    
C7    C8    S    
C25   C26   A    
C22   C28   S    
C19   O10   S    
H3    O13   S    
C8    C25   A    
C9    C11   A    
C12   C23   A    
C11   C19   S    
C21   O15   S    
Cu1   Cu2   S    
C18   O8    S    
C2    C29   D    
H13   O8    S    
C29   H9    S    
Cu1   O1    S    
C6    O20   A    
C8    C24   A    
C1    O12   A    
C16   O3    D    
H4    O15   S    
C15   O2    S    
Cu2   N2    S    
C21   C27   S    
C4    O18   A    
H12   O6    S    
Cu1   O18   S    
C20   O13   S    
C10   C11   A    
C18   O7    D    
C10   C17   S    
C22   O17   S    
C17   O6    S    
C16   C25   S    
Cu1   O22   S    
C27   C29   S    
C17   O5    D    
C1    C2    S    
H10   O2    S    
C27   C28   D    
C5    H8    S    
C9    C13   A    
H2    O10   S    
C15   N2    S    
C12   C13   A    
C4    C9    S    
H5    O17   S    
C20   O11   D    
Cu2   O21   S    
C3    N1    D    
Cu2   O23   S    
C6    C28   S    
C3    H7    S    
C12   C26   A    
C3    C5    S    
Cu2   O12   S    
C18   C26   S    
