data_mof_unit_35521.cif
_audit_creation_date              2012-12-10T17:44:35-0500
_audit_creation_method            fapswitch 2.2
_symmetry_space_group_name_H-M    P1
_symmetry_Int_Tables_number       1
_space_group_crystal_system       triclinic
_cell_length_a                    10.034436
_cell_length_b                    10.576888
_cell_length_c                    15.508571
_cell_angle_alpha                 94.906609
_cell_angle_beta                  67.002345
_cell_angle_gamma                 88.796292
_cell_volume                      1506.93970191

loop_
_atom_site_label
_atom_site_type_symbol
_atom_type_description
_atom_site_fract_x
_atom_site_fract_y
_atom_site_fract_z
_atom_type_partial_charge
C1    C     C_R   0.502162 0.740366 0.493338 0.927900
C2    C     C_R   0.732608 0.432863 0.027484 -0.179207
C3    C     C_R   0.603653 0.508421 0.081296 0.023487
C4    C     C_R   0.408088 0.495016 0.675942 1.002467
C5    C     C_R   0.823809 0.391749 0.070314 -0.081014
C6    C     C_R   0.784275 0.418938 0.166916 0.653036
C7    C     C_R   0.566072 0.533788 0.178295 -0.172114
C8    C     C_R   0.253660 0.909159 0.481703 -0.170438
C9    C     C_R   0.157577 0.985944 0.460444 0.383963
C10   C     C_R   0.210804 0.081819 0.401585 -0.204611
C11   C     C_R   0.351922 0.116833 0.382219 0.425364
C12   C     C_R   0.432337 0.516847 0.906778 -0.010188
C13   C     C_R   0.429541 0.063556 0.429405 -0.027108
C14   C     C_R   0.397520 0.944349 0.461448 -0.034122
C15   C     C_R   0.513516 0.871372 0.469271 -0.185224
C16   C     C_R   0.512788 0.260973 0.481960 0.935325
C17   C     C_R   0.651498 0.924277 0.441626 0.419592
C18   C     C_R   0.657787 0.055224 0.443922 -0.144360
C19   C     C_R   0.536995 0.126476 0.448188 -0.155566
C20   C     C_R   0.769915 0.661504 0.630800 -0.009480
C21   C     C_R   0.782344 0.734887 0.703982 -0.219311
C22   C     C_R   0.913390 0.738069 0.711031 -0.039300
C23   C     C_R   0.302623 0.592655 0.961695 -0.068219
C24   C     C_R   0.036714 0.670078 0.643839 0.452720
C25   C     C_R   0.027158 0.580560 0.569205 -0.037967
C26   C     C_R   0.883911 0.579074 0.566574 0.163490
C27   C     C_R   0.970380 0.430321 0.433435 -0.144810
C28   C     C_R   0.592183 0.497340 0.324053 0.908857
C29   C     C_R   0.112543 0.433415 0.431919 0.665410
C30   C     C_R   0.349556 0.494923 0.779280 -0.324012
C31   C     C_R   0.652419 0.486942 0.221367 -0.155350
C32   C     C_R   0.189235 0.601545 0.929790 0.311880
C33   C     C_R   0.212388 0.549507 0.838811 0.371651
C34   C     C_R   0.541164 0.501157 0.943364 -0.133104
C35   C     C_R   0.443582 0.455625 0.819392 0.364094
C36   C     C_R   0.509834 0.546777 0.038375 0.028846
C37   C     C_R   0.386224 0.629896 0.087231 -0.109505
C38   C     C_R   0.285299 0.652489 0.049423 -0.057393
C39   C     C_R   0.681184 0.444177 0.888653 0.601209
C40   C     C_R   0.769100 0.400515 0.931645 0.639534
Cl1   Cl    Cl    0.817263 0.832068 0.388504 -0.510554
Cl2   Cl    Cl    0.971938 0.963594 0.510416 -0.551328
Cl3   Cl    Cl    0.446276 0.200277 0.284863 -0.512941
Cl4   Cl    Cl    0.182903 0.728110 0.667310 -0.598654
Cl5   Cl    Cl    0.017235 0.675971 0.002695 -0.537334
Cl6   Cl    Cl    0.063236 0.529685 0.808020 -0.445075
Cl7   Cl    Cl    0.531500 0.302784 0.773819 -0.453960
F1    F     F_    0.221366 0.375111 0.356298 -0.620416
F2    F     F_    0.869982 0.371913 0.207531 -0.640481
F3    F     F_    0.889257 0.324273 0.879363 -0.568923
F4    F     F_    0.740078 0.440916 0.793398 -0.579996
H1    H     H_    0.191504 0.715312 0.091201 0.211994
H2    H     H_    0.919141 0.801286 0.768288 0.217458
H3    H     H_    0.364744 0.681043 0.154861 0.145343
H4    H     H_    0.924210 0.336178 0.029565 0.221382
H5    H     H_    0.209329 0.827872 0.515988 0.225514
H6    H     H_    0.143325 0.129031 0.372617 0.214321
H7    H     H_    0.756027 0.099939 0.439610 0.216889
H8    H     H_    0.952351 0.373583 0.377962 0.204949
H9    H     H_    0.667956 0.674604 0.626593 0.196252
H10   H     H_    0.690404 0.793861 0.753837 0.185151
H11   H     H_    0.464712 0.583147 0.223711 0.173968
N1    N     N_R   0.856800 0.501200 0.500850 -0.133218
N2    N     N_R   0.142390 0.501280 0.500880 -0.154761
O1    O     O_R   0.385310 0.683220 0.500000 -0.607576
O2    O     O_R   0.614640 0.683250 0.500010 -0.601218
O3    O     O_R   0.319840 0.499980 0.632240 -0.519702
O4    O     O_R   0.549160 0.500000 0.632250 -0.614102
O5    O     O_R   0.385360 0.316750 0.499990 -0.580975
O6    O     O_R   0.614690 0.316780 0.500000 -0.599921
O7    O     O_R   0.450840 0.500000 0.367750 -0.562994
O8    O     O_R   0.680160 0.500020 0.367760 -0.563057
Zn1   Zn    Zn3+2 0.346880 0.499980 0.499990 1.077415
Zn2   Zn    Zn3+2 0.653120 0.500020 0.500010 1.050127

loop_
_geom_bond_atom_site_label_1
_geom_bond_atom_site_label_2
_ccdc_geom_bond_type
C39   F4    S    
C27   C29   A    
C32   Cl5   S    
C35   Cl7   S    
C8    H5    S    
C12   C23   A    
C9    Cl2   S    
C30   C35   A    
C36   C37   A    
C3    C7    A    
C5    C6    A    
C38   H1    S    
O4    Zn2   S    
O2    Zn2   S    
O1    Zn1   S    
C18   C19   A    
C18   H7    S    
C8    C9    A    
O6    Zn2   S    
C1    O1    A    
N2    Zn1   S    
C11   Cl3   S    
O3    Zn1   S    
C20   H9    S    
C9    C10   A    
C21   H10   S    
C6    C31   A    
C29   N2    A    
C13   C14   A    
C33   Cl6   S    
C28   O8    A    
C1    O2    A    
C22   H2    S    
C7    C31   A    
C13   C19   A    
C29   F1    S    
C34   C39   A    
C10   H6    S    
C16   O6    A    
C24   C25   A    
O8    Zn2   S    
C39   C40   A    
C4    O4    A    
C25   C26   A    
C25   N2    A    
C26   N1    A    
C7    H11   S    
C37   C38   A    
C17   C18   A    
C12   C35   A    
O5    Zn1   S    
C27   N1    A    
C1    C15   S    
C37   H3    S    
C24   Cl4   S    
C22   C24   A    
C28   O7    A    
C12   C34   A    
O7    Zn1   S    
C15   C17   A    
C8    C14   A    
C30   C33   A    
C5    H4    S    
C28   C31   S    
C16   O5    A    
C4    O3    A    
N1    Zn2   S    
C23   C38   A    
C23   C32   A    
C2    C3    A    
C27   H8    S    
C32   C33   A    
C11   C13   A    
C20   C26   A    
C3    C36   A    
C16   C19   S    
C40   F3    S    
C34   C36   A    
C6    F2    S    
C17   Cl1   S    
C10   C11   A    
C2    C5    A    
C2    C40   A    
C20   C21   A    
C14   C15   A    
C21   C22   A    
C4    C30   S    
