data_mof_unit_54315.cif
_audit_creation_date              2012-12-10T18:48:23-0500
_audit_creation_method            fapswitch 2.2
_symmetry_space_group_name_H-M    P1
_symmetry_Int_Tables_number       1
_space_group_crystal_system       triclinic
_cell_length_a                    10.813278
_cell_length_b                    10.118358
_cell_length_c                    11.459477
_cell_angle_alpha                 90.030183
_cell_angle_beta                  97.171852
_cell_angle_gamma                 90.524927
_cell_volume                      1243.94778086

loop_
_atom_site_label
_atom_site_type_symbol
_atom_type_description
_atom_site_fract_x
_atom_site_fract_y
_atom_site_fract_z
_atom_type_partial_charge
C1    C     C_R   0.261452 0.499229 0.507033 0.877612
C2    C     C_R   0.937328 0.622139 0.490575 -0.063373
C3    C     C_R   0.931970 0.380437 0.471341 -0.072609
C4    C     C_R   0.065333 0.619254 0.518263 -0.059982
C5    C     C_R   0.869785 0.501698 0.479002 -0.152979
C6    C     C_R   0.128098 0.497774 0.512683 -0.145459
C7    C     C_R   0.563992 0.070909 0.593664 0.236753
C8    C     C_R   0.427059 0.926047 0.412519 0.280949
C9    C     C_R   0.435732 0.069671 0.406438 0.255351
C10   C     C_R   0.572765 0.927542 0.587565 0.283380
C11   C     C_1   0.118502 0.248126 0.514038 0.248783
C12   C     C_R   0.737829 0.500576 0.490800 0.877061
C13   C     C_1   0.878873 0.750040 0.466671 0.323895
C14   C     C_1   0.866661 0.259115 0.430411 0.239705
C15   C     C_1   0.128998 0.741359 0.559348 0.299407
C16   C     C_R   0.500119 0.500081 0.282726 0.923591
C17   C     C_R   0.499888 0.500141 0.717269 0.926328
C18   C     C_1   0.500138 0.500444 0.162015 -0.061556
C19   C     C_1   0.499923 0.500612 0.837990 -0.059531
C20   C     C_1   0.500082 0.500708 0.059467 0.078085
C21   C     C_1   0.500010 0.500798 0.940542 0.078889
C22   C     C_R   0.060296 0.377184 0.497201 -0.066725
H1    H     H_    0.787936 0.252591 0.687177 0.357646
H2    H     H_    0.224022 0.666479 0.229585 0.371040
H3    H     H_    0.206206 0.252451 0.292992 0.359098
H4    H     H_    0.777326 0.672411 0.768484 0.371681
N1    N     N_R   0.500000 0.857200 0.500000 -0.227184
N2    N     N_R   0.500000 0.142800 0.500000 -0.207900
N3    N     N_1   0.164114 0.145312 0.527596 -0.144678
N4    N     N_1   0.833070 0.851862 0.446918 -0.140676
N5    N     N_1   0.815005 0.162785 0.397711 -0.136644
N6    N     N_1   0.179230 0.838375 0.592305 -0.139537
O1    O     O_R   0.316770 0.614620 0.499990 -0.562521
O2    O     O_2   0.703355 0.083964 0.825991 -0.157006
O3    O     O_3   0.707859 0.288345 0.706384 -0.526273
O4    O     O_2   0.199461 0.913089 0.291091 -0.275432
O5    O     O_2   0.378829 0.853808 0.186889 -0.226254
O6    O     O_3   0.279696 0.682861 0.303784 -0.525455
O7    O     O_2   0.490287 0.189909 0.210854 -0.242197
O8    O     O_2   0.295223 0.080065 0.174752 -0.166293
O9    O     O_3   0.292762 0.285680 0.293730 -0.533767
O10   O     O_2   0.799889 0.919380 0.710391 -0.279729
O11   O     O_2   0.620013 0.855290 0.813129 -0.224994
O12   O     O_R   0.683230 0.385380 0.500010 -0.600708
O13   O     O_3   0.720167 0.687553 0.695269 -0.526828
O14   O     O_R   0.683230 0.614620 0.500010 -0.565527
O15   O     O_R   0.316770 0.385380 0.499990 -0.593951
O16   O     O_R   0.500020 0.614670 0.334450 -0.565619
O17   O     O_R   0.499980 0.385330 0.665550 -0.517596
O18   O     O_R   0.499980 0.614670 0.665550 -0.564526
O19   O     O_R   0.500020 0.385330 0.334450 -0.517216
O20   O     O_2   0.508914 0.190855 0.788802 -0.242237
S1    S     S_3+6 0.621756 0.154921 0.731515 0.137366
S2    S     S_3+6 0.321724 0.841675 0.299656 0.112742
S3    S     S_3+6 0.377599 0.152720 0.268739 0.136119
S4    S     S_3+6 0.677746 0.845259 0.700637 0.109694
Zn1   Zn    Zn3+2 0.500000 0.653120 0.500000 1.101569
Zn2   Zn    Zn3+2 0.500000 0.346880 0.500000 1.106219

loop_
_geom_bond_atom_site_label_1
_geom_bond_atom_site_label_2
_ccdc_geom_bond_type
C10   N1    A    
C17   O18   A    
C7    C10   A    
C2    C4    A    
C9    S3    S    
N2    Zn2   S    
O3    S1    S    
C10   S4    S    
O11   S4    D    
C11   C22   S    
H2    O6    S    
O6    S2    S    
C16   O19   A    
C14   N5    T    
O8    S3    D    
O10   S4    D    
C16   O16   A    
C4    C15   S    
C9    N2    A    
C1    O1    A    
C15   N6    T    
C12   O12   A    
O19   Zn2   S    
O20   S1    D    
O15   Zn2   S    
C3    C14   S    
O2    S1    D    
O5    S2    D    
C16   C18   S    
C19   C21   T    
C7    N2    A    
C18   C20   T    
O14   Zn1   S    
C1    O15   A    
H1    O3    S    
C17   O17   A    
C2    C5    A    
O4    S2    D    
C7    S1    S    
C8    S2    S    
C1    C6    S    
C6    C22   A    
C13   N4    T    
O16   Zn1   S    
C20   C21   S    
C11   N3    T    
C5    C12   S    
C4    C6    A    
N1    Zn1   S    
H3    O9    S    
C8    N1    A    
C2    C13   S    
O9    S3    S    
C3    C22   A    
O1    Zn1   S    
H4    O13   S    
C17   C19   S    
O18   Zn1   S    
O7    S3    D    
O17   Zn2   S    
O13   S4    S    
O12   Zn2   S    
C8    C9    A    
C3    C5    A    
C12   O14   A    
