data_mof_unit_53076.cif
_audit_creation_date              2012-12-10T16:48:44-0500
_audit_creation_method            fapswitch 2.2
_symmetry_space_group_name_H-M    P1
_symmetry_Int_Tables_number       1
_space_group_crystal_system       triclinic
_cell_length_a                    17.349301
_cell_length_b                    8.799512
_cell_length_c                    7.704924
_cell_angle_alpha                 104.066305
_cell_angle_beta                  94.020132
_cell_angle_gamma                 103.631862
_cell_volume                      1098.69163726

loop_
_atom_site_label
_atom_site_type_symbol
_atom_type_description
_atom_site_fract_x
_atom_site_fract_y
_atom_site_fract_z
_atom_type_partial_charge
C1    C     C_R   0.497470 0.199243 0.452042 0.832762
C2    C     C_R   0.502542 0.800765 0.547950 0.828815
C3    C     C_2   0.496457 0.029925 0.427721 -0.337821
C4    C     C_2   0.503532 0.970053 0.572245 -0.334986
C5    C     C_R   0.351732 0.504652 0.519701 0.758991
C6    C     C_R   0.648691 0.497405 0.480879 0.758587
C7    C     C_R   0.270168 0.523152 0.526819 -0.039632
C8    C     C_R   0.732289 0.489520 0.478124 -0.043899
C9    C     C_R   0.234168 0.579334 0.394833 -0.241839
C10   C     C_R   0.781162 0.512805 0.640385 -0.247614
C11   C     C_R   0.158129 0.608187 0.406132 -0.005562
C12   C     C_R   0.859888 0.498629 0.640536 0.022318
C13   C     C_R   0.117662 0.574508 0.551514 0.037550
C14   C     C_R   0.890754 0.465821 0.473682 0.083357
C15   C     C_R   0.154205 0.519614 0.683177 -0.119963
C16   C     C_R   0.841173 0.439433 0.312025 -0.152659
C17   C     C_R   0.230031 0.495130 0.671895 -0.182764
C18   C     C_R   0.762786 0.451924 0.313868 -0.165735
C19   C     C_2   0.035082 0.583133 0.564882 -0.073004
C20   C     C_2   0.974786 0.464330 0.460902 -0.120238
Cu1   Cu    Cu3+1 0.508700 0.517250 0.683000 0.913241
Cu2   Cu    Cu3+1 0.491300 0.482750 0.317000 0.911885
H1    H     H_    0.266683 0.605496 0.285917 0.194173
H2    H     H_    0.757327 0.537940 0.767595 0.187487
H3    H     H_    0.726101 0.431498 0.186501 0.169951
H4    H     H_    0.256878 0.452561 0.775781 0.169158
H5    H     H_    0.987671 0.370204 0.355287 0.140749
H6    H     H_    0.023967 0.681640 0.667374 0.158246
H7    H     H_    0.123092 0.492445 0.793422 0.205310
H8    H     H_    0.863778 0.411573 0.183711 0.173250
H9    H     H_    0.489969 0.954377 0.290381 0.188705
H10   H     H_    0.510016 0.045590 0.709586 0.189025
N1    N     N_2   0.478180 0.456750 0.041980 -0.145313
N2    N     N_2   0.521820 0.543250 0.958020 -0.145615
O1    O     O_R   0.505650 0.286040 0.618880 -0.591104
O2    O     O_R   0.494350 0.713960 0.381120 -0.593481
O3    O     O_R   0.490960 0.256910 0.309800 -0.603584
O4    O     O_R   0.509040 0.743090 0.690200 -0.602572
O5    O     O_R   0.394600 0.516230 0.672450 -0.597667
O6    O     O_R   0.605400 0.483770 0.327550 -0.601390
O7    O     O_R   0.379910 0.487100 0.363380 -0.614270
O8    O     O_R   0.620090 0.512900 0.636620 -0.614996
C21   C     C_2   0.905985 0.510258 0.815276 0.785253
O9    O     O_2   0.896268 0.602152 0.954154 -0.607935
O10   O     O_R   0.958698 0.413111 0.822528 -0.771571
H11   H     H_    0.985877 0.431563 0.949536 0.333680
C22   C     C_2   0.124317 0.677056 0.268390 0.795603
O11   O     O_2   0.156223 0.683049 0.132705 -0.641857
O12   O     O_R   0.057624 0.739210 0.294343 -0.746675
H12   H     H_    0.041499 0.783485 0.191530 0.358071
C23   C     C_R   0.408338 0.309187 0.956184 0.322142
C24   C     C_R   0.364589 0.219225 0.066964 -0.135766
C25   C     C_R   0.304129 0.074271 0.004044 -0.208732
C26   C     C_R   0.279718 0.008138 0.822314 -0.046020
C27   C     C_R   0.314367 0.090474 0.705429 -0.234450
C28   C     C_R   0.374742 0.236002 0.770190 -0.159202
H13   H     H_    0.372278 0.249368 0.207373 0.191144
H14   H     H_    0.275789 0.013360 0.098601 0.162865
H15   H     H_    0.233006 0.896123 0.772722 0.160229
H16   H     H_    0.293679 0.041925 0.561839 0.141251
H17   H     H_    0.387116 0.275261 0.657848 0.190809
C29   C     C_R   0.592849 0.688483 0.043310 0.317692
C30   C     C_R   0.637316 0.776948 0.932145 -0.132360
C31   C     C_R   0.701814 0.915034 0.994086 -0.214474
C32   C     C_R   0.728768 0.977047 0.175211 -0.048628
C33   C     C_R   0.691498 0.899052 0.292718 -0.210123
C34   C     C_R   0.627083 0.760362 0.229103 -0.145378
H18   H     H_    0.627395 0.750855 0.792135 0.190504
H19   H     H_    0.731141 0.974115 0.899225 0.139087
H20   H     H_    0.778722 0.083531 0.224038 0.143388
H21   H     H_    0.713109 0.945876 0.436030 0.135030
H22   H     H_    0.612427 0.725003 0.342374 0.188566

loop_
_geom_bond_atom_site_label_1
_geom_bond_atom_site_label_2
_ccdc_geom_bond_type
C28   H17   S    
C32   H20   S    
C7    C17   A    
C2    C4    S    
C25   H14   S    
C5    C7    S    
C25   C26   A    
C29   C30   A    
Cu1   O1    S    
C20   H5    S    
C14   C20   S    
N1    C23   S    
Cu2   O2    S    
C2    O4    A    
C11   C22   S    
C33   H21   S    
Cu1   O5    S    
C1    O3    A    
C21   O9    D    
Cu2   O6    S    
C31   C32   A    
C27   C28   A    
C13   C15   A    
N1    N2    D    
C3    C4    D    
C23   C24   A    
C22   O12   S    
C31   H19   S    
C3    H9    S    
C19   H6    S    
C9    C11   A    
C4    H10   S    
C18   H3    S    
C10   C12   A    
C29   C34   A    
C17   H4    S    
C16   C18   A    
C12   C14   A    
Cu1   Cu2   S    
C15   H7    S    
C12   C21   S    
C14   C16   A    
C26   H15   S    
C5    O5    A    
O12   H12   S    
C6    O6    A    
C11   C13   A    
C24   H13   S    
C13   C19   S    
C16   H8    S    
C30   C31   A    
Cu2   O7    S    
C22   O11   D    
O10   H11   S    
N2    C29   S    
C34   H22   S    
C33   C34   A    
C24   C25   A    
C1    O1    A    
C8    C10   A    
C32   C33   A    
C6    O8    A    
C2    O2    A    
C15   C17   A    
Cu2   N1    S    
C5    O7    A    
C26   C27   A    
C9    H1    S    
C6    C8    S    
Cu1   N2    S    
C10   H2    S    
C30   H18   S    
C27   H16   S    
Cu2   O3    S    
C21   O10   S    
Cu1   O8    S    
C8    C18   A    
Cu1   O4    S    
C19   C20   D    
C1    C3    S    
C7    C9    A    
C23   C28   A    
