data_mof_unit_60834.cif
_audit_creation_date              2012-12-10T17:06:00-0500
_audit_creation_method            fapswitch 2.2
_symmetry_space_group_name_H-M    P1
_symmetry_Int_Tables_number       1
_space_group_crystal_system       triclinic
_cell_length_a                    23.501874
_cell_length_b                    30.337209
_cell_length_c                    19.439334
_cell_angle_alpha                 89.974739
_cell_angle_beta                  127.253185
_cell_angle_gamma                 89.979385
_cell_volume                      11032.0221044

loop_
_atom_site_label
_atom_site_type_symbol
_atom_type_description
_atom_site_fract_x
_atom_site_fract_y
_atom_site_fract_z
_atom_type_partial_charge
C1    C     C_R   0.690286 0.810355 0.880803 0.946038
C2    C     C_R   0.309624 0.189874 0.119684 0.952597
C3    C     C_R   0.309764 0.810364 0.119216 0.946663
C4    C     C_R   0.690345 0.189865 0.880299 0.952982
C5    C     C_R   0.190301 0.310346 0.880841 0.950181
C6    C     C_R   0.809917 0.689740 0.119712 0.943717
C7    C     C_R   0.809706 0.310363 0.119186 0.947691
C8    C     C_R   0.191224 0.689620 0.880787 0.952997
C9    C     C_R   0.691459 0.853405 0.774140 -0.051305
C10   C     C_R   0.296481 0.133036 0.200219 -0.053642
C11   C     C_R   0.308623 0.853398 0.225935 -0.051269
C12   C     C_R   0.703593 0.132840 0.800113 -0.053393
C13   C     C_R   0.191350 0.353186 0.773941 -0.059069
C14   C     C_R   0.798672 0.635566 0.206211 -0.050063
C15   C     C_R   0.808499 0.353436 0.225802 -0.054276
C16   C     C_R   0.183290 0.652712 0.762104 -0.052429
C17   C     C_R   0.661300 0.844201 0.816801 -0.049146
C18   C     C_R   0.339457 0.156605 0.184937 -0.052527
C19   C     C_R   0.338738 0.844208 0.183212 -0.049957
C20   C     C_R   0.660530 0.156603 0.815046 -0.053163
C21   C     C_R   0.161461 0.344210 0.816988 -0.050797
C22   C     C_R   0.839779 0.655912 0.184418 -0.050888
C23   C     C_R   0.838580 0.344244 0.183043 -0.050184
C24   C     C_R   0.163013 0.655724 0.816849 -0.054765
C25   C     C_R   0.597102 0.862997 0.790532 -0.225297
C26   C     C_R   0.410559 0.145425 0.225753 -0.232437
C27   C     C_R   0.402831 0.863074 0.209334 -0.224533
C28   C     C_R   0.589264 0.145695 0.773701 -0.232180
C29   C     C_R   0.097796 0.363470 0.791581 -0.229717
C30   C     C_R   0.906335 0.639391 0.214221 -0.216000
C31   C     C_R   0.902372 0.363365 0.208667 -0.225894
C32   C     C_R   0.108456 0.629829 0.803872 -0.229911
C33   C     C_R   0.562398 0.891955 0.722081 -0.137625
C34   C     C_R   0.440692 0.111266 0.284304 -0.171929
C35   C     C_R   0.437474 0.892055 0.277691 -0.137178
C36   C     C_R   0.559107 0.111593 0.715093 -0.171939
C37   C     C_R   0.063320 0.392656 0.723531 -0.148574
C38   C     C_R   0.935106 0.604157 0.270540 -0.140503
C39   C     C_R   0.936824 0.392537 0.276692 -0.144051
C40   C     C_R   0.072871 0.600675 0.735752 -0.176964
C41   C     C_R   0.588385 0.899558 0.674537 -0.057097
C42   C     C_R   0.398622 0.085860 0.298030 -0.088492
C43   C     C_R   0.411560 0.899629 0.325323 -0.057465
C44   C     C_R   0.601255 0.085965 0.701781 -0.088400
C45   C     C_R   0.088990 0.400062 0.675596 -0.069219
C46   C     C_R   0.895835 0.583399 0.293899 -0.088155
C47   C     C_R   0.911066 0.400027 0.324507 -0.056279
C48   C     C_R   0.088172 0.599314 0.676484 -0.079550
C49   C     C_R   0.057607 0.563042 0.615176 0.920014
C50   C     C_R   0.942166 0.436851 0.384903 0.921748
C51   C     C_R   0.935159 0.555239 0.370874 0.931087
C52   C     C_R   0.057997 0.436965 0.615370 0.915643
C53   C     C_R   0.563663 0.056721 0.627051 0.913460
C54   C     C_R   0.442544 0.936562 0.385603 0.927667
C55   C     C_R   0.436289 0.056666 0.372870 0.913472
C56   C     C_R   0.557417 0.936524 0.614298 0.928386
C57   C     C_R   0.640141 0.750488 0.998954 0.973425
C58   C     C_R   0.359969 0.249367 0.001275 0.978364
C59   C     C_R   0.360053 0.750670 0.001421 0.981337
C60   C     C_R   0.640040 0.249405 0.998773 0.977564
C61   C     C_R   0.139964 0.250685 0.998586 0.981092
C62   C     C_R   0.859929 0.749409 0.001194 0.975237
C63   C     C_R   0.860054 0.250677 0.001424 0.981726
C64   C     C_R   0.140055 0.749421 0.998803 0.978896
C65   C     C_1   0.580022 0.750420 0.999166 -0.122175
C66   C     C_1   0.420094 0.249420 0.001068 -0.122704
C67   C     C_1   0.420233 0.750600 0.001318 -0.115312
C68   C     C_1   0.579899 0.249462 0.998948 -0.123373
C69   C     C_1   0.079831 0.250621 0.998785 -0.118056
C70   C     C_1   0.920056 0.749465 0.000991 -0.122104
C71   C     C_1   0.920206 0.250607 0.001262 -0.118273
C72   C     C_1   0.079914 0.749485 0.998978 -0.123363
C73   C     C_1   0.529546 0.750414 0.999807 0.012967
C74   C     C_1   0.470582 0.249485 0.000449 0.010008
C75   C     C_1   0.470735 0.750495 0.000725 0.014654
C76   C     C_1   0.529404 0.249504 0.999553 0.010039
C77   C     C_1   0.029393 0.250555 0.999502 0.012456
C78   C     C_1   0.970559 0.749526 0.000403 0.010985
C79   C     C_1   0.970654 0.250549 0.000563 0.012483
C80   C     C_1   0.029405 0.749536 0.999555 0.010849
C81   C     C_R   0.761526 0.840045 0.807346 0.608065
C82   C     C_R   0.227157 0.147209 0.168706 0.600832
C83   C     C_R   0.238633 0.839985 0.192873 0.608130
C84   C     C_R   0.773120 0.146757 0.832091 0.601091
C85   C     C_R   0.260980 0.339249 0.806311 0.601863
C86   C     C_R   0.733389 0.653513 0.182527 0.599874
C87   C     C_R   0.738667 0.339831 0.193061 0.607525
C88   C     C_R   0.245379 0.673391 0.781237 0.607907
C89   C     C_R   0.785782 0.844728 0.757865 -0.221820
C90   C     C_R   0.183223 0.120067 0.175801 -0.232954
C91   C     C_R   0.214410 0.844672 0.242384 -0.221984
C92   C     C_R   0.817059 0.119458 0.825237 -0.232879
C93   C     C_R   0.284721 0.343596 0.756230 -0.229931
C94   C     C_R   0.689782 0.629301 0.194615 -0.229599
C95   C     C_R   0.714597 0.344503 0.242742 -0.222023
C96   C     C_R   0.258210 0.674307 0.720111 -0.230559
C97   C     C_R   0.739407 0.859529 0.673240 -0.247206
C98   C     C_R   0.205321 0.077618 0.208002 -0.254127
C99   C     C_R   0.260759 0.859514 0.326926 -0.247897
C100  C     C_R   0.794758 0.077086 0.792856 -0.253942
C101  C     C_R   0.238179 0.358648 0.671809 -0.261236
C102  C     C_R   0.707796 0.586205 0.224446 -0.252391
C103  C     C_R   0.761008 0.359475 0.327188 -0.247958
C104  C     C_R   0.207199 0.657901 0.637728 -0.253047
C105  C     C_R   0.670498 0.873463 0.640011 0.198234
C106  C     C_R   0.273951 0.063447 0.240509 0.183442
C107  C     C_R   0.329601 0.873479 0.360036 0.198475
C108  C     C_R   0.725959 0.063151 0.759957 0.183117
C109  C     C_R   0.169737 0.373180 0.639460 0.195411
C110  C     C_R   0.772644 0.568307 0.249778 0.184172
C111  C     C_R   0.829704 0.373601 0.359972 0.202463
C112  C     C_R   0.146231 0.636919 0.618521 0.176043
C113  C     C_R   0.649371 0.876071 0.694703 0.000969
C114  C     C_R   0.323639 0.093484 0.247732 -0.015651
C115  C     C_R   0.350665 0.876106 0.305280 0.001612
C116  C     C_R   0.676309 0.093364 0.752455 -0.015517
C117  C     C_R   0.149371 0.376167 0.694891 -0.012662
C118  C     C_R   0.823001 0.595146 0.251435 -0.013227
C119  C     C_R   0.850455 0.376335 0.304903 -0.000131
C120  C     C_R   0.139007 0.628772 0.684692 -0.013898
H1    H     H_    0.574483 0.855715 0.824068 0.136370
H2    H     H_    0.443149 0.163857 0.213540 0.136641
H3    H     H_    0.425419 0.855827 0.175754 0.136815
H4    H     H_    0.556577 0.164286 0.785575 0.136850
H5    H     H_    0.075433 0.356367 0.825475 0.136758
H6    H     H_    0.936845 0.654598 0.195488 0.134217
H7    H     H_    0.924863 0.356165 0.174959 0.136468
H8    H     H_    0.093628 0.632145 0.846822 0.141098
H9    H     H_    0.839336 0.834344 0.783473 0.183293
H10   H     H_    0.130141 0.130988 0.151223 0.183277
H11   H     H_    0.160915 0.834249 0.216881 0.183211
H12   H     H_    0.870288 0.130186 0.850158 0.183286
H13   H     H_    0.337917 0.332738 0.781172 0.183767
H14   H     H_    0.639706 0.643077 0.175832 0.184710
H15   H     H_    0.661221 0.333938 0.217488 0.182262
H16   H     H_    0.305603 0.690330 0.734915 0.181924
H17   H     H_    0.755981 0.858044 0.632058 0.190693
H18   H     H_    0.167517 0.054914 0.203179 0.193609
H19   H     H_    0.244234 0.858021 0.368159 0.190163
H20   H     H_    0.832531 0.054246 0.797884 0.193671
H21   H     H_    0.254175 0.356845 0.630062 0.191286
H22   H     H_    0.669574 0.565984 0.223894 0.192827
H23   H     H_    0.744689 0.357917 0.368626 0.189357
H24   H     H_    0.213116 0.663836 0.587431 0.190834
H25   H     H_    0.515302 0.908691 0.706873 0.178995
H26   H     H_    0.497497 0.105346 0.320106 0.170245
H27   H     H_    0.484484 0.908823 0.292784 0.179120
H28   H     H_    0.502231 0.105875 0.678946 0.170058
H29   H     H_    0.016626 0.409696 0.708887 0.177873
H30   H     H_    0.989309 0.594203 0.298204 0.179144
H31   H     H_    0.983622 0.409461 0.291481 0.177709
H32   H     H_    0.033672 0.578849 0.729933 0.165757
O1    O     O_R   0.678330 0.769930 0.856640 -0.621501
O2    O     O_R   0.321670 0.230070 0.143360 -0.605268
O3    O     O_R   0.321670 0.769930 0.143360 -0.622174
O4    O     O_R   0.678330 0.230070 0.856640 -0.605972
O5    O     O_R   0.178330 0.269930 0.856640 -0.619012
O6    O     O_R   0.821670 0.730070 0.143360 -0.588889
O7    O     O_R   0.821670 0.269930 0.143360 -0.621205
O8    O     O_R   0.178330 0.730070 0.856640 -0.614260
O9    O     O_R   0.730030 0.821640 0.960080 -0.595724
O10   O     O_R   0.269970 0.178360 0.039920 -0.620305
O11   O     O_R   0.269970 0.821640 0.039920 -0.595087
O12   O     O_R   0.730030 0.178360 0.960080 -0.619748
O13   O     O_R   0.230030 0.321640 0.960080 -0.601326
O14   O     O_R   0.769970 0.678360 0.039920 -0.626871
O15   O     O_R   0.769970 0.321640 0.039920 -0.597250
O16   O     O_R   0.230030 0.678360 0.960080 -0.615930
O17   O     O_R   0.641350 0.724120 0.948260 -0.620785
O18   O     O_R   0.358650 0.275880 0.051740 -0.596302
O19   O     O_R   0.358650 0.724120 0.051740 -0.610227
O20   O     O_R   0.641350 0.275880 0.948260 -0.595461
O21   O     O_R   0.141350 0.224120 0.948260 -0.613918
O22   O     O_R   0.858650 0.775880 0.051740 -0.593488
O23   O     O_R   0.858650 0.224120 0.051740 -0.613462
O24   O     O_R   0.141350 0.775880 0.948260 -0.591043
O25   O     O_R   0.693050 0.775840 0.051700 -0.593877
O26   O     O_R   0.306950 0.224160 0.948300 -0.621260
O27   O     O_R   0.306950 0.775840 0.948300 -0.609169
O28   O     O_R   0.693050 0.224160 0.051700 -0.622237
O29   O     O_R   0.193050 0.275840 0.051700 -0.604194
O30   O     O_R   0.806950 0.724160 0.948300 -0.623202
O31   O     O_R   0.806950 0.275840 0.948300 -0.604764
O32   O     O_R   0.193050 0.724160 0.051700 -0.625635
O33   O     O_R   0.999060 0.545790 0.591600 -0.624635
O34   O     O_R   0.000940 0.454210 0.408400 -0.622912
O35   O     O_R   0.000940 0.545790 0.408400 -0.615267
O36   O     O_R   0.999060 0.454210 0.591600 -0.613993
O37   O     O_R   0.499060 0.045790 0.591600 -0.627713
O38   O     O_R   0.500940 0.954210 0.408400 -0.619306
O39   O     O_R   0.500940 0.045790 0.408400 -0.627918
O40   O     O_R   0.499060 0.954210 0.591600 -0.619228
O41   O     O_R   0.092510 0.545780 0.591590 -0.600658
O42   O     O_R   0.907490 0.454220 0.408410 -0.591440
O43   O     O_R   0.907490 0.545780 0.408410 -0.598506
O44   O     O_R   0.092510 0.454220 0.591590 -0.606373
O45   O     O_R   0.592510 0.045780 0.591590 -0.600587
O46   O     O_R   0.407490 0.954220 0.408410 -0.590225
O47   O     O_R   0.407490 0.045780 0.408410 -0.600679
O48   O     O_R   0.592510 0.954220 0.591590 -0.590413
Zn1   Zn    Zn3+2 0.715450 0.715450 0.930910 1.002096
Zn2   Zn    Zn3+2 0.284550 0.284550 0.069090 1.025992
Zn3   Zn    Zn3+2 0.284550 0.715450 0.069090 1.007009
Zn4   Zn    Zn3+2 0.715450 0.284550 0.930910 1.029347
Zn5   Zn    Zn3+2 0.215450 0.215450 0.930910 1.007374
Zn6   Zn    Zn3+2 0.784550 0.784550 0.069090 1.044513
Zn7   Zn    Zn3+2 0.784550 0.215450 0.069090 1.006903
Zn8   Zn    Zn3+2 0.215450 0.784550 0.930910 1.029359
Zn9   Zn    Zn3+2 0.937580 0.500000 0.499990 1.023011
Zn10  Zn    Zn3+2 0.062420 0.500000 0.500010 1.013754
Zn11  Zn    Zn3+2 0.437580 0.000000 0.499990 1.017624
Zn12  Zn    Zn3+2 0.562420 0.000000 0.500010 1.017759
F1    F     F_    0.808014 0.824543 0.888906 -0.685660
F2    F     F_    0.202696 0.187872 0.134666 -0.693524
F3    F     F_    0.192180 0.824408 0.111421 -0.685714
F4    F     F_    0.797814 0.187318 0.866396 -0.693663
F5    F     F_    0.307565 0.323493 0.887631 -0.688346
F6    F     F_    0.712549 0.694917 0.150801 -0.686979
F7    F     F_    0.692213 0.324081 0.111756 -0.686355
F8    F     F_    0.295349 0.690968 0.859887 -0.695407
I1    I     I_    0.597393 0.869843 0.503936 -0.359465
I2    I     I_    0.282637 0.994556 0.234793 -0.348089
I3    I     I_    0.402776 0.869819 0.496112 -0.363746
I4    I     I_    0.716876 0.994309 0.765671 -0.348109
I5    I     I_    0.095680 0.369381 0.503509 -0.356532
I6    I     I_    0.773629 0.498589 0.246001 -0.347556
I7    I     I_    0.903305 0.369793 0.496037 -0.351263
I8    I     I_    0.057301 0.640173 0.487380 -0.370608

loop_
_geom_bond_atom_site_label_1
_geom_bond_atom_site_label_2
_ccdc_geom_bond_type
C56   O40   A    
C82   C90   A    
C112  I8    S    
C29   H5    S    
C105  I1    S    
C2    C18   S    
O30   Zn1   S    
C34   H26   S    
C69   C77   T    
O29   Zn2   S    
C52   O44   A    
C31   H7    S    
C108  C116  A    
C2    O10   A    
C71   C79   T    
C109  C117  A    
C48   C120  A    
C11   C19   A    
O48   Zn12  S    
C74   C76   S    
C106  C114  A    
O31   Zn4   S    
C44   C116  A    
C105  C113  A    
C58   O18   A    
O5    Zn5   S    
O43   Zn9   S    
C93   H13   S    
C87   F7    S    
C16   C120  A    
C108  I4    S    
C91   H11   S    
C78   C80   S    
O3    Zn3   S    
C70   C78   T    
C101  C109  A    
C6    C22   S    
O26   Zn5   S    
C39   H31   S    
O11   Zn8   S    
C89   H9    S    
O25   Zn6   S    
C46   C118  A    
C103  C111  A    
C86   F6    S    
O20   Zn4   S    
O38   Zn12  S    
C85   F5    S    
C86   C94   A    
C59   C67   S    
C82   F2    S    
C85   C93   A    
C44   C53   S    
C58   C66   S    
C55   O47   A    
O24   Zn8   S    
C95   C103  A    
C6    O14   A    
C14   C118  A    
C34   C42   A    
C84   C92   A    
C4    O12   A    
C53   O37   A    
C3    C19   S    
C98   C106  A    
C55   O39   A    
O23   Zn7   S    
C64   O24   A    
O28   Zn7   S    
C35   C43   A    
C43   C115  A    
C57   O17   A    
C59   O27   A    
C10   C114  A    
C36   C44   A    
C3    O11   A    
O39   Zn12  S    
O14   Zn1   S    
C8    C24   S    
C97   C105  A    
C15   C23   A    
C1    O9    A    
C16   C24   A    
O32   Zn3   S    
C26   C34   A    
C90   H10   S    
C73   C75   S    
C62   C70   S    
C99   H19   S    
C101  H21   S    
C99   C107  A    
C59   O19   A    
C62   O30   A    
C15   C119  A    
C97   H17   S    
O2    Zn2   S    
C42   C114  A    
C47   C50   S    
O1    Zn1   S    
C77   C79   S    
C81   F1    S    
C100  C108  A    
C8    O16   A    
C13   C21   A    
C60   O20   A    
C11   C115  A    
C63   O31   A    
C14   C86   A    
C96   H16   S    
O37   Zn11  S    
C65   C73   T    
C93   C101  A    
C112  C120  A    
C27   H3    S    
C111  I7    S    
C20   C28   A    
C45   C52   S    
C27   C35   A    
C12   C116  A    
O40   Zn11  S    
C21   C29   A    
C46   C51   S    
C10   C82   A    
C26   H2    S    
C88   F8    S    
C87   C95   A    
C88   C96   A    
C98   H18   S    
C5    C21   S    
O6    Zn6   S    
C104  C112  A    
O13   Zn2   S    
C24   C32   A    
C41   C56   S    
O46   Zn11  S    
C42   C55   S    
O8    Zn8   S    
C66   C74   T    
O36   Zn9   S    
C43   C54   S    
C83   F3    S    
O35   Zn10  S    
C38   H30   S    
O18   Zn2   S    
C57   C65   S    
C18   C26   A    
C12   C20   A    
C25   C33   A    
C3    O3    A    
C95   H15   S    
C49   O33   A    
O7    Zn7   S    
C58   O26   A    
C8    O8    A    
C35   H27   S    
O15   Zn4   S    
C1    O1    A    
C110  C118  A    
C107  C115  A    
C33   H25   S    
O44   Zn10  S    
C111  C119  A    
C9    C17   A    
C48   C49   S    
C4    O4    A    
C40   H32   S    
C63   C71   S    
C5    O13   A    
C25   H1    S    
O34   Zn10  S    
O10   Zn5   S    
C110  I6    S    
C29   C37   A    
O33   Zn9   S    
O9    Zn6   S    
C102  C110  A    
C67   C75   T    
C37   C45   A    
C83   C91   A    
C50   O34   A    
C53   O45   A    
C32   C40   A    
C19   C27   A    
C92   C100  A    
C39   C47   A    
C61   C69   S    
C40   C48   A    
C7    O15   A    
O27   Zn8   S    
C109  I5    S    
C22   C30   A    
C92   H12   S    
C61   O29   A    
C100  H20   S    
C60   O28   A    
C37   H29   S    
C17   C25   A    
O12   Zn7   S    
C103  H23   S    
C6    O6    A    
C13   C117  A    
C28   H4    S    
C63   O23   A    
C4    C20   S    
C30   H6    S    
C68   C76   T    
C102  H22   S    
C5    O5    A    
C54   O46   A    
O16   Zn3   S    
C60   C68   S    
C33   C41   A    
C32   H8    S    
C96   C104  A    
C41   C113  A    
C81   C89   A    
C72   C80   T    
O45   Zn12  S    
C51   O43   A    
O42   Zn9   S    
C57   O25   A    
C50   O42   A    
C14   C22   A    
O41   Zn10  S    
C106  I2    S    
C49   O41   A    
C36   H28   S    
C10   C18   A    
C7    C23   S    
C9    C113  A    
C47   C119  A    
C94   H14   S    
C31   C39   A    
C54   O38   A    
O47   Zn11  S    
C64   C72   S    
O19   Zn3   S    
C45   C117  A    
C38   C46   A    
C51   O35   A    
C104  H24   S    
O17   Zn1   S    
C64   O32   A    
C107  I3    S    
C11   C83   A    
C7    O7    A    
C1    C17   S    
C28   C36   A    
C2    O2    A    
C15   C87   A    
C89   C97   A    
C9    C81   A    
O22   Zn6   S    
C61   O21   A    
C13   C85   A    
O21   Zn5   S    
C52   O36   A    
C30   C38   A    
C91   C99   A    
C12   C84   A    
C90   C98   A    
O4    Zn4   S    
C16   C88   A    
C84   F4    S    
C94   C102  A    
C23   C31   A    
C56   O48   A    
C62   O22   A    
