data_mof_unit_42540.cif
_audit_creation_date              2012-12-10T19:55:05-0500
_audit_creation_method            fapswitch 2.2
_symmetry_space_group_name_H-M    P1
_symmetry_Int_Tables_number       1
_space_group_crystal_system       triclinic
_cell_length_a                    14.20213
_cell_length_b                    14.833804
_cell_length_c                    16.56499
_cell_angle_alpha                 90.001973
_cell_angle_beta                  84.365365
_cell_angle_gamma                 85.154697
_cell_volume                      3460.37849505

loop_
_atom_site_label
_atom_site_type_symbol
_atom_type_description
_atom_site_fract_x
_atom_site_fract_y
_atom_site_fract_z
_atom_type_partial_charge
C1    C     C_R   0.496290 0.673087 0.498385 0.997048
C2    C     C_R   0.482352 0.187341 0.439019 -0.320562
C3    C     C_R   0.508776 0.901019 0.585488 0.455283
C4    C     C_R   0.489857 0.093850 0.432870 0.434285
C5    C     C_R   0.476124 0.955596 0.522808 -0.123230
C6    C     C_R   0.515614 0.043554 0.500823 -0.122188
C7    C     C_R   0.885090 0.572638 0.531934 -0.176947
C8    C     C_R   0.122381 0.470633 0.423613 -0.161128
C9    C     C_R   0.785900 0.567049 0.538824 -0.003027
C10   C     C_R   0.219959 0.466048 0.432847 0.009757
C11   C     C_R   0.806728 0.444341 0.446276 0.437829
C12   C     C_R   0.503523 0.327261 0.505679 0.955159
C13   C     C_R   0.187003 0.528263 0.564757 0.421566
C14   C     C_R   0.901366 0.464086 0.424077 0.245240
C15   C     C_R   0.089160 0.514393 0.562879 0.231110
C16   C     C_R   0.486086 0.499310 0.653945 0.981954
C17   C     C_R   0.513467 0.499297 0.345171 0.979219
C18   C     C_R   0.946474 0.514134 0.479031 0.044032
C19   C     C_R   0.053560 0.501907 0.487176 -0.017588
C20   C     C_R   0.478392 0.473007 0.738899 -0.193459
C21   C     C_R   0.525665 0.479763 0.256796 -0.270092
C22   C     C_R   0.526668 0.515183 0.796218 0.451590
C23   C     C_R   0.413169 0.918254 0.474801 0.359121
C24   C     C_R   0.449794 0.480074 0.206550 0.447138
C25   C     C_R   0.535294 0.474054 0.870757 -0.235926
C26   C     C_R   0.467393 0.440225 0.129865 -0.228715
C27   C     C_R   0.495804 0.391654 0.889763 -0.073791
C28   C     C_R   0.557242 0.400142 0.100340 -0.070321
C29   C     C_R   0.440631 0.353516 0.834625 0.460702
C30   C     C_R   0.633177 0.403415 0.148127 0.446452
C31   C     C_R   0.432835 0.394588 0.759454 -0.195291
C32   C     C_R   0.617222 0.446187 0.223815 -0.244261
C33   C     C_2   0.502103 0.354546 0.971743 -0.071239
C34   C     C_R   0.575930 0.083095 0.550296 0.350460
C35   C     C_2   0.574015 0.372550 0.014203 -0.070770
C36   C     C_R   0.424683 0.825077 0.459176 0.284716
C37   C     C_R   0.568800 0.177386 0.559319 0.374986
C38   C     C_R   0.485426 0.770679 0.505718 -0.292047
C39   C     C_R   0.514427 0.229485 0.505275 -0.263625
C40   C     C_R   0.522267 0.808511 0.571807 -0.240549
Cl1   Cl    Cl    0.309840 0.984246 0.451804 -0.367275
Cl2   Cl    Cl    0.674731 0.017248 0.582979 -0.373021
H1    H     H_    0.913719 0.623031 0.567399 0.230937
H2    H     H_    0.570871 0.508291 0.915145 0.219325
H3    H     H_    0.554531 0.765480 0.615995 0.240787
H4    H     H_    0.457039 0.227539 0.389576 0.179814
H5    H     H_    0.610400 0.730636 0.852193 0.418960
H6    H     H_    0.238986 0.615427 0.156861 0.408670
H7    H     H_    0.677022 0.271387 0.354773 0.387909
H8    H     H_    0.315840 0.687250 0.674847 0.405023
H9    H     H_    0.023837 0.555186 0.241431 0.409755
H10   H     H_    0.922168 0.547673 0.746918 0.410721
H11   H     H_    0.419727 0.122918 0.906624 0.416345
H12   H     H_    0.103723 0.446319 0.367174 0.255480
H13   H     H_    0.869910 0.396595 0.041269 0.415273
H14   H     H_    0.506358 0.738256 0.309050 0.365871
H15   H     H_    0.604499 0.200217 0.772709 0.404286
H16   H     H_    0.407869 0.894338 0.794968 0.407324
H17   H     H_    0.539692 0.160840 0.258936 0.355317
H18   H     H_    0.740171 0.615174 0.576661 0.209226
H19   H     H_    0.270135 0.437115 0.384867 0.211479
H20   H     H_    0.677149 0.450419 0.258348 0.274039
H21   H     H_    0.394947 0.362971 0.714925 0.212525
H22   H     H_    0.640567 0.388790 0.981652 0.211415
H23   H     H_    0.438409 0.330055 0.002742 0.210262
H24   H     H_    0.409860 0.444374 0.091409 0.213721
N1    N     N_R   0.747530 0.500020 0.500000 -0.160756
N2    N     N_R   0.252470 0.499980 0.500000 -0.162656
O1    O     O_R   0.420520 0.630930 0.499990 -0.512002
O2    O     O_2   0.497272 0.682196 0.739962 -0.318107
O3    O     O_3   0.590914 0.669769 0.867077 -0.499164
O4    O     O_2   0.264847 0.459355 0.234710 -0.326141
O5    O     O_2   0.317150 0.590945 0.301735 -0.180418
O6    O     O_3   0.307834 0.596783 0.147347 -0.487163
O7    O     O_2   0.863501 0.283375 0.374325 -0.176164
O8    O     O_2   0.754557 0.284696 0.496546 -0.220781
O9    O     O_3   0.687832 0.335819 0.362385 -0.566876
O10   O     O_2   0.132204 0.647393 0.686175 -0.186196
O11   O     O_2   0.250826 0.525229 0.712604 -0.253505
O12   O     O_R   0.579480 0.369070 0.500010 -0.522009
O13   O     O_3   0.301879 0.660115 0.623160 -0.509787
O14   O     O_2   0.988315 0.387039 0.285813 -0.203406
O15   O     O_2   0.846000 0.489450 0.274927 -0.246423
O16   O     O_3   0.000438 0.560726 0.299703 -0.524713
O17   O     O_2   0.951792 0.416885 0.633885 -0.254065
O18   O     O_2   0.087230 0.435538 0.710020 -0.177885
O19   O     O_3   0.962897 0.572723 0.701868 -0.487846
O20   O     O_2   0.297006 0.278092 0.917074 -0.236412
O21   O     O_2   0.350027 0.215790 0.781621 -0.201156
O22   O     O_3   0.456066 0.176851 0.898350 -0.510306
O23   O     O_R   0.579480 0.630940 0.499990 -0.639907
O24   O     O_2   0.802717 0.331306 0.187868 -0.163264
O25   O     O_2   0.742513 0.268385 0.068329 -0.236021
O26   O     O_3   0.806159 0.427625 0.056714 -0.510059
O27   O     O_2   0.286233 0.734008 0.410630 -0.169219
O28   O     O_2   0.342531 0.851612 0.318936 -0.133406
O29   O     O_3   0.451399 0.703825 0.327137 -0.535906
O30   O     O_2   0.724593 0.194486 0.637478 -0.136513
O31   O     O_2   0.605661 0.323057 0.649608 -0.333429
O32   O     O_3   0.569460 0.178208 0.728819 -0.446880
O33   O     O_2   0.582564 0.923126 0.726877 -0.195704
O34   O     O_R   0.420520 0.369060 0.500010 -0.634834
O35   O     O_2   0.454372 0.035650 0.694484 -0.208305
O36   O     O_3   0.410714 0.875361 0.737380 -0.485621
O37   O     O_2   0.539734 0.949439 0.332765 -0.242993
O38   O     O_2   0.406784 0.054723 0.299007 -0.188002
O39   O     O_3   0.577272 0.105141 0.273991 -0.470260
O40   O     O_R   0.411130 0.500010 0.615800 -0.580224
O41   O     O_R   0.588870 0.499990 0.384200 -0.594796
O42   O     O_R   0.570080 0.500020 0.615800 -0.557903
O43   O     O_R   0.429920 0.499980 0.384200 -0.583139
O44   O     O_2   0.660861 0.611901 0.723941 -0.293922
S1    S     S_3+6 0.570095 0.622307 0.779047 0.055421
S2    S     S_3+6 0.619864 0.222241 0.643449 0.124492
S3    S     S_3+6 0.491250 0.937714 0.688034 0.125939
S4    S     S_3+6 0.501140 0.046949 0.333465 0.115559
S5    S     S_3+6 0.332446 0.532260 0.227365 0.069728
S6    S     S_3+6 0.778773 0.334515 0.419748 0.139423
S7    S     S_3+6 0.217837 0.589928 0.649389 0.140361
S8    S     S_3+6 0.933892 0.472940 0.318155 0.087331
S9    S     S_3+6 0.022011 0.481914 0.653880 0.108440
S10   S     S_3+6 0.382076 0.254439 0.857241 0.098329
S11   S     S_3+6 0.748642 0.353665 0.115881 0.101968
S12   S     S_3+6 0.372151 0.779601 0.377363 0.173066
Zn1   Zn    Zn3+2 0.393860 0.499990 0.500000 1.098802
Zn2   Zn    Zn3+2 0.606140 0.500010 0.500000 1.098328

loop_
_geom_bond_atom_site_label_1
_geom_bond_atom_site_label_2
_ccdc_geom_bond_type
O27   S12   D    
C30   C32   A    
O23   Zn2   S    
C27   C29   A    
C34   C37   A    
C14   C18   A    
O37   S4    D    
O35   S3    D    
C34   Cl2   S    
O14   S8    D    
O34   Zn1   S    
O31   S2    D    
C16   O42   A    
C27   C33   S    
C15   C19   A    
C24   S5    S    
C36   S12   S    
C24   C26   A    
O29   S12   S    
C5    C6    S    
C8    C10   A    
C11   C14   A    
O30   S2    D    
O21   S10   D    
O3    S1    S    
C18   C19   S    
C2    H4    S    
C2    C39   A    
C22   S1    S    
C28   C35   S    
C22   C25   A    
O11   S7    D    
O4    S5    D    
O43   Zn1   S    
O17   S9    D    
C35   H22   S    
C7    H1    S    
O40   Zn1   S    
O16   S8    S    
O26   S11   S    
O1    Zn1   S    
C1    O23   A    
O22   S10   S    
O7    S6    D    
H14   O29   S    
H13   O26   S    
C17   O43   A    
C25   H2    S    
O44   S1    D    
C13   S7    S    
C11   N1    A    
O2    S1    D    
C40   H3    S    
C21   C32   A    
C8    C19   A    
O5    S5    D    
O28   S12   D    
C33   H23   S    
C26   H24   S    
H6    O6    S    
O32   S2    S    
O20   S10   D    
O9    S6    S    
O24   S11   D    
C8    H12   S    
O19   S9    S    
C37   S2    S    
H15   O32   S    
C1    O1    A    
C6    C34   A    
O38   S4    D    
O15   S8    D    
C2    C4    A    
C9    N1    A    
C12   O34   A    
C31   H21   S    
O8    S6    D    
O36   S3    S    
C5    C23   A    
C16   C20   S    
C7    C18   A    
C29   S10   S    
O18   S9    D    
H5    O3    S    
C1    C38   S    
O42   Zn2   S    
C4    C6    A    
C20   C22   A    
C3    C40   A    
C14   S8    S    
C13   C15   A    
O33   S3    D    
N1    Zn2   S    
C10   H19   S    
H16   O36   S    
C7    C9    A    
O6    S5    S    
C15   S9    S    
C4    S4    S    
H10   O19   S    
O25   S11   D    
C3    C5    A    
C17   O41   A    
C10   N2    A    
C25   C27   A    
O13   S7    S    
C26   C28   A    
C23   Cl1   S    
C9    H18   S    
C12   C39   S    
C36   C38   A    
O10   S7    D    
C32   H20   S    
C37   C39   A    
C3    S3    S    
C38   C40   A    
O12   Zn2   S    
C12   O12   A    
C28   C30   A    
C33   C35   D    
H7    O9    S    
N2    Zn1   S    
H17   O39   S    
O39   S4    S    
C16   O40   A    
O41   Zn2   S    
C30   S11   S    
C29   C31   A    
C23   C36   A    
C21   C24   A    
H11   O22   S    
C11   S6    S    
H9    O16   S    
C13   N2    A    
H8    O13   S    
C20   C31   A    
C17   C21   S    
