data_mof_unit_25003.cif
_audit_creation_date              2012-12-10T16:51:33-0500
_audit_creation_method            fapswitch 2.2
_symmetry_space_group_name_H-M    P1
_symmetry_Int_Tables_number       1
_space_group_crystal_system       triclinic
_cell_length_a                    7.868033
_cell_length_b                    8.534941
_cell_length_c                    12.219618
_cell_angle_alpha                 93.814456
_cell_angle_beta                  101.80287
_cell_angle_gamma                 93.487287
_cell_volume                      799.126604004

loop_
_atom_site_label
_atom_site_type_symbol
_atom_type_description
_atom_site_fract_x
_atom_site_fract_y
_atom_site_fract_z
_atom_type_partial_charge
C1    C     C_R   0.049819 0.794833 0.512135 0.939389
C2    C     C_R   0.161110 0.503176 0.830230 -0.092274
C3    C     C_2   0.087915 0.959676 0.545887 -0.032490
C4    C     C_R   0.107707 0.510459 0.709969 0.822420
C5    C     C_2   0.954550 0.051822 0.551933 -0.016630
C6    C     C_R   0.963338 0.208409 0.516828 0.947080
C7    C     C_R   0.892615 0.492118 0.290484 0.868912
C8    C     C_R   0.858342 0.691268 0.028825 -0.183828
C9    C     C_R   0.839776 0.518222 0.173833 -0.062961
C10   C     C_R   0.056761 0.410254 0.884763 -0.175283
C11   C     C_R   0.122727 0.369259 0.992268 -0.135757
C12   C     C_R   0.403501 0.505894 0.988423 0.080131
C13   C     C_R   0.295018 0.414261 0.043597 -0.181420
C14   C     C_3   0.788731 0.998446 0.588867 -0.908092
C15   C     C_3   0.467868 0.308233 0.419271 -0.506383
C16   C     C_3   0.687894 0.854557 0.838046 -0.964986
C17   C     C_3   0.278549 0.018832 0.571345 -0.897531
C18   C     C_R   0.328754 0.563495 0.885832 0.031572
C19   C     C_R   0.583572 0.541378 0.031136 0.041836
C20   C     C_R   0.680167 0.653327 0.981608 0.139834
C21   C     C_R   0.595733 0.726665 0.887993 0.178908
C22   C     C_R   0.422524 0.678877 0.839857 -0.218107
C23   C     C_R   0.670437 0.467718 0.122317 -0.244280
C24   C     C_R   0.936462 0.626434 0.125996 -0.192847
H1    H     H_    0.068582 0.667457 0.167097 0.160051
H2    H     H_    0.682647 0.962559 0.514738 0.252318
H3    H     H_    0.811089 0.901476 0.644220 0.261902
H4    H     H_    0.520002 0.230192 0.484790 0.201266
H5    H     H_    0.342988 0.250941 0.369871 0.177558
H6    H     H_    0.553690 0.322622 0.359515 0.205506
H7    H     H_    0.601641 0.898942 0.765055 0.240674
H8    H     H_    0.732754 0.955513 0.901667 0.245403
H9    H     H_    0.801661 0.807337 0.810184 0.245080
H10   H     H_    0.324071 0.024713 0.491647 0.244451
H11   H     H_    0.304459 0.133281 0.622766 0.270358
H12   H     H_    0.530315 0.638668 0.573449 0.175482
H13   H     H_    0.356521 0.935026 0.622089 0.220363
H14   H     H_    0.936822 0.775885 0.994615 0.155244
H15   H     H_    0.606770 0.376483 0.159960 0.124885
H16   H     H_    0.926820 0.364196 0.842533 0.155984
H17   H     H_    0.337905 0.378691 0.127193 0.132031
H18   H     H_    0.041782 0.298221 0.034728 0.144598
H19   H     H_    0.359453 0.734691 0.766881 0.148610
H20   H     H_    0.746210 0.094937 0.640219 0.241056
N1    N     N_2   0.434800 0.456690 0.470850 -0.031307
N2    N     N_2   0.565200 0.543310 0.529150 -0.122136
O1    O     O_R   0.893060 0.738880 0.507150 -0.615139
O2    O     O_R   0.172250 0.711130 0.488470 -0.621123
O3    O     O_R   0.944700 0.520730 0.667600 -0.621450
O4    O     O_R   0.223890 0.492980 0.648920 -0.617595
O5    O     O_R   0.827750 0.288870 0.511530 -0.628866
O6    O     O_R   0.106940 0.261120 0.492850 -0.618140
O7    O     O_R   0.776110 0.507020 0.351080 -0.610865
O8    O     O_R   0.055300 0.479270 0.332400 -0.611586
Zn1   Zn    Zn3+2 0.813580 0.518530 0.512470 0.926931
Zn2   Zn    Zn3+2 0.186420 0.481470 0.487530 0.931242

loop_
_geom_bond_atom_site_label_1
_geom_bond_atom_site_label_2
_ccdc_geom_bond_type
N2    Zn1   S    
C2    C4    S    
C24   H1    S    
C9    C24   A    
H12   N2    S    
C16   C21   S    
C15   H5    S    
C16   H9    S    
C16   H8    S    
O4    Zn2   S    
C19   C23   A    
C19   C20   A    
C4    O3    A    
C3    C5    D    
O3    Zn1   S    
C7    C9    S    
C20   C21   A    
C13   H17   S    
C15   H4    S    
C1    O2    A    
C17   H13   S    
C21   C22   A    
C14   H2    S    
C16   H7    S    
C11   C13   A    
C5    C14   S    
C8    C20   A    
C8    H14   S    
C15   H6    S    
C23   H15   S    
C12   C19   A    
O1    Zn1   S    
C8    C24   A    
C3    C17   S    
O5    Zn1   S    
O7    Zn1   S    
C5    C6    S    
C14   H3    S    
O8    Zn2   S    
C2    C18   A    
C10   C11   A    
C7    O7    A    
C2    C10   A    
N1    N2    D    
C12   C13   A    
C11   H18   S    
C14   H20   S    
C17   H10   S    
C6    O5    A    
C12   C18   A    
O2    Zn2   S    
C15   N1    S    
C1    O1    A    
C10   H16   S    
C17   H11   S    
C7    O8    A    
C6    O6    A    
C18   C22   A    
C22   H19   S    
C9    C23   A    
O6    Zn2   S    
N1    Zn2   S    
C4    O4    A    
C1    C3    S    
