data_mof_unit_29957.cif
_audit_creation_date              2012-12-11T14:56:08-0500
_audit_creation_method            fapswitch 2.2
_symmetry_space_group_name_H-M    P1
_symmetry_Int_Tables_number       1
_space_group_crystal_system       triclinic
_cell_length_a                    27.909602
_cell_length_b                    17.339603
_cell_length_c                    18.061618
_cell_angle_alpha                 90.007616
_cell_angle_beta                  137.966297
_cell_angle_gamma                 90.074227
_cell_volume                      5852.52058485

loop_
_atom_site_label
_atom_site_type_symbol
_atom_type_description
_atom_site_fract_x
_atom_site_fract_y
_atom_site_fract_z
_atom_type_partial_charge
C1    C     C_R   0.667500 0.922185 0.816945 -0.104058
C2    C     C_R   0.312669 0.101043 0.196684 -0.115715
C3    C     C_R   0.333220 0.922304 0.183316 -0.091978
C4    C     C_R   0.687353 0.101524 0.803082 -0.138359
C5    C     C_R   0.167457 0.422233 0.816935 -0.080984
C6    C     C_R   0.812641 0.601073 0.196761 -0.115121
C7    C     C_R   0.833282 0.422365 0.183343 -0.092285
C8    C     C_R   0.187460 0.601575 0.802857 -0.107308
C9    C     C_3   0.776840 0.340198 0.955788 -0.002556
C10   C     C_3   0.264999 0.707260 0.013447 0.002495
C11   C     C_3   0.225153 0.339826 0.044844 -0.007637
C12   C     C_3   0.734460 0.706162 0.984655 -0.015085
C13   C     C_3   0.277208 0.840312 0.955885 -0.004985
C14   C     C_3   0.765038 0.207175 0.013957 0.002723
C15   C     C_3   0.724764 0.839734 0.044688 -0.007852
C16   C     C_3   0.234145 0.206012 0.984315 -0.015934
C17   C     C_R   0.720406 0.757186 0.631217 0.150801
C18   C     C_R   0.383526 0.150104 0.639104 0.150489
C19   C     C_R   0.278214 0.756424 0.362640 0.133854
C20   C     C_R   0.614302 0.155162 0.360707 0.152845
C21   C     C_R   0.219228 0.253077 0.635580 0.163877
C22   C     C_R   0.888707 0.649460 0.645573 0.150011
C23   C     C_R   0.778326 0.256447 0.363386 0.133957
C24   C     C_R   0.114897 0.656594 0.362034 0.157963
C25   C     C_R   0.395124 0.248698 0.747398 -0.221164
C26   C     C_R   0.744806 0.626969 0.617685 -0.194104
C27   C     C_R   0.606854 0.260252 0.264608 -0.222728
C28   C     C_R   0.251643 0.627004 0.375704 -0.209417
C29   C     C_R   0.896219 0.754970 0.741794 -0.215116
C30   C     C_R   0.238002 0.125115 0.606780 -0.204168
C31   C     C_R   0.107340 0.761312 0.265450 -0.223109
C32   C     C_R   0.751779 0.126718 0.375728 -0.207519
C33   C     C_R   0.420160 0.213790 0.711715 -0.137513
C34   C     C_R   0.700859 0.678852 0.604226 -0.135345
C35   C     C_R   0.581241 0.223253 0.297511 -0.132989
C36   C     C_R   0.295939 0.677644 0.387589 -0.121497
C37   C     C_R   0.923752 0.715799 0.712881 -0.134417
C38   C     C_R   0.195641 0.176686 0.597159 -0.122718
C39   C     C_R   0.082088 0.724830 0.299198 -0.129468
C40   C     C_R   0.796109 0.177648 0.388045 -0.121968
C41   C     C_R   0.330754 0.113715 0.621602 -0.258374
C42   C     C_R   0.790287 0.778980 0.691963 -0.220310
C43   C     C_R   0.660042 0.115230 0.364923 -0.292375
C44   C     C_R   0.210303 0.780457 0.307605 -0.298169
C45   C     C_R   0.837726 0.613211 0.632491 -0.247981
C46   C     C_R   0.291957 0.269765 0.707102 -0.258758
C47   C     C_R   0.160333 0.616290 0.365881 -0.297688
C48   C     C_R   0.710366 0.280278 0.308337 -0.299196
C49   C     C_R   0.302305 0.151108 0.650045 0.173243
C50   C     C_R   0.833397 0.728171 0.702612 0.145909
C51   C     C_R   0.690592 0.155141 0.340776 0.176250
C52   C     C_R   0.167089 0.731229 0.298291 0.190583
C53   C     C_R   0.807581 0.653822 0.656387 0.177149
C54   C     C_R   0.331863 0.221775 0.707118 0.173063
C55   C     C_R   0.190642 0.655758 0.341075 0.179593
C56   C     C_R   0.666997 0.230660 0.298251 0.191453
C57   C     C_R   0.358888 0.072149 0.490159 0.529198
C58   C     C_R   0.676487 0.895245 0.604175 0.602425
C59   C     C_R   0.643542 0.075884 0.513631 0.485434
C60   C     C_R   0.323091 0.894257 0.390185 0.580547
C61   C     C_R   0.860896 0.571191 0.493546 0.529273
C62   C     C_R   0.176241 0.395305 0.601874 0.577199
C63   C     C_R   0.143955 0.577026 0.514382 0.529868
C64   C     C_R   0.823120 0.394407 0.390788 0.581903
C65   C     C_R   0.406078 0.802752 0.488831 -0.223542
C66   C     C_R   0.559024 0.167208 0.424027 -0.195446
C67   C     C_R   0.593148 0.803504 0.507452 -0.240981
C68   C     C_R   0.441462 0.165373 0.578236 -0.202800
C69   C     C_R   0.906097 0.302808 0.489051 -0.223705
C70   C     C_R   0.058988 0.667663 0.424273 -0.200846
C71   C     C_R   0.093172 0.303135 0.509605 -0.222125
C72   C     C_R   0.943057 0.664556 0.579994 -0.201856
C73   C     C_R   0.603875 0.192993 0.714197 -0.115121
C74   C     C_R   0.417393 0.830008 0.274691 -0.143397
C75   C     C_R   0.396107 0.192756 0.285482 -0.113118
C76   C     C_R   0.582968 0.830236 0.725801 -0.097396
C77   C     C_R   0.104161 0.693147 0.713893 -0.118859
C78   C     C_R   0.917469 0.330078 0.274726 -0.149038
C79   C     C_R   0.896046 0.692805 0.285590 -0.111967
C80   C     C_R   0.082952 0.330261 0.725802 -0.102648
C81   C     C_R   0.641267 0.861430 0.828368 0.027791
C82   C     C_R   0.325893 0.175784 0.191643 0.034586
C83   C     C_R   0.359579 0.861475 0.172208 0.095922
C84   C     C_R   0.674186 0.176464 0.807585 0.076489
C85   C     C_R   0.141219 0.361490 0.828363 0.009896
C86   C     C_R   0.825823 0.675857 0.191810 0.034844
C87   C     C_R   0.859660 0.361555 0.172238 0.097473
C88   C     C_R   0.174474 0.676641 0.807167 0.057150
C89   C     C_R   0.394313 0.128837 0.572638 -0.094347
C90   C     C_R   0.665400 0.816845 0.579750 -0.049146
C91   C     C_R   0.607001 0.132943 0.430872 -0.083785
C92   C     C_R   0.333559 0.815365 0.412423 -0.139701
C93   C     C_R   0.897620 0.627305 0.577144 -0.093894
C94   C     C_R   0.165602 0.315548 0.582704 -0.098280
C95   C     C_R   0.107235 0.634020 0.431587 -0.111505
C96   C     C_R   0.833598 0.315481 0.413036 -0.138758
C97   C     C_3   0.706510 0.308652 0.907830 -0.259024
C98   C     C_3   0.335217 0.738132 0.061323 -0.277779
C99   C     C_3   0.294647 0.307078 0.091275 -0.153906
C100  C     C_3   0.665016 0.738040 0.938323 -0.243950
C101  C     C_3   0.206715 0.808805 0.907400 -0.256419
C102  C     C_3   0.835100 0.238091 0.061321 -0.277602
C103  C     C_3   0.794506 0.807315 0.091653 -0.153234
C104  C     C_3   0.164938 0.238223 0.938501 -0.242040
C105  C     C_3   0.246033 0.785888 0.024330 -0.154853
C106  C     C_3   0.795006 0.260387 0.942968 -0.215802
C107  C     C_3   0.754162 0.784532 0.974090 -0.121943
C108  C     C_3   0.206034 0.260619 0.057377 -0.211954
C109  C     C_3   0.746151 0.285810 0.024962 -0.155868
C110  C     C_3   0.295449 0.760505 0.943172 -0.213555
C111  C     C_3   0.253916 0.284221 0.973527 -0.121202
C112  C     C_3   0.705721 0.760360 0.057007 -0.211046
C113  C     C_3   0.316023 0.817612 0.071428 0.165020
C114  C     C_3   0.725671 0.229107 0.897934 0.144576
C115  C     C_3   0.684997 0.817155 0.928644 0.080146
C116  C     C_3   0.274550 0.228059 0.100971 0.096522
C117  C     C_3   0.815982 0.317580 0.071534 0.165895
C118  C     C_3   0.225946 0.729259 0.897607 0.146798
C119  C     C_3   0.184998 0.317175 0.928613 0.084574
C120  C     C_3   0.774486 0.728131 0.101129 0.096468
H1    H     H_    0.715925 0.954646 0.882477 0.109877
H2    H     H_    0.260899 0.073655 0.142786 0.100608
H3    H     H_    0.285047 0.954785 0.117534 0.102779
H4    H     H_    0.739132 0.074345 0.857177 0.087692
H5    H     H_    0.215859 0.454725 0.882472 0.107546
H6    H     H_    0.760883 0.573654 0.142859 0.100319
H7    H     H_    0.785099 0.454831 0.117556 0.102663
H8    H     H_    0.239185 0.574271 0.856928 0.100039
H9    H     H_    0.918803 0.810500 0.782556 0.135711
H10   H     H_    0.215963 0.069319 0.566689 0.129799
H11   H     H_    0.086623 0.817826 0.227639 0.137589
H12   H     H_    0.769641 0.068112 0.405627 0.136303
H13   H     H_    0.419998 0.301731 0.794721 0.132176
H14   H     H_    0.725589 0.568857 0.585705 0.129361
H15   H     H_    0.586008 0.316739 0.226755 0.136854
H16   H     H_    0.269467 0.568433 0.405829 0.134336
H17   H     H_    0.431840 0.747412 0.512200 0.126090
H18   H     H_    0.522197 0.213078 0.370251 0.122695
H19   H     H_    0.567599 0.748085 0.485127 0.125335
H20   H     H_    0.477568 0.211906 0.632442 0.130171
H21   H     H_    0.931822 0.247457 0.512322 0.126317
H22   H     H_    0.022070 0.713484 0.370518 0.126312
H23   H     H_    0.067230 0.248352 0.489178 0.124037
H24   H     H_    0.979256 0.711166 0.633374 0.130450
H25   H     H_    0.579328 0.249407 0.685915 0.082907
H26   H     H_    0.447205 0.778810 0.294515 0.105750
H27   H     H_    0.420649 0.249272 0.313334 0.091322
H28   H     H_    0.552530 0.779536 0.705926 0.097917
H29   H     H_    0.079759 0.749634 0.685446 0.085833
H30   H     H_    0.947331 0.278909 0.294593 0.106030
H31   H     H_    0.920559 0.749335 0.313499 0.091205
H32   H     H_    0.052540 0.279539 0.705948 0.100940
H33   H     H_    0.226358 0.796109 0.058967 0.128745
H34   H     H_    0.813188 0.249114 0.906343 0.128102
H35   H     H_    0.773326 0.794632 0.938652 0.153362
H36   H     H_    0.188292 0.250069 0.094789 0.134254
H37   H     H_    0.726711 0.296048 0.059953 0.128531
H38   H     H_    0.313876 0.749263 0.906905 0.130019
H39   H     H_    0.272843 0.294090 0.937696 0.152854
H40   H     H_    0.687745 0.749583 0.094035 0.134528
H41   H     H_    0.653619 0.337527 0.844480 0.118813
H42   H     H_    0.388201 0.709468 0.124947 0.128218
H43   H     H_    0.348040 0.335184 0.154259 0.132130
H44   H     H_    0.611597 0.710023 0.874883 0.121821
H45   H     H_    0.153868 0.837750 0.843876 0.118863
H46   H     H_    0.888126 0.209495 0.124775 0.127362
H47   H     H_    0.847804 0.835605 0.154873 0.131878
H48   H     H_    0.111418 0.210404 0.875269 0.122020
H49   H     H_    0.808252 0.837873 0.716389 0.196567
H50   H     H_    0.304368 0.061934 0.574156 0.158744
H51   H     H_    0.195062 0.840394 0.288710 0.173938
H52   H     H_    0.678840 0.057926 0.399557 0.161933
H53   H     H_    0.315853 0.323100 0.751606 0.150191
H54   H     H_    0.814049 0.558799 0.591285 0.149257
H55   H     H_    0.695084 0.340211 0.289729 0.173843
H56   H     H_    0.179204 0.559076 0.400979 0.156980
H57   H     H_    0.649221 0.658484 0.563457 0.115929
H58   H     H_    0.464650 0.240775 0.734713 0.121301
H59   H     H_    0.346594 0.656279 0.425499 0.116344
H60   H     H_    0.540527 0.252945 0.281923 0.115905
H61   H     H_    0.142194 0.158093 0.549776 0.111336
H62   H     H_    0.967927 0.742394 0.734750 0.120347
H63   H     H_    0.846793 0.156416 0.425947 0.116568
H64   H     H_    0.041824 0.754926 0.284407 0.115567
N1    N     N_R   0.625380 0.928280 0.709340 -0.053481
N2    N     N_R   0.374620 0.071720 0.290660 -0.031963
N3    N     N_R   0.374620 0.928280 0.290660 -0.045905
N4    N     N_R   0.625380 0.071720 0.709340 -0.044845
N5    N     N_R   0.125380 0.428280 0.709340 -0.037372
N6    N     N_R   0.874620 0.571720 0.290660 -0.033037
N7    N     N_R   0.874620 0.428280 0.290660 -0.046843
N8    N     N_R   0.125380 0.571720 0.709340 -0.041056
N9    N     N_R   0.386100 0.070250 0.452470 -0.071943
N10   N     N_R   0.613900 0.929750 0.547530 -0.103236
N11   N     N_R   0.613900 0.070250 0.547530 -0.089328
N12   N     N_R   0.386100 0.929750 0.452470 -0.087162
N13   N     N_R   0.886100 0.570250 0.452470 -0.071976
N14   N     N_R   0.113900 0.429750 0.547530 -0.073999
N15   N     N_R   0.113900 0.570250 0.547530 -0.069763
N16   N     N_R   0.886100 0.429750 0.452470 -0.088664
N17   N     N_R   0.437800 0.869550 0.507970 -0.072036
N18   N     N_R   0.562200 0.130450 0.492030 -0.066055
N19   N     N_R   0.562200 0.869550 0.492030 -0.061330
N20   N     N_R   0.437800 0.130450 0.507970 -0.069051
N21   N     N_R   0.937800 0.369550 0.507970 -0.073842
N22   N     N_R   0.062200 0.630450 0.492030 -0.071639
N23   N     N_R   0.062200 0.369550 0.492030 -0.067244
N24   N     N_R   0.937800 0.630450 0.507970 -0.070405
N25   N     N_R   0.573690 0.128980 0.653840 -0.038661
N26   N     N_R   0.426310 0.871020 0.346160 -0.045169
N27   N     N_R   0.426310 0.128980 0.346160 -0.039106
N28   N     N_R   0.573690 0.871020 0.653840 -0.043707
N29   N     N_R   0.073690 0.628980 0.653840 -0.044026
N30   N     N_R   0.926310 0.371020 0.346160 -0.046678
N31   N     N_R   0.926310 0.628980 0.346160 -0.040647
N32   N     N_R   0.073690 0.371020 0.653840 -0.046873
Ni1   Ni    Ni4+2 0.616560 0.000000 0.627280 0.226917
Ni2   Ni    Ni4+2 0.383440 0.000000 0.372720 0.275004
Ni3   Ni    Ni4+2 0.116560 0.500000 0.627280 0.280272
Ni4   Ni    Ni4+2 0.883440 0.500000 0.372720 0.270274
Ni5   Ni    Ni4+2 0.497990 0.870580 0.500000 0.193894
Ni6   Ni    Ni4+2 0.502010 0.129420 0.500000 0.201048
Ni7   Ni    Ni4+2 0.997990 0.370580 0.500000 0.191965
Ni8   Ni    Ni4+2 0.002010 0.629420 0.500000 0.199144
O1    O     O_3   0.304492 0.025432 0.451119 -0.735343
H65   H     H_    0.327426 0.987811 0.511277 0.277060
O2    O     O_3   0.740632 0.924576 0.702784 -0.773007
H66   H     H_    0.731129 0.975003 0.715712 0.330686
O3    O     O_3   0.705043 0.038258 0.564142 -0.778683
H67   H     H_    0.734140 0.075131 0.568416 0.309783
O4    O     O_3   0.261922 0.926960 0.291368 -0.739822
H68   H     H_    0.237633 0.887398 0.232738 0.290976
O5    O     O_3   0.806218 0.525358 0.455218 -0.732526
H69   H     H_    0.829046 0.487575 0.515110 0.276931
O6    O     O_3   0.239843 0.427947 0.695920 -0.753662
H70   H     H_    0.268781 0.431185 0.683328 0.329559
O7    O     O_3   0.207421 0.543048 0.568339 -0.790917
H71   H     H_    0.234930 0.580927 0.570321 0.305315
O8    O     O_3   0.761757 0.427266 0.292403 -0.740311
H72   H     H_    0.737302 0.387866 0.233533 0.290722
C121  C     C_2   0.783993 0.414947 0.923322 0.499096
H73   H     H_    0.751723 0.425358 0.837415 0.011539
O9    O     O_2   0.825976 0.464163 0.992756 -0.549923
C122  C     C_2   0.258156 0.632725 0.046830 0.491653
H74   H     H_    0.303653 0.594250 0.103098 0.040462
O10   O     O_2   0.201244 0.614630 0.009765 -0.558095
C123  C     C_2   0.217415 0.415454 0.074813 0.519734
H75   H     H_    0.165060 0.434305 0.033131 0.031478
O11   O     O_2   0.269713 0.456021 0.146029 -0.583277
C124  C     C_2   0.739184 0.630903 0.949614 0.553494
H76   H     H_    0.723749 0.577848 0.959438 -0.016706
O12   O     O_2   0.759922 0.628978 0.909390 -0.550035
C125  C     C_2   0.284575 0.915097 0.923764 0.501494
H77   H     H_    0.252550 0.925558 0.837976 0.012636
O13   O     O_2   0.326455 0.964290 0.993347 -0.549246
C126  C     C_2   0.758379 0.132660 0.047613 0.496763
H78   H     H_    0.804056 0.094464 0.104388 0.038394
O14   O     O_2   0.701442 0.114313 0.010321 -0.556996
C127  C     C_2   0.716626 0.915226 0.074359 0.522918
H79   H     H_    0.664131 0.933842 0.032315 0.031133
O15   O     O_2   0.768751 0.955943 0.145735 -0.582707
C128  C     C_2   0.238484 0.130627 0.948996 0.554311
H80   H     H_    0.223063 0.077686 0.959051 -0.017313
O16   O     O_2   0.258887 0.128470 0.908280 -0.550134

loop_
_geom_bond_atom_site_label_1
_geom_bond_atom_site_label_2
_ccdc_geom_bond_type
C78   C87   A    
C65   C92   A    
C105  H33   S    
C26   C53   A    
C103  H47   S    
N16   N21   A    
C98   C110  S    
C68   N20   A    
C60   O4    S    
C61   O5    S    
C97   C114  S    
C83   C113  S    
C103  C120  S    
N8    Ni3   S    
N17   Ni5   S    
C31   C52   A    
C69   C96   A    
C109  H37   S    
N31   Ni8   S    
C110  C118  S    
C82   C116  S    
C109  C117  S    
C81   C115  S    
C72   N24   A    
N11   N18   A    
C61   N13   A    
N4    Ni1   S    
C122  H74   S    
C39   H64   S    
N23   Ni7   S    
N2    Ni2   S    
C75   N27   A    
O3    H67   S    
C38   H61   S    
C57   C89   A    
C65   N17   A    
C106  C114  S    
C26   H14   S    
C101  C118  S    
C105  C113  S    
N5    N32   A    
C87   C117  S    
C14   C109  S    
C19   C36   A    
N7    N30   A    
C125  H77   S    
N29   Ni8   S    
C61   C93   A    
C14   C102  S    
C29   C37   A    
C21   C94   S    
N10   N19   A    
C1    C81   A    
C49   C54   A    
C63   C95   A    
C24   C39   A    
C12   C124  S    
C23   C96   S    
N19   Ni5   S    
C80   H32   S    
C121  H73   S    
C85   C119  S    
C111  H39   S    
C17   C42   A    
C64   O8    S    
C31   H11   S    
C19   C92   S    
C12   C120  S    
C20   C35   A    
C8    H8    S    
N5    Ni3   S    
C7    C87   A    
C21   C38   A    
O8    H72   S    
C77   C88   A    
N22   Ni8   S    
C106  H34   S    
C66   H18   S    
N13   N24   A    
C2    H2    S    
C84   C114  S    
O6    H70   S    
N12   N17   A    
C102  C106  S    
C121  O9    D    
N13   Ni4   S    
C25   H13   S    
O5    H69   S    
C74   C83   A    
C73   C84   A    
C47   H56   S    
C110  H38   S    
C52   C55   A    
C29   C50   A    
C104  C119  S    
C16   C128  S    
C69   N21   A    
C76   N28   A    
C71   N23   A    
N14   N23   A    
C67   C90   A    
C45   C53   A    
C102  H46   S    
N26   Ni5   S    
C36   H59   S    
O7    H71   S    
C15   C127  S    
N25   Ni6   S    
C24   C47   A    
C78   N30   A    
C100  C115  S    
C75   H27   S    
C16   C116  S    
C41   C49   A    
C98   H42   S    
C28   C55   A    
C3    H3    S    
O1    H65   S    
N10   Ni1   S    
N28   Ni5   S    
C123  O11   D    
C101  C105  S    
N9    Ni2   S    
C62   O6    S    
C20   C91   S    
C29   H9    S    
C70   H22   S    
C50   C53   A    
C77   N29   A    
N15   Ni3   S    
C25   C54   A    
C6    H6    S    
C80   N32   A    
C11   C119  S    
C18   C41   A    
C77   H29   S    
C99   C116  S    
C112  C120  S    
C27   C56   A    
N3    Ni2   S    
C98   C113  S    
C128  O16   D    
C27   C35   A    
C124  H76   S    
C14   C114  S    
N27   Ni6   S    
C58   N10   A    
N15   N22   A    
C67   N19   A    
C76   H28   S    
C126  O14   D    
C8    C88   A    
C76   C81   A    
C57   O1    S    
C2    N2    A    
C32   C51   A    
C73   H25   S    
C80   C85   A    
C10   C118  S    
C42   H49   S    
C104  H48   S    
C97   C109  S    
N4    N25   A    
C125  O13   D    
O2    H66   S    
C108  H36   S    
N3    N26   A    
C43   H52   S    
C9    C117  S    
C99   C111  S    
C126  H78   S    
C6    N6    A    
C68   C89   A    
C46   H53   S    
C10   C122  S    
C100  H44   S    
C40   H63   S    
C59   C91   A    
C101  H45   S    
N9    N20   A    
C13   C110  S    
C62   N14   A    
C66   C91   A    
C102  C117  S    
N1    Ni1   S    
C42   C50   A    
C99   H43   S    
C72   C93   A    
C111  C119  S    
O4    H68   S    
C30   C49   A    
C74   N26   A    
C9    C121  S    
C100  C112  S    
C15   C103  S    
N21   Ni7   S    
C16   C104  S    
C64   N16   A    
C108  C116  S    
C3    C83   A    
N16   Ni4   S    
C22   C93   S    
C15   C115  S    
C2    C82   A    
N24   Ni8   S    
C17   C34   A    
C13   C101  S    
C127  H79   S    
C59   O3    S    
C68   H20   S    
N8    N29   A    
C104  C108  S    
C20   C43   A    
C67   H19   S    
C19   C44   A    
C78   H30   S    
C4    C84   A    
C47   C55   A    
C21   C46   A    
N6    N31   A    
C79   H31   S    
C73   N25   A    
C35   H60   S    
C72   H24   S    
C122  O10   D    
C13   C125  S    
C4    H4    S    
C9    C97   S    
C23   C48   A    
C7    N7    A    
C32   H12   S    
C26   C34   A    
C33   H58   S    
C28   H16   S    
C18   C89   S    
N20   Ni6   S    
C15   C112  S    
C74   H26   S    
C46   C54   A    
C17   C90   S    
C51   C56   A    
C103  C107  S    
C127  O15   D    
N6    Ni4   S    
N7    Ni4   S    
C34   H57   S    
C12   C107  S    
N12   Ni2   S    
C123  H75   S    
C75   C82   A    
C124  O12   D    
C128  H80   S    
C44   C52   A    
C48   C56   A    
C70   N22   A    
C10   C98   S    
C41   H50   S    
N32   Ni7   S    
C97   H41   S    
C6    C86   A    
C11   C123  S    
C58   C90   A    
C88   C118  S    
C27   H15   S    
C1    N1    A    
C48   H55   S    
C62   C94   A    
C70   C95   A    
C9    C106  S    
C44   H51   S    
C65   H17   S    
C30   H10   S    
C45   H54   S    
N1    N28   A    
C22   C37   A    
C43   C51   A    
C71   H23   S    
C8    N8    A    
C4    N4    A    
C37   H62   S    
C11   C99   S    
C79   N31   A    
C63   N15   A    
C5    H5    S    
C107  C115  S    
C64   C96   A    
C32   C40   A    
C18   C33   A    
C1    H1    S    
N18   Ni6   S    
C12   C100  S    
N11   Ni1   S    
C59   N11   A    
N30   Ni7   S    
C58   O2    S    
C5    N5    A    
C66   N18   A    
C112  H40   S    
C13   C113  S    
C63   O7    S    
C22   C45   A    
C14   C126  S    
C28   C36   A    
C69   H21   S    
C57   N9    A    
C11   C108  S    
C31   C39   A    
C24   C95   S    
C10   C105  S    
C86   C120  S    
C30   C38   A    
C7    H7    S    
C71   C94   A    
N2    N27   A    
C60   C92   A    
C3    N3    A    
C5    C85   A    
C79   C86   A    
C107  H35   S    
C60   N12   A    
C23   C40   A    
C16   C111  S    
C25   C33   A    
N14   Ni3   S    
