data_mof_unit_11261.cif
_audit_creation_date              2012-12-10T18:59:18-0500
_audit_creation_method            fapswitch 2.2
_symmetry_space_group_name_H-M    P1
_symmetry_Int_Tables_number       1
_space_group_crystal_system       triclinic
_cell_length_a                    9.866574
_cell_length_b                    10.644039
_cell_length_c                    16.862618
_cell_angle_alpha                 88.646969
_cell_angle_beta                  95.97341
_cell_angle_gamma                 90.758715
_cell_volume                      1760.70528879

loop_
_atom_site_label
_atom_site_type_symbol
_atom_type_description
_atom_site_fract_x
_atom_site_fract_y
_atom_site_fract_z
_atom_type_partial_charge
C1    C     C_R   0.499054 0.260561 0.500407 0.864523
C2    C     C_R   0.078650 0.418328 0.548469 0.042484
C3    C     C_R   0.519845 0.500372 0.653150 0.911310
C4    C     C_R   0.480155 0.499628 0.346850 0.911310
C5    C     C_R   0.537746 0.507760 0.739378 -0.213160
C6    C     C_R   0.462254 0.492239 0.260622 -0.213160
C7    C     C_R   0.454863 0.588257 0.778420 0.352717
C8    C     C_R   0.545136 0.411741 0.221580 0.352717
C9    C     C_R   0.463224 0.583533 0.860598 -0.149701
C10   C     C_R   0.536774 0.416463 0.139402 -0.149700
C11   C     C_R   0.555689 0.503321 0.905030 0.145870
C12   C     C_R   0.500946 0.739438 0.499593 0.864522
C13   C     C_R   0.444309 0.496676 0.094970 0.145870
C14   C     C_R   0.647573 0.432502 0.867099 -0.126263
C15   C     C_R   0.352426 0.567496 0.132901 -0.126262
C16   C     C_R   0.638304 0.433294 0.783097 0.360991
C17   C     C_R   0.361695 0.566705 0.216902 0.360992
C18   C     C_R   0.430536 0.066821 0.435250 -0.099995
C19   C     C_R   0.569464 0.933179 0.564750 -0.099994
C20   C     C_1   0.745642 0.355127 0.915176 0.218631
C21   C     C_1   0.254358 0.644870 0.084824 0.218631
C22   C     C_1   0.362567 0.136207 0.367687 0.300818
C23   C     C_R   0.435318 0.937485 0.432764 0.423638
C24   C     C_1   0.637433 0.863793 0.632313 0.300818
C25   C     C_1   0.843363 0.669311 0.399673 0.262500
C26   C     C_1   0.156637 0.330689 0.600327 0.262501
C27   C     C_R   0.564682 0.062515 0.567236 0.423638
C28   C     C_R   0.503463 0.871945 0.498436 -0.269677
C29   C     C_R   0.496537 0.128055 0.501564 -0.269676
C30   C     C_R   0.065058 0.581386 0.451607 -0.084272
C31   C     C_R   0.934942 0.418614 0.548393 -0.084272
C32   C     C_R   0.921350 0.581672 0.451531 0.042483
H1    H     H_    0.602719 0.356303 0.109881 0.200334
H2    H     H_    0.588631 0.206429 0.637697 0.359114
H3    H     H_    0.397279 0.643693 0.890119 0.200334
H4    H     H_    0.114604 0.646164 0.413050 0.178864
H5    H     H_    0.885396 0.353836 0.586950 0.178864
H6    H     H_    0.602840 0.303520 0.313151 0.337436
H7    H     H_    0.397159 0.696480 0.686850 0.337436
H8    H     H_    0.789308 0.315413 0.778527 0.355037
H9    H     H_    0.210692 0.684586 0.221473 0.355037
H10   H     H_    0.411369 0.793571 0.362303 0.359114
N1    N     N_2   0.556943 0.491498 0.988415 -0.148604
N2    N     N_1   0.218928 0.259964 0.642199 -0.177236
N3    N     N_2   0.443055 0.508498 0.011585 -0.148604
N4    N     N_R   0.857210 0.499970 0.500020 -0.107982
N5    N     N_R   0.142790 0.500030 0.499980 -0.107983
N6    N     N_1   0.823929 0.293373 0.953696 -0.160744
N7    N     N_1   0.176070 0.706625 0.046303 -0.160744
N8    N     N_1   0.308372 0.191557 0.313840 -0.175513
N9    N     N_1   0.691628 0.808442 0.686160 -0.175513
N10   N     N_1   0.781072 0.740036 0.357801 -0.177235
O1    O     O_R   0.614620 0.316750 0.500010 -0.605119
O2    O     O_3   0.365306 0.673075 0.739002 -0.720741
O3    O     O_3   0.721287 0.360519 0.741587 -0.743550
O4    O     O_3   0.278713 0.639481 0.258413 -0.743550
O5    O     O_3   0.374329 0.878944 0.365451 -0.725361
O6    O     O_3   0.625671 0.121056 0.634549 -0.725362
O7    O     O_R   0.385380 0.683250 0.499990 -0.605119
O8    O     O_R   0.385290 0.316780 0.500000 -0.621409
O9    O     O_R   0.614710 0.683220 0.500000 -0.621408
O10   O     O_R   0.627460 0.498830 0.616130 -0.564527
O11   O     O_R   0.372540 0.501170 0.383870 -0.564527
O12   O     O_R   0.398130 0.498850 0.616130 -0.618761
O13   O     O_R   0.601870 0.501150 0.383870 -0.618761
O14   O     O_3   0.634693 0.326923 0.260999 -0.720741
Zn1   Zn    Zn3+2 0.653130 0.499980 0.500000 0.998346
Zn2   Zn    Zn3+2 0.346870 0.500020 0.500000 0.998346

loop_
_geom_bond_atom_site_label_1
_geom_bond_atom_site_label_2
_ccdc_geom_bond_type
C13   N3    S    
C5    C7    A    
H9    O4    S    
C8    O14   S    
C19   C28   A    
O7    Zn2   S    
C27   C29   A    
C9    C11   A    
H2    O6    S    
N5    Zn2   S    
C17   O4    S    
C30   H4    S    
C22   N8    T    
H8    O3    S    
C24   N9    T    
C1    C29   S    
C19   C24   S    
C25   N10   T    
C26   N2    T    
N4    Zn1   S    
C2    C26   S    
C18   C29   A    
C18   C22   S    
C23   C28   A    
C30   C32   A    
C12   O9    A    
N1    N3    D    
C4    O11   A    
C20   N6    T    
C27   O6    S    
O10   Zn1   S    
C25   C32   S    
C15   C17   A    
O12   Zn2   S    
H10   O5    S    
C21   N7    T    
C3    O10   A    
C12   C28   S    
C10   H1    S    
C7    C9    A    
C13   C15   A    
C4    O13   A    
O1    Zn1   S    
C11   C14   A    
C14   C16   A    
C11   N1    S    
C16   O3    S    
H7    O2    S    
C2    N5    A    
C9    H3    S    
C18   C23   A    
C14   C20   S    
C30   N5    A    
C15   C21   S    
C19   C27   A    
O9    Zn1   S    
O8    Zn2   S    
C4    C6    S    
C1    O8    A    
C23   O5    S    
C6    C17   A    
C1    O1    A    
O11   Zn2   S    
C5    C16   A    
C6    C8    A    
C7    O2    S    
C3    C5    S    
C3    O12   A    
C12   O7    A    
C32   N4    A    
C10   C13   A    
C8    C10   A    
H6    O14   S    
C31   H5    S    
C2    C31   A    
O13   Zn1   S    
C31   N4    A    
