data_mof_unit_43202.cif
_audit_creation_date              2012-12-11T15:54:38-0500
_audit_creation_method            fapswitch 2.2
_symmetry_space_group_name_H-M    P1
_symmetry_Int_Tables_number       1
_space_group_crystal_system       triclinic
_cell_length_a                    6.98904
_cell_length_b                    14.720308
_cell_length_c                    16.067869
_cell_angle_alpha                 90.008024
_cell_angle_beta                  89.477859
_cell_angle_gamma                 90.263508
_cell_volume                      1652.98942948

loop_
_atom_site_label
_atom_site_type_symbol
_atom_type_description
_atom_site_fract_x
_atom_site_fract_y
_atom_site_fract_z
_atom_type_partial_charge
O1    O     O_R   0.638180 0.333920 0.163320 -0.554248
O2    O     O_R   0.361820 0.666080 0.836680 -0.556680
O3    O     O_R   0.308470 0.344960 0.336080 -0.530245
O4    O     O_R   0.691530 0.655040 0.663920 -0.552465
O5    O     O_R   0.138140 0.166110 0.336680 -0.534156
O6    O     O_R   0.861860 0.833890 0.663320 -0.527436
C1    C     C_R   0.476944 0.367077 0.364938 0.808911
C2    C     C_R   0.522841 0.631648 0.636233 0.775602
O7    O     O_R   0.308460 0.344950 0.163930 -0.551415
O8    O     O_R   0.691540 0.655050 0.836070 -0.523781
O9    O     O_R   0.138140 0.166100 0.163310 -0.538201
O10   O     O_R   0.861860 0.833900 0.836690 -0.526717
C3    C     C_R   0.477466 0.367907 0.135910 0.670385
C4    C     C_R   0.522787 0.633413 0.865336 0.668328
O11   O     O_R   0.638180 0.333930 0.336700 -0.526432
O12   O     O_R   0.361820 0.666070 0.663300 -0.517016
O13   O     O_3   0.471670 0.191340 0.250000 -0.374816
O14   O     O_3   0.528330 0.808660 0.750000 -0.367037
V1    V     V_3+5 0.196830 0.260900 0.250000 1.458855
V2    V     V_3+5 0.803170 0.739100 0.750000 1.490180
O15   O     O_R   0.808420 0.155070 0.163920 -0.550935
O16   O     O_R   0.191580 0.844930 0.836080 -0.557193
C5    C     C_R   0.978856 0.134576 0.133896 0.797089
C6    C     C_R   0.020937 0.868551 0.863658 0.785030
O17   O     O_R   0.808420 0.155080 0.336070 -0.492876
O18   O     O_R   0.191580 0.844920 0.663930 -0.500480
C7    C     C_R   0.974688 0.135585 0.366891 0.926261
C8    C     C_R   0.024581 0.865318 0.634035 0.923837
V3    V     V_3+5 0.696830 0.239130 0.250000 1.493994
V4    V     V_3+5 0.303170 0.760870 0.750000 1.511525
O19   O     O_3   0.971850 0.308690 0.250010 -0.389208
O20   O     O_3   0.028150 0.691310 0.749990 -0.383951
H1    H     H_    0.252610 0.852337 0.259631 0.172838
H2    H     H_    0.680376 0.132979 0.735748 0.189206
C9    C     C_R   0.774567 0.158596 0.530199 0.477263
C10   C     C_R   0.202723 0.837045 0.468192 0.470746
C11   C     C_R   0.693237 0.173795 0.608219 0.541715
C12   C     C_R   0.264448 0.816932 0.387820 0.544561
C13   C     C_R   0.736821 0.117928 0.674307 -0.343097
C14   C     C_R   0.214918 0.872386 0.322313 -0.357428
C15   C     C_R   0.852528 0.042648 0.662177 0.513667
C16   C     C_R   0.114722 0.952222 0.336768 0.492840
C17   C     C_R   0.921233 0.018964 0.581238 -0.106512
C18   C     C_R   0.065046 0.979584 0.419040 -0.094557
C19   C     C_R   0.891851 0.081519 0.514332 -0.193589
C20   C     C_R   0.096867 0.917390 0.485881 -0.193252
C21   C     C_R   0.019214 0.935768 0.566743 -0.060314
C22   C     C_R   0.976453 0.064769 0.434364 -0.054706
C23   C     C_R   0.172994 0.978476 0.961565 -0.242323
C24   C     C_R   0.827181 0.039279 0.024209 -0.237557
H3    H     H_    0.307706 0.960341 0.934427 0.187480
H4    H     H_    0.692622 0.066867 0.043559 0.174172
C25   C     C_R   0.170610 0.036491 0.030646 0.302402
C26   C     C_R   0.829393 0.971600 0.963085 0.340618
C27   C     C_R   0.994081 0.069521 0.062472 -0.146875
C28   C     C_R   0.005795 0.940567 0.929454 -0.136270
C29   C     C_R   0.351037 0.504752 0.443599 0.280226
C30   C     C_R   0.648027 0.490560 0.560298 0.253489
C31   C     C_R   0.362467 0.565377 0.511114 -0.139754
C32   C     C_R   0.631597 0.428218 0.494470 -0.126274
H5    H     H_    0.254403 0.617117 0.516780 0.210941
H6    H     H_    0.737932 0.375811 0.489220 0.215933
C33   C     C_R   0.512267 0.561388 0.568988 -0.158502
C34   C     C_R   0.485757 0.434251 0.434991 -0.149217
C35   C     C_R   0.328732 0.493122 0.046784 0.285812
C36   C     C_R   0.678415 0.522851 0.966494 0.306151
C37   C     C_R   0.344642 0.553514 0.979496 -0.261621
C38   C     C_R   0.661188 0.454227 0.026962 -0.249828
H7    H     H_    0.228459 0.596287 0.963772 0.165344
H8    H     H_    0.787821 0.418144 0.045635 0.130504
C39   C     C_R   0.514688 0.566640 0.935924 -0.125837
C40   C     C_R   0.486800 0.437803 0.068320 -0.123455
F1    F     F_    0.727924 0.218619 0.470673 -0.699908
F2    F     F_    0.251382 0.776868 0.527398 -0.701155
F3    F     F_    0.570941 0.243957 0.619714 -0.670996
F4    F     F_    0.368935 0.741167 0.372959 -0.682219
F5    F     F_    0.900836 0.995920 0.731396 -0.712490
F6    F     F_    0.054133 0.998118 0.268933 -0.722214
N1    N     N_2   0.347522 0.054007 0.070061 -0.530473
H9    H     H_    0.389676 0.120930 0.075037 0.250629
C41   C     C_3   0.391358 0.995243 0.139695 -0.400916
H10   H     H_    0.300136 0.933264 0.139585 0.185968
H11   H     H_    0.542334 0.973070 0.136024 0.184236
H12   H     H_    0.370749 0.031969 0.199173 0.241862
N2    N     N_2   0.651400 0.932625 0.941251 -0.511480
H13   H     H_    0.615537 0.935077 0.879221 0.287993
C42   C     C_3   0.599405 0.850388 0.985885 -0.540533
H14   H     H_    0.589513 0.793052 0.941787 0.189577
H15   H     H_    0.457804 0.858164 0.016212 0.195938
H16   H     H_    0.704107 0.833994 0.035343 0.183050
N3    N     N_2   0.212704 0.519705 0.380923 -0.536720
H17   H     H_    0.212508 0.585648 0.359403 0.305100
C43   C     C_3   0.022495 0.489346 0.402856 -0.490866
H18   H     H_    0.963430 0.532600 0.453404 0.184481
H19   H     H_    0.025214 0.417255 0.423100 0.218889
H20   H     H_    0.928221 0.494753 0.347874 0.191553
N4    N     N_2   0.806282 0.481126 0.614752 -0.525899
H21   H     H_    0.899663 0.535489 0.614786 0.264803
C44   C     C_3   0.762265 0.445539 0.696693 -0.431508
H22   H     H_    0.897179 0.434894 0.731242 0.183215
H23   H     H_    0.687105 0.379442 0.691783 0.257924
H24   H     H_    0.671254 0.493351 0.732586 0.159203
N5    N     N_2   0.156828 0.494799 0.094493 -0.544967
H25   H     H_    0.083837 0.434172 0.098471 0.265322
C45   C     C_3   0.168287 0.545073 0.171652 -0.480230
H26   H     H_    0.024531 0.547737 0.201460 0.193313
H27   H     H_    0.217506 0.615769 0.159508 0.192624
H28   H     H_    0.269373 0.512018 0.214835 0.212177
N6    N     N_2   0.861164 0.559951 0.949586 -0.498896
H29   H     H_    0.970585 0.513665 0.952233 0.254547
C46   C     C_3   0.894660 0.646380 0.991404 -0.484293
H30   H     H_    0.973136 0.693192 0.949010 0.180822
H31   H     H_    0.977460 0.636691 0.048832 0.204466
H32   H     H_    0.759609 0.679600 0.010825 0.168422

loop_
_geom_bond_atom_site_label_1
_geom_bond_atom_site_label_2
_ccdc_geom_bond_type
C7    C22   S    
C36   C38   A    
C42   H14   S    
C8    C21   S    
C43   H18   S    
O13   V3    S    
C4    C39   S    
C46   H30   S    
C6    C28   S    
O4    C2    A    
V1    O19   S    
N4    H21   S    
C13   C15   A    
C12   F4    S    
N2    H13   S    
C45   H27   S    
O9    V1    S    
C24   C26   A    
C9    C11   A    
O3    C1    A    
N6    C46   S    
C15   F5    S    
C29   C31   A    
O12   V4    S    
C32   H6    S    
O7    C3    A    
N4    C44   S    
O5    C7    A    
O7    V1    S    
O6    C8    A    
C44   H22   S    
O8    V2    S    
C35   C37   A    
C24   H4    S    
O3    V1    S    
O14   V4    S    
C29   N3    S    
C37   C39   A    
N2    C42   S    
C11   F3    S    
C2    O12   A    
C12   C14   A    
C15   C17   A    
C30   N4    S    
C16   C18   A    
C41   H11   S    
C18   C20   A    
O11   V3    S    
C25   C27   A    
O17   V3    S    
C11   C13   A    
C45   H28   S    
C26   C28   A    
C31   H5    S    
H1    C14   S    
H2    C13   S    
C46   H31   S    
O8    C4    A    
N3    H17   S    
N1    C41   S    
C1    O11   A    
C23   H3    S    
O15   V3    S    
C41   H10   S    
C37   H7    S    
N3    C43   S    
C36   C39   A    
C38   C40   A    
O10   V2    S    
O1    V3    S    
N5    C45   S    
C10   C20   A    
C17   C19   A    
C10   F2    S    
C44   H23   S    
C16   F6    S    
C43   H20   S    
O15   C5    A    
O16   C6    A    
O1    C3    A    
C35   N5    S    
C9    C19   A    
C41   H12   S    
C29   C34   A    
V2    O20   S    
C19   C22   A    
C30   C33   A    
C20   C21   A    
C9    F1    S    
O16   V4    S    
C25   N1    S    
O18   C8    A    
C14   C16   A    
C26   N2    S    
C5    C27   S    
O5    V1    S    
C3    C40   S    
O17   C7    A    
C35   C40   A    
O6    V2    S    
C45   H26   S    
O10   C6    A    
C31   C33   A    
C24   C27   A    
O2    V4    S    
C32   C34   A    
C10   C12   A    
V3    O19   S    
C23   C28   A    
N6    H29   S    
V4    O20   S    
C43   H19   S    
C17   C21   A    
C23   C25   A    
O9    C5    A    
O13   V1    S    
C46   H32   S    
O14   V2    S    
C36   N6    S    
O2    C4    A    
C1    C34   S    
C2    C33   S    
N1    H9    S    
O4    V2    S    
C44   H24   S    
C38   H8    S    
C42   H16   S    
N5    H25   S    
C42   H15   S    
C30   C32   A    
C18   C22   A    
O18   V4    S    
