data_mof_unit_49363.cif
_audit_creation_date              2012-12-11T16:43:14-0500
_audit_creation_method            fapswitch 2.2
_symmetry_space_group_name_H-M    P1
_symmetry_Int_Tables_number       1
_space_group_crystal_system       triclinic
_cell_length_a                    6.917654
_cell_length_b                    23.296462
_cell_length_c                    25.852021
_cell_angle_alpha                 104.716716
_cell_angle_beta                  90.107952
_cell_angle_gamma                 90.363939
_cell_volume                      4029.44427648

loop_
_atom_site_label
_atom_site_type_symbol
_atom_type_description
_atom_site_fract_x
_atom_site_fract_y
_atom_site_fract_z
_atom_type_partial_charge
O1    O     O_R   0.505750 0.453350 0.547660 -0.544373
O2    O     O_R   0.170990 0.432220 0.437590 -0.543834
O3    O     O_R   0.005600 0.546650 0.452340 -0.542608
C1    C     C_R   0.340074 0.415249 0.417654 0.701889
O4    O     O_R   0.175720 0.446240 0.546340 -0.545811
O5    O     O_R   0.010370 0.560770 0.561860 -0.542957
C2    C     C_R   0.344707 0.434180 0.562875 0.676955
O6    O     O_R   0.500990 0.439230 0.438140 -0.542233
O7    O     O_3   0.340820 0.537560 0.504970 -0.356038
V1    V     V_3+5 0.064050 0.493030 0.499080 1.409312
O8    O     O_R   0.680940 0.567780 0.562410 -0.528803
C3    C     C_R   0.850482 0.585918 0.581546 0.753360
O9    O     O_R   0.676210 0.553760 0.453660 -0.531554
C4    C     C_R   0.845253 0.565926 0.437218 0.717805
V2    V     V_3+5 0.564640 0.506970 0.500920 1.451077
O10   O     O_3   0.837740 0.462440 0.495030 -0.377065
C5    C     C_R   0.773621 0.884704 0.122638 -0.160407
H1    H     H_    0.641971 0.904030 0.112110 0.119405
C6    C     C_R   0.762274 0.849231 0.158868 -0.142656
H2    H     H_    0.622694 0.842838 0.175521 0.100531
C7    C     C_R   0.929145 0.823449 0.174249 0.095083
C8    C     C_R   0.107842 0.834170 0.152308 -0.140411
H3    H     H_    0.238986 0.814383 0.162559 0.099462
C9    C     C_R   0.119334 0.869835 0.116161 -0.161807
H4    H     H_    0.259324 0.877029 0.100122 0.119018
C10   C     C_R   0.952308 0.895602 0.100829 -0.056460
C11   C     C_R   0.062632 0.788131 0.251603 -0.150874
H5    H     H_    0.185199 0.817853 0.254092 0.110749
C12   C     C_R   0.050348 0.753097 0.288218 -0.147279
H6    H     H_    0.163968 0.756841 0.317775 0.112183
C13   C     C_R   0.891754 0.714717 0.287414 0.082939
C14   C     C_R   0.745734 0.712420 0.248956 -0.149420
H7    H     H_    0.623175 0.682693 0.246471 0.110423
C15   C     C_R   0.758030 0.747448 0.212336 -0.149812
H8    H     H_    0.644431 0.743686 0.182772 0.108914
C16   C     C_R   0.916652 0.785818 0.213129 0.081157
C17   C     C_R   0.700858 0.666305 0.348244 -0.139841
H9    H     H_    0.569706 0.686188 0.338117 0.101437
C18   C     C_R   0.689521 0.630517 0.384290 -0.134903
H10   H     H_    0.549642 0.623345 0.400406 0.129288
C19   C     C_R   0.856572 0.604586 0.399415 -0.054015
C20   C     C_R   0.035150 0.615504 0.377562 -0.153151
H11   H     H_    0.166820 0.596079 0.387957 0.122268
C21   C     C_R   0.046346 0.651114 0.341448 -0.137414
H12   H     H_    0.185828 0.657513 0.324741 0.100314
C22   C     C_R   0.879429 0.677012 0.326230 0.093051
C23   C     C_R   0.025062 0.642289 0.663209 -0.248195
C24   C     C_R   0.862592 0.637607 0.629507 -0.106722
C25   C     C_R   0.714583 0.681220 0.642878 -0.067467
C26   C     C_R   0.728464 0.726810 0.691274 0.020555
C27   C     C_R   0.893287 0.729986 0.724578 0.053932
C28   C     C_R   0.042044 0.687954 0.710098 0.092245
C29   C     C_R   0.584248 0.770481 0.706852 -0.175276
C30   C     C_R   0.600707 0.814946 0.754361 -0.178884
C31   C     C_R   0.762849 0.817983 0.787333 0.088041
C32   C     C_R   0.910967 0.775856 0.772329 0.061922
C33   C     C_R   0.077213 0.779764 0.804960 0.090602
C34   C     C_R   0.223515 0.737479 0.789942 -0.179298
C35   C     C_R   0.205982 0.691970 0.743009 -0.192761
C36   C     C_R   0.779525 0.862856 0.834889 -0.216640
C37   C     C_R   0.944797 0.867361 0.867509 -0.082372
C38   C     C_R   0.094151 0.825855 0.851998 -0.224594
H13   H     H_    0.138841 0.609545 0.653254 0.126031
H14   H     H_    0.456477 0.770884 0.682836 0.129208
H15   H     H_    0.485999 0.847220 0.765240 0.131505
H16   H     H_    0.664436 0.894986 0.846081 0.125353
H17   H     H_    0.222083 0.828891 0.876865 0.128006
H18   H     H_    0.352056 0.739697 0.814415 0.134795
H19   H     H_    0.321664 0.660030 0.732251 0.124859
C39   C     C_R   0.289794 0.179489 0.133342 -0.074827
C40   C     C_R   0.452183 0.140634 0.127214 -0.132726
C41   C     C_R   0.594624 0.150941 0.167095 -0.137343
C42   C     C_R   0.576070 0.196596 0.213891 0.120425
C43   C     C_R   0.412050 0.233771 0.221619 0.046874
C44   C     C_R   0.270328 0.227682 0.180478 -0.011375
C45   C     C_R   0.719734 0.205046 0.253627 -0.155891
C46   C     C_R   0.701436 0.249300 0.301204 -0.193235
C47   C     C_R   0.537649 0.285494 0.310421 0.100927
C48   C     C_R   0.392165 0.277677 0.270739 0.068054
C49   C     C_R   0.227857 0.314108 0.280229 0.057655
C50   C     C_R   0.091754 0.309697 0.239602 -0.190405
C51   C     C_R   0.115852 0.270032 0.189091 -0.018029
C52   C     C_R   0.518353 0.329935 0.358414 -0.213825
C53   C     C_R   0.352935 0.365979 0.368273 -0.081925
C54   C     C_R   0.206879 0.357038 0.329209 -0.211149
H20   H     H_    0.717229 0.121359 0.162761 0.150297
H21   H     H_    0.847212 0.177355 0.247838 0.129483
H22   H     H_    0.815290 0.255001 0.330964 0.129919
H23   H     H_    0.632281 0.336411 0.388245 0.125597
H24   H     H_    0.080761 0.385346 0.335962 0.122503
H25   H     H_    0.971600 0.340391 0.246281 0.163486
C55   C     C_R   0.275020 0.115907 0.878095 -0.160894
H26   H     H_    0.142859 0.096710 0.888876 0.120670
C56   C     C_R   0.263706 0.151542 0.842036 -0.142093
H27   H     H_    0.123673 0.158122 0.825759 0.100751
C57   C     C_R   0.431020 0.177223 0.826321 0.094707
C58   C     C_R   0.610219 0.166211 0.847780 -0.139953
H28   H     H_    0.741806 0.185899 0.837252 0.099559
C59   C     C_R   0.621675 0.130355 0.883782 -0.157432
H29   H     H_    0.761976 0.122925 0.899459 0.120075
C60   C     C_R   0.454127 0.104680 0.899412 -0.053211
C61   C     C_R   0.562140 0.212589 0.748659 -0.149653
H30   H     H_    0.683507 0.182858 0.745874 0.110705
C62   C     C_R   0.549101 0.247528 0.711991 -0.150281
H31   H     H_    0.661032 0.243700 0.682117 0.108974
C63   C     C_R   0.391865 0.285902 0.713140 0.081258
C64   C     C_R   0.248009 0.288288 0.752022 -0.150539
H32   H     H_    0.126617 0.318008 0.754795 0.110175
C65   C     C_R   0.261053 0.253351 0.788693 -0.149854
H33   H     H_    0.149106 0.257173 0.818562 0.109285
C66   C     C_R   0.418256 0.214960 0.787532 0.081706
C67   C     C_R   0.199704 0.334429 0.652767 -0.140803
H34   H     H_    0.068185 0.314759 0.663357 0.099476
C68   C     C_R   0.188138 0.370096 0.616607 -0.163139
H35   H     H_    0.047810 0.377416 0.600885 0.118749
C69   C     C_R   0.355612 0.395707 0.600863 -0.052773
C70   C     C_R   0.534728 0.384681 0.622298 -0.161325
H36   H     H_    0.666815 0.403879 0.611475 0.119112
C71   C     C_R   0.546155 0.349227 0.658509 -0.143731
H37   H     H_    0.686200 0.342761 0.674838 0.100415
C72   C     C_R   0.378941 0.323552 0.674281 0.094994
O11   O     O_R   0.308350 0.060850 0.061810 -0.538176
O12   O     O_R   0.633860 0.053770 0.953650 -0.542598
O13   O     O_R   0.798960 0.939210 0.938150 -0.542628
C73   C     C_R   0.464914 0.065978 0.937194 0.674687
O14   O     O_R   0.638360 0.067800 0.062400 -0.512374
O15   O     O_R   0.803500 0.953330 0.047670 -0.541148
C74   C     C_R   0.468328 0.086760 0.080895 0.702461
O16   O     O_R   0.303810 0.046730 0.952290 -0.545507
O17   O     O_3   0.468430 0.962490 0.995010 -0.374065
V3    V     V_3+5 0.745300 0.006960 0.000930 1.453911
O18   O     O_R   0.132880 0.946160 0.046390 -0.543816
C75   C     C_R   0.963783 0.934106 0.062885 0.693033
O19   O     O_R   0.128380 0.932130 0.937650 -0.545599
C76   C     C_R   0.958850 0.915744 0.917348 0.703350
V4    V     V_3+5 0.244670 0.992930 0.999140 1.415283
O20   O     O_3   0.971670 0.037510 0.005000 -0.352810
C77   C     C_2   0.550331 0.681184 0.605739 0.395485
H38   H     H_    0.402917 0.684708 0.620406 0.034858
O21   O     O_2   0.579447 0.678912 0.558681 -0.520568
C78   C     C_2   0.140164 0.166819 0.090847 0.370981
H39   H     H_    0.180427 0.163921 0.049699 0.035156
O22   O     O_2   0.973723 0.156148 0.101039 -0.527549
C79   C     C_2   0.989433 0.280081 0.145845 0.462955
H40   H     H_    0.045754 0.275119 0.105861 0.024737
O23   O     O_2   0.821891 0.295670 0.154814 -0.527224

loop_
_geom_bond_atom_site_label_1
_geom_bond_atom_site_label_2
_ccdc_geom_bond_type
C31   C32   A    
C11   C12   A    
C19   C20   A    
C6    H2    S    
C1    O6    A    
C62   C63   A    
C58   H28   S    
C33   C38   A    
C18   C19   A    
C30   H15   S    
C29   C30   A    
C32   C33   A    
C12   H6    S    
C38   H17   S    
C5    C10   A    
C7    C8    A    
C6    C7    A    
C17   H9    S    
C9    C10   A    
C27   C32   A    
C78   O22   D    
C23   H13   S    
C29   H14   S    
O12   C73   A    
C63   C64   A    
V2    O10   S    
C69   C70   A    
C15   H8    S    
C42   C43   A    
C62   H31   S    
C65   C66   A    
C61   H30   S    
O8    V2    S    
C47   C52   A    
C59   H29   S    
C46   H22   S    
O18   C75   A    
C13   C22   S    
C60   C73   S    
C64   H32   S    
C39   C40   A    
O1    V2    S    
O7    V1    S    
C3    C24   S    
C56   C57   A    
C36   H16   S    
O9    C4    A    
C64   C65   A    
C61   C66   A    
C56   H27   S    
C20   C21   A    
C67   C68   A    
C67   H34   S    
C58   C59   A    
C21   C22   A    
C50   C51   A    
C71   C72   A    
C52   H23   S    
C57   C66   S    
C26   C29   A    
C43   C44   A    
C27   C28   A    
C23   C24   A    
C53   C54   A    
C9    H4    S    
C51   C79   S    
C18   H10   S    
C7    C16   S    
C47   C48   A    
C41   C42   A    
O19   V4    S    
C26   C27   A    
C34   C35   A    
C46   C47   A    
O13   V3    S    
C36   C37   A    
C14   C15   A    
C2    C69   S    
O2    C1    A    
C49   C54   A    
V3    O20   S    
C28   C35   A    
O16   V4    S    
C68   C69   A    
C52   C53   A    
C1    C53   S    
O18   V4    S    
C57   C58   A    
C55   C56   A    
C5    H1    S    
C45   C46   A    
C71   H37   S    
C61   C62   A    
C45   H21   S    
O11   V4    S    
C23   C28   A    
O3    C4    A    
C77   O21   D    
C55   C60   A    
C35   H19   S    
C4    C19   S    
C79   O23   D    
C24   C25   A    
C59   C60   A    
O6    V2    S    
C43   C48   A    
O9    V2    S    
C42   C45   A    
C8    C9    A    
C40   C74   S    
C20   H11   S    
O2    V1    S    
C11   H5    S    
C21   H12   S    
C37   C76   S    
O4    C2    A    
C34   H18   S    
C30   C31   A    
C39   C78   S    
O14   C74   A    
O13   C76   A    
O12   V3    S    
O1    C2    A    
C13   C14   A    
O17   V4    S    
O15   C75   A    
C49   C50   A    
O5    V1    S    
C41   H20   S    
C54   H24   S    
C44   C51   A    
C68   H35   S    
O19   C76   A    
C11   C16   A    
C70   H36   S    
C79   H40   S    
C14   H7    S    
C70   C71   A    
O17   V3    S    
O7    V2    S    
O4    V1    S    
C12   C13   A    
O3    V1    S    
V1    O10   S    
C78   H39   S    
O5    C3    A    
C33   C34   A    
O14   V3    S    
C63   C72   S    
C55   H26   S    
C5    C6    A    
C15   C16   A    
O11   C74   A    
C37   C38   A    
O15   V3    S    
C77   H38   S    
C48   C49   A    
C50   H25   S    
C73   O16   A    
C67   C72   A    
C40   C41   A    
C17   C18   A    
C25   C26   A    
C65   H33   S    
C39   C44   A    
C10   C75   S    
C8    H3    S    
V4    O20   S    
C25   C77   S    
C17   C22   A    
C31   C36   A    
O8    C3    A    
