data_mof_unit_33355.cif
_audit_creation_date              2012-12-10T20:44:43-0500
_audit_creation_method            fapswitch 2.2
_symmetry_space_group_name_H-M    P1
_symmetry_Int_Tables_number       1
_space_group_crystal_system       triclinic
_cell_length_a                    9.87694
_cell_length_b                    10.683207
_cell_length_c                    16.865235
_cell_angle_alpha                 88.967569
_cell_angle_beta                  94.880684
_cell_angle_gamma                 89.578677
_cell_volume                      1772.7645894

loop_
_atom_site_label
_atom_site_type_symbol
_atom_type_description
_atom_site_fract_x
_atom_site_fract_y
_atom_site_fract_z
_atom_type_partial_charge
C1    C     C_R   0.500011 0.260068 0.497862 0.911169
C2    C     C_R   0.651967 0.498395 0.784320 -0.218864
C3    C     C_R   0.579182 0.580583 0.142974 -0.156856
C4    C     C_R   0.587575 0.558061 0.224034 -0.218721
C5    C     C_R   0.453790 0.568551 0.097514 0.324910
C6    C     C_R   0.471039 0.525188 0.261181 -0.032572
C7    C     C_R   0.344786 0.519215 0.216713 -0.215296
C8    C     C_R   0.336559 0.541115 0.135000 -0.177813
C9    C     C_R   0.620421 0.063428 0.483839 0.143040
C10   C     C_R   0.498549 0.129024 0.485688 -0.111932
C11   C     C_R   0.374367 0.066479 0.472930 -0.197307
C12   C     C_R   0.517954 0.500964 0.653192 0.899288
C13   C     C_R   0.374001 0.937203 0.473187 -0.207818
C14   C     C_R   0.497756 0.871918 0.485796 -0.114051
C15   C     C_R   0.620021 0.935675 0.483762 0.146034
C16   C     C_3   0.747245 0.925896 0.538420 -0.463772
C17   C     C_3   0.747361 0.067788 0.538703 -0.490483
C18   C     C_R   0.077630 0.406318 0.538062 0.096496
C19   C     C_R   0.063091 0.585562 0.455031 0.012554
C20   C     C_R   0.919236 0.585051 0.456089 -0.101164
C21   C     C_R   0.935203 0.406389 0.538095 0.194951
C22   C     C_3   0.942374 0.373085 0.624657 -0.590143
C23   C     C_R   0.499349 0.740082 0.497802 0.875221
C24   C     C_3   0.096572 0.373031 0.624479 -0.212411
C25   C     C_R   0.481924 0.505061 0.346780 0.862647
C26   C     C_R   0.528172 0.517572 0.738614 -0.020051
C27   C     C_R   0.413761 0.559718 0.774346 -0.197340
C28   C     C_R   0.421874 0.579822 0.855181 -0.154058
C29   C     C_R   0.545004 0.556704 0.901744 0.325506
C30   C     C_R   0.660040 0.518192 0.865718 -0.182607
H1    H     H_    0.685587 0.566701 0.257466 0.170749
H2    H     H_    0.277450 0.889538 0.469233 0.193072
H3    H     H_    0.730309 0.882760 0.597241 0.206166
H4    H     H_    0.833214 0.885243 0.508664 0.223453
H5    H     H_    0.729888 0.107082 0.597632 0.204687
H6    H     H_    0.833642 0.109231 0.509379 0.207265
H7    H     H_    0.856586 0.653633 0.421772 0.185449
H8    H     H_    0.903643 0.449814 0.660363 0.213858
H9    H     H_    0.897581 0.279893 0.635724 0.191315
H10   H     H_    0.146094 0.448328 0.660930 0.188674
H11   H     H_    0.671283 0.604631 0.115845 0.153670
H12   H     H_    0.755037 0.500349 0.901254 0.143265
H13   H     H_    0.741514 0.466764 0.757533 0.154184
H14   H     H_    0.253258 0.496167 0.244754 0.162046
H15   H     H_    0.331369 0.611642 0.881071 0.151006
H16   H     H_    0.239685 0.532517 0.100359 0.143422
H17   H     H_    0.317960 0.578369 0.739859 0.154886
H18   H     H_    0.277891 0.116133 0.468461 0.170416
N1    N     N_2   0.555139 0.562893 0.985313 -0.202594
N2    N     N_2   0.443494 0.573748 0.013775 -0.202084
N3    N     N_R   0.142860 0.499130 0.500540 -0.156557
N4    N     N_R   0.857210 0.499170 0.500530 -0.120175
O1    O     O_R   0.614690 0.316790 0.499990 -0.612265
O2    O     O_R   0.385350 0.316760 0.500000 -0.614973
O3    O     O_R   0.627460 0.498860 0.616130 -0.623602
O4    O     O_R   0.398120 0.498820 0.616130 -0.608303
O5    O     O_R   0.614650 0.683240 0.500000 -0.618749
O6    O     O_R   0.385310 0.683210 0.500010 -0.652732
O7    O     O_R   0.601880 0.501180 0.383870 -0.620130
O8    O     O_R   0.372540 0.501140 0.383870 -0.655465
Zn1   Zn    Zn3+2 0.653130 0.500020 0.499990 0.949021
Zn2   Zn    Zn3+2 0.346870 0.499980 0.500010 0.940493
C31   C     C_2   0.122932 0.680590 0.403793 0.358637
H19   H     H_    0.225355 0.672419 0.387766 0.142885
O9    O     O_2   0.055934 0.770680 0.377007 -0.614630
C32   C     C_2   0.161159 0.245992 0.638641 0.487397
H20   H     H_    0.120886 0.165734 0.606068 0.043844
O10   O     O_2   0.259995 0.232331 0.686648 -0.566156

loop_
_geom_bond_atom_site_label_1
_geom_bond_atom_site_label_2
_ccdc_geom_bond_type
C14   C23   S    
O6    Zn2   S    
C23   O6    A    
C32   O10   D    
C1    O2    A    
C31   O9    D    
O5    Zn1   S    
C29   C30   A    
C17   H6    S    
C16   H3    S    
C5    C8    A    
C18   C21   A    
C17   H5    S    
C9    C10   A    
C13   H2    S    
C19   C20   A    
C24   C32   S    
C2    H13   S    
C2    C30   A    
C32   H20   S    
C11   H18   S    
C7    C8    A    
C20   N4    A    
C29   N1    S    
C21   C22   S    
O8    Zn2   S    
C20   H7    S    
C11   C13   A    
C26   C27   A    
C12   O4    A    
N3    Zn2   S    
O1    Zn1   S    
C18   C24   S    
C22   H9    S    
O3    Zn1   S    
C9    C17   S    
C28   C29   A    
C24   H10   S    
C12   C26   S    
C18   N3    A    
N1    N2    D    
C6    C7    A    
C22   C24   S    
N4    Zn1   S    
C21   N4    A    
C9    C15   A    
C28   H15   S    
O4    Zn2   S    
C5    N2    S    
O7    Zn1   S    
C12   O3    A    
C10   C11   A    
C31   H19   S    
C6    C25   S    
C19   N3    A    
C4    H1    S    
C3    C4    A    
C2    C26   A    
C4    C6    A    
C27   H17   S    
C27   C28   A    
C23   O5    A    
C1    O1    A    
C14   C15   A    
C3    H11   S    
C25   O7    A    
C8    H16   S    
C16   H4    S    
C13   C14   A    
O2    Zn2   S    
C7    H14   S    
C25   O8    A    
C30   H12   S    
C1    C10   S    
C15   C16   S    
C19   C31   S    
C16   C17   S    
C3    C5    A    
C22   H8    S    
