data_mof_unit_64074.cif
_audit_creation_date              2012-12-10T17:06:34-0500
_audit_creation_method            fapswitch 2.2
_symmetry_space_group_name_H-M    P1
_symmetry_Int_Tables_number       1
_space_group_crystal_system       triclinic
_cell_length_a                    14.154312
_cell_length_b                    10.710568
_cell_length_c                    10.04522
_cell_angle_alpha                 89.863557
_cell_angle_beta                  90.360022
_cell_angle_gamma                 90.396374
_cell_volume                      1522.79193

loop_
_atom_site_label
_atom_site_type_symbol
_atom_type_description
_atom_site_fract_x
_atom_site_fract_y
_atom_site_fract_z
_atom_type_partial_charge
C1    C     C_R   0.492764 0.262632 0.500017 0.825995
C2    C     C_R   0.502152 0.737624 0.499622 0.949362
C3    C     C_R   0.670771 0.499992 0.500346 0.905659
C4    C     C_1   0.227730 0.499984 0.499054 -0.180252
C5    C     C_1   0.142483 0.500031 0.499201 0.005536
C6    C     C_1   0.042604 0.500107 0.499823 0.019209
C7    C     C_1   0.957365 0.500157 0.500445 0.016485
C8    C     C_1   0.857488 0.500167 0.500993 -0.004635
C9    C     C_2   0.404444 0.088071 0.611754 0.403250
C10   C     C_2   0.650809 0.611818 0.872678 0.490015
C11   C     C_1   0.772245 0.500113 0.501035 -0.198906
C12   C     C_2   0.479264 0.932441 0.389464 -0.116958
C13   C     C_2   0.507742 0.870161 0.497472 -0.254948
C14   C     C_2   0.483224 0.066778 0.389572 -0.169282
C15   C     C_2   0.463686 0.133843 0.498813 -0.168923
C16   C     C_2   0.570029 0.541258 0.927853 0.008510
C17   C     C_2   0.574619 0.518130 0.075407 -0.223932
C18   C     C_R   0.329215 0.499968 0.499665 0.890130
H1    H     H_    0.458039 0.885416 0.298203 0.173446
H2    H     H_    0.533749 0.917228 0.586290 0.160685
H3    H     H_    0.514120 0.109639 0.301690 0.165565
H4    H     H_    0.450399 0.446243 0.896834 0.149826
H5    H     H_    0.642639 0.526729 0.125080 0.164950
H6    H     H_    0.436217 0.505453 0.100955 0.172572
H7    H     H_    0.409204 0.133418 0.708075 0.076013
H8    H     H_    0.720669 0.599920 0.915833 0.011677
N1    N     N_2   0.500930 0.501330 0.852150 -0.187659
N2    N     N_2   0.500950 0.501360 0.147810 -0.178661
O1    O     O_R   0.499990 0.319060 0.613040 -0.632664
O2    O     O_2   0.639762 0.690214 0.786021 -0.548516
O3    O     O_R   0.500010 0.319100 0.386900 -0.594260
O4    O     O_R   0.373700 0.499980 0.613090 -0.597662
O5    O     O_R   0.373730 0.500020 0.386960 -0.596450
O6    O     O_R   0.499990 0.680900 0.613100 -0.538503
O7    O     O_R   0.500010 0.680940 0.386960 -0.619023
O8    O     O_R   0.626270 0.499980 0.613040 -0.566502
O9    O     O_R   0.626300 0.500020 0.386910 -0.601830
O10   O     O_2   0.346626 0.004024 0.596657 -0.544922
Zn1   Zn    Zn3+2 0.499980 0.499970 0.650990 0.986259
Zn2   Zn    Zn3+2 0.500020 0.500030 0.349010 0.949345

loop_
_geom_bond_atom_site_label_1
_geom_bond_atom_site_label_2
_ccdc_geom_bond_type
C2    O7    A    
C6    C7    T    
C1    C15   S    
C10   O2    D    
C4    C18   S    
C10   H8    S    
C16   N1    D    
C1    O1    A    
O7    Zn2   S    
C9    C15   S    
C9    H7    S    
C7    C8    S    
C10   C16   S    
C12   C13   D    
O1    Zn1   S    
C17   H5    S    
C3    O8    A    
C8    C11   T    
C14   H3    S    
C9    O10   D    
C12   C14   S    
O9    Zn2   S    
H4    N1    S    
C5    C6    S    
C18   O5    A    
O5    Zn2   S    
C18   O4    A    
N2    Zn2   S    
O6    Zn1   S    
C1    O3    A    
C3    C11   S    
O3    Zn2   S    
C12   H1    S    
O4    Zn1   S    
C2    C13   S    
C14   C15   D    
C16   C17   S    
C13   H2    S    
C2    O6    A    
C17   N2    D    
O8    Zn1   S    
H6    N2    S    
C3    O9    A    
N1    Zn1   S    
C4    C5    T    
