data_mof_unit_65616.cif
_audit_creation_date              2012-12-10T19:48:48-0500
_audit_creation_method            fapswitch 2.2
_symmetry_space_group_name_H-M    P1
_symmetry_Int_Tables_number       1
_space_group_crystal_system       triclinic
_cell_length_a                    26.054477
_cell_length_b                    26.054455
_cell_length_c                    22.222026
_cell_angle_alpha                 90.000032
_cell_angle_beta                  54.112397
_cell_angle_gamma                 90.0
_cell_volume                      12221.467427

loop_
_atom_site_label
_atom_site_type_symbol
_atom_type_description
_atom_site_fract_x
_atom_site_fract_y
_atom_site_fract_z
_atom_type_partial_charge
C1    C     C_R   0.849477 0.750041 0.301055 0.503161
C2    C     C_R   0.445307 0.250570 0.500538 0.029568
C3    C     C_R   0.304284 0.974100 0.456353 0.020341
C4    C     C_R   0.749189 0.554455 0.500571 0.029517
C5    C     C_R   0.749189 0.445545 0.500571 0.029517
C6    C     C_R   0.249189 0.054455 0.500571 0.029517
C7    C     C_R   0.249189 0.945545 0.500571 0.029517
C8    C     C_R   0.691868 0.526993 0.546493 -0.161421
C9    C     C_R   0.691868 0.473006 0.546493 -0.161422
C10   C     C_R   0.191868 0.026993 0.546493 -0.161422
C11   C     C_R   0.191868 0.973006 0.546493 -0.161421
C12   C     C_3   0.874252 0.470431 0.400765 -0.267029
C13   C     C_R   0.945307 0.249429 0.500537 0.029568
C14   C     C_3   0.874252 0.529569 0.400765 -0.267028
C15   C     C_3   0.374252 0.970431 0.400766 -0.267028
C16   C     C_3   0.374252 0.029569 0.400766 -0.267028
C17   C     C_R   0.750015 0.890013 0.500070 0.507765
C18   C     C_R   0.750015 0.109987 0.500070 0.507765
C19   C     C_R   0.250015 0.390013 0.500070 0.507765
C20   C     C_R   0.250015 0.609987 0.500070 0.507765
C21   C     C_R   0.889993 0.750049 0.500052 0.507759
C22   C     C_R   0.889993 0.249951 0.500052 0.507760
C23   C     C_R   0.389993 0.250049 0.500052 0.507760
C24   C     C_R   0.945307 0.750570 0.500537 0.029567
C25   C     C_R   0.389993 0.749951 0.500052 0.507759
C26   C     C_R   0.609988 0.749997 0.500080 0.507707
C27   C     C_R   0.609988 0.250002 0.500080 0.507706
C28   C     C_R   0.109988 0.249997 0.500080 0.507706
C29   C     C_R   0.109988 0.750002 0.500080 0.507707
C30   C     C_R   0.547698 0.782502 0.456436 0.020343
C31   C     C_R   0.547698 0.217498 0.456436 0.020343
C32   C     C_R   0.047698 0.282502 0.456436 0.020344
C33   C     C_R   0.047698 0.717499 0.456436 0.020344
C34   C     C_R   0.554191 0.749457 0.500561 0.029572
C35   C     C_R   0.495908 0.782488 0.456424 0.020318
C36   C     C_R   0.554191 0.250543 0.500561 0.029571
C37   C     C_R   0.054191 0.249457 0.500561 0.029571
C38   C     C_R   0.054191 0.750543 0.500561 0.029572
C39   C     C_R   0.503845 0.715007 0.546352 -0.161442
C40   C     C_R   0.503844 0.284992 0.546353 -0.161442
C41   C     C_R   0.003845 0.215007 0.546352 -0.161442
C42   C     C_R   0.003845 0.784993 0.546353 -0.161442
C43   C     C_R   0.495908 0.217512 0.456423 0.020319
C44   C     C_R   0.995908 0.282488 0.456424 0.020320
C45   C     C_R   0.995908 0.717512 0.456423 0.020318
C46   C     C_3   0.519914 0.824800 0.401055 -0.267032
C47   C     C_3   0.519915 0.175201 0.401054 -0.267034
C48   C     C_3   0.019914 0.324800 0.401055 -0.267034
C49   C     C_R   0.849477 0.249959 0.301055 0.503161
C50   C     C_3   0.019914 0.675200 0.401054 -0.267033
C51   C     C_3   0.579046 0.824816 0.401068 -0.267013
C52   C     C_3   0.579047 0.175185 0.401066 -0.267012
C53   C     C_3   0.079046 0.324815 0.401068 -0.267013
C54   C     C_3   0.079047 0.675185 0.401067 -0.267013
C55   C     C_3   0.468282 0.733651 0.956909 -0.213327
C56   C     C_3   0.467312 0.262760 0.956909 -0.213356
C57   C     C_3   0.967167 0.237874 0.956909 -0.213362
C58   C     C_3   0.968161 0.765948 0.956909 -0.213331
C59   C     C_3   0.534079 0.804297 0.956942 -0.213366
C60   C     C_R   0.349478 0.250041 0.301055 0.503161
C61   C     C_3   0.537672 0.196658 0.956943 -0.213336
C62   C     C_3   0.038294 0.303151 0.956943 -0.213331
C63   C     C_3   0.034487 0.695798 0.956942 -0.213362
C64   C     C_3   0.490988 0.804289 0.043103 -0.213584
C65   C     C_3   0.494582 0.196666 0.043104 -0.213567
C66   C     C_3   0.995203 0.303143 0.043105 -0.213564
C67   C     C_3   0.991397 0.695806 0.043103 -0.213582
C68   C     C_1   0.389201 0.749957 0.221613 -0.010401
C69   C     C_1   0.389201 0.250043 0.221613 -0.010401
C70   C     C_1   0.889201 0.249957 0.221613 -0.010401
C71   C     C_R   0.349478 0.749959 0.301055 0.503161
C72   C     C_1   0.889201 0.750043 0.221613 -0.010401
C73   C     C_3   0.536623 0.749978 0.926834 0.068111
C74   C     C_3   0.536623 0.250022 0.926834 0.068111
C75   C     C_3   0.036623 0.249978 0.926834 0.068111
C76   C     C_3   0.036623 0.750022 0.926834 0.068111
C77   C     C_R   0.650571 0.749995 0.698950 0.503859
C78   C     C_R   0.650571 0.250005 0.698950 0.503859
C79   C     C_R   0.150571 0.249995 0.698950 0.503859
C80   C     C_R   0.150571 0.750005 0.698950 0.503859
C81   C     C_3   0.425191 0.733643 0.043070 -0.213565
C82   C     C_R   0.449867 0.714993 0.546341 -0.161434
C83   C     C_3   0.424220 0.262767 0.043071 -0.213581
C84   C     C_3   0.924076 0.237866 0.043071 -0.213584
C85   C     C_3   0.925069 0.765956 0.043070 -0.213567
C86   C     C_3   0.463432 0.749965 0.073181 0.068720
C87   C     C_3   0.463432 0.250035 0.073181 0.068720
C88   C     C_3   0.963432 0.249965 0.073181 0.068720
C89   C     C_3   0.963432 0.750035 0.073181 0.068720
C90   C     C_3   0.519266 0.711971 0.043095 -0.213707
C91   C     C_3   0.516643 0.290664 0.043094 -0.213707
C92   C     C_3   0.016167 0.208893 0.043093 -0.213707
C93   C     C_R   0.449867 0.285006 0.546342 -0.161433
C94   C     C_3   0.018980 0.788335 0.043095 -0.213707
C95   C     C_3   0.562358 0.711978 0.956933 -0.213709
C96   C     C_3   0.559734 0.290656 0.956932 -0.213709
C97   C     C_3   0.059258 0.208901 0.956932 -0.213709
C98   C     C_3   0.062071 0.788327 0.956933 -0.213710
C99   C     C_1   0.422624 0.749959 0.154777 -0.077897
C100  C     C_1   0.422624 0.250041 0.154777 -0.077897
C101  C     C_1   0.922624 0.249959 0.154777 -0.077897
C102  C     C_1   0.922625 0.750041 0.154777 -0.077897
C103  C     C_1   0.577431 0.749985 0.845235 -0.076305
C104  C     C_R   0.949867 0.214994 0.546341 -0.161433
C105  C     C_1   0.577431 0.250015 0.845235 -0.076305
C106  C     C_1   0.077431 0.249985 0.845235 -0.076305
C107  C     C_1   0.077431 0.750015 0.845235 -0.076305
C108  C     C_1   0.610852 0.749990 0.778397 -0.007884
C109  C     C_1   0.610852 0.250010 0.778397 -0.007884
C110  C     C_1   0.110852 0.249990 0.778397 -0.007884
C111  C     C_1   0.110852 0.750010 0.778397 -0.007884
C112  C     C_R   0.739363 0.974104 0.456387 0.020303
C113  C     C_R   0.739363 0.025896 0.456387 0.020302
C114  C     C_R   0.239362 0.474104 0.456387 0.020303
C115  C     C_R   0.949867 0.785006 0.546341 -0.161434
C116  C     C_R   0.239362 0.525896 0.456387 0.020304
C117  C     C_R   0.750270 0.945560 0.500584 0.029617
C118  C     C_R   0.750270 0.054440 0.500584 0.029617
C119  C     C_R   0.250270 0.445560 0.500584 0.029617
C120  C     C_R   0.250270 0.554440 0.500584 0.029617
C121  C     C_R   0.761697 0.973011 0.546487 -0.161477
C122  C     C_R   0.761697 0.026989 0.546487 -0.161477
C123  C     C_R   0.261698 0.473011 0.546486 -0.161477
C124  C     C_R   0.261698 0.526989 0.546486 -0.161477
C125  C     C_R   0.749953 0.610021 0.500066 0.507720
C126  C     C_R   0.445307 0.749429 0.500537 0.029567
C127  C     C_R   0.749953 0.389979 0.500066 0.507720
C128  C     C_R   0.249953 0.110021 0.500066 0.507720
C129  C     C_R   0.249953 0.889978 0.500066 0.507720
C130  C     C_3   0.724954 0.029569 0.400821 -0.267000
C131  C     C_3   0.724954 0.970431 0.400821 -0.267002
C132  C     C_3   0.224953 0.529569 0.400822 -0.267002
C133  C     C_3   0.224953 0.470431 0.400822 -0.267000
C134  C     C_R   0.804284 0.525900 0.456353 0.020341
C135  C     C_R   0.804284 0.474100 0.456353 0.020342
C136  C     C_R   0.304284 0.025900 0.456353 0.020341
H1    H     H_    0.505934 0.688165 0.582072 0.142415
H2    H     H_    0.457346 0.166712 0.063737 0.113158
H3    H     H_    0.958318 0.333408 0.063738 0.113167
H4    H     H_    0.952437 0.667498 0.063735 0.113117
H5    H     H_    0.518898 0.816926 0.063753 0.113979
H6    H     H_    0.523249 0.186607 0.063753 0.113973
H7    H     H_    0.023985 0.312746 0.063754 0.113971
H8    H     H_    0.019401 0.683458 0.063753 0.113979
H9    H     H_    0.564509 0.672547 0.936290 0.113812
H10   H     H_    0.559275 0.329456 0.936288 0.113921
H11   H     H_    0.058347 0.170230 0.936287 0.113940
H12   H     H_    0.505933 0.311834 0.582074 0.142415
H13   H     H_    0.063926 0.827697 0.936289 0.113823
H14   H     H_    0.611427 0.722922 0.936313 0.113915
H15   H     H_    0.609447 0.282321 0.936312 0.113808
H16   H     H_    0.109065 0.216777 0.936312 0.113790
H17   H     H_    0.111221 0.777675 0.936313 0.113903
H18   H     H_    0.500778 0.672535 0.063720 0.113231
H19   H     H_    0.495544 0.329467 0.063718 0.113289
H20   H     H_    0.994616 0.170219 0.063718 0.113299
H21   H     H_    0.000195 0.827708 0.063720 0.113238
H22   H     H_    0.468705 0.694617 0.936263 0.115140
H23   H     H_    0.005934 0.188165 0.582072 0.142416
H24   H     H_    0.465154 0.301046 0.936263 0.115151
H25   H     H_    0.964565 0.199736 0.936263 0.115152
H26   H     H_    0.968290 0.804906 0.936264 0.115142
H27   H     H_    0.404974 0.694605 0.063695 0.113989
H28   H     H_    0.401423 0.301058 0.063695 0.113997
H29   H     H_    0.900833 0.199724 0.063695 0.113997
H30   H     H_    0.904559 0.804918 0.063695 0.113991
H31   H     H_    0.547696 0.722911 0.063744 0.113286
H32   H     H_    0.545716 0.282332 0.063742 0.113230
H33   H     H_    0.045334 0.216766 0.063742 0.113221
H34   H     H_    0.005933 0.811835 0.582072 0.142415
H35   H     H_    0.047490 0.777686 0.063744 0.113280
H36   H     H_    0.770606 0.953065 0.582274 0.142422
H37   H     H_    0.770606 0.046935 0.582274 0.142422
H38   H     H_    0.270607 0.453065 0.582273 0.142421
H39   H     H_    0.270607 0.546935 0.582273 0.142422
H40   H     H_    0.412071 0.688142 0.582054 0.142422
H41   H     H_    0.412070 0.311857 0.582056 0.142420
H42   H     H_    0.912071 0.188142 0.582054 0.142421
H43   H     H_    0.912070 0.811857 0.582055 0.142422
H44   H     H_    0.677552 0.046627 0.424733 0.137595
H45   H     H_    0.515546 0.832393 0.936304 0.113675
H46   H     H_    0.677552 0.953372 0.424733 0.137595
H47   H     H_    0.177551 0.546627 0.424735 0.137594
H48   H     H_    0.177551 0.453372 0.424734 0.137595
H49   H     H_    0.764728 0.046635 0.347519 0.142484
H50   H     H_    0.764728 0.953365 0.347519 0.142482
H51   H     H_    0.264726 0.546635 0.347520 0.142482
H52   H     H_    0.264727 0.453365 0.347519 0.142484
H53   H     H_    0.647177 0.546937 0.582301 0.142416
H54   H     H_    0.647177 0.453063 0.582301 0.142417
H55   H     H_    0.147177 0.046937 0.582300 0.142417
H56   H     H_    0.521076 0.166701 0.936306 0.113771
H57   H     H_    0.147177 0.953063 0.582300 0.142416
H58   H     H_    0.897764 0.453375 0.424654 0.137582
H59   H     H_    0.897764 0.546625 0.424654 0.137582
H60   H     H_    0.397763 0.953375 0.424656 0.137582
H61   H     H_    0.397763 0.046625 0.424656 0.137581
H62   H     H_    0.887768 0.453367 0.347465 0.142390
H63   H     H_    0.887768 0.546633 0.347465 0.142390
H64   H     H_    0.387769 0.953367 0.347467 0.142390
H65   H     H_    0.387769 0.046633 0.347466 0.142390
H66   H     H_    0.529537 0.811794 0.347687 0.142476
H67   H     H_    0.022048 0.333419 0.936307 0.113788
H68   H     H_    0.529537 0.188207 0.347686 0.142475
H69   H     H_    0.029537 0.311794 0.347687 0.142475
H70   H     H_    0.029537 0.688207 0.347687 0.142477
H71   H     H_    0.490808 0.860189 0.425132 0.137566
H72   H     H_    0.490809 0.139812 0.425130 0.137565
H73   H     H_    0.990808 0.360188 0.425132 0.137565
H74   H     H_    0.990809 0.639811 0.425132 0.137566
H75   H     H_    0.622803 0.811818 0.347708 0.142461
H76   H     H_    0.622803 0.188184 0.347706 0.142461
H77   H     H_    0.122803 0.311818 0.347708 0.142462
H78   H     H_    0.016166 0.667487 0.936304 0.113685
H79   H     H_    0.122803 0.688183 0.347706 0.142461
H80   H     H_    0.584048 0.860213 0.425153 0.137563
H81   H     H_    0.584050 0.139787 0.425149 0.137564
H82   H     H_    0.084048 0.360213 0.425152 0.137563
H83   H     H_    0.084049 0.639787 0.425151 0.137563
H84   H     H_    0.384808 0.760435 0.063701 0.113176
H85   H     H_    0.385691 0.234030 0.063702 0.113129
H86   H     H_    0.885883 0.266930 0.063702 0.113121
H87   H     H_    0.884889 0.738938 0.063701 0.113170
H88   H     H_    0.448539 0.760447 0.936270 0.113790
H89   H     H_    0.451816 0.832381 0.063735 0.113112
H90   H     H_    0.449422 0.234019 0.936271 0.113693
H91   H     H_    0.949614 0.266941 0.936272 0.113677
H92   H     H_    0.948620 0.738927 0.936270 0.113778
H93   H     H_    0.582629 0.816938 0.936321 0.115128
H94   H     H_    0.586980 0.186595 0.936321 0.115118
H95   H     H_    0.087716 0.312759 0.936322 0.115114
H96   H     H_    0.083131 0.683446 0.936321 0.115127
O1    O     O_3   0.750020 0.750020 0.500000 -0.434340
O2    O     O_R   0.741140 0.134170 0.457020 -0.544344
O3    O     O_R   0.241140 0.365830 0.457020 -0.544344
O4    O     O_R   0.241140 0.634170 0.457020 -0.544344
O5    O     O_R   0.862350 0.719680 0.336040 -0.541672
O6    O     O_R   0.862350 0.280320 0.336040 -0.541673
O7    O     O_R   0.362350 0.219680 0.336040 -0.541673
O8    O     O_R   0.362350 0.780320 0.336040 -0.541671
O9    O     O_R   0.698420 0.780360 0.663960 -0.539577
O10   O     O_R   0.698420 0.219640 0.663960 -0.539579
O11   O     O_R   0.198420 0.280360 0.663960 -0.539579
O12   O     O_3   0.750020 0.249980 0.500000 -0.434340
O13   O     O_R   0.198420 0.719640 0.663960 -0.539577
O14   O     O_R   0.801620 0.780400 0.336040 -0.541646
O15   O     O_R   0.801620 0.219600 0.336040 -0.541644
O16   O     O_R   0.301620 0.280400 0.336040 -0.541644
O17   O     O_R   0.301620 0.719600 0.336040 -0.541646
O18   O     O_R   0.637700 0.719640 0.663960 -0.539531
O19   O     O_R   0.637700 0.280360 0.663960 -0.539529
O20   O     O_R   0.137700 0.219640 0.663960 -0.539528
O21   O     O_R   0.137700 0.780360 0.663960 -0.539531
O22   O     O_R   0.801870 0.634220 0.457010 -0.544346
O23   O     O_3   0.250020 0.250020 0.500000 -0.434340
O24   O     O_R   0.801870 0.365780 0.457010 -0.544346
O25   O     O_R   0.301870 0.134220 0.457010 -0.544346
O26   O     O_R   0.301870 0.865780 0.457010 -0.544346
O27   O     O_R   0.758890 0.865820 0.542980 -0.550670
O28   O     O_R   0.758890 0.134180 0.542980 -0.550670
O29   O     O_R   0.258890 0.365820 0.542980 -0.550671
O30   O     O_R   0.258890 0.634180 0.542980 -0.550670
O31   O     O_R   0.887320 0.719660 0.457000 -0.544334
O32   O     O_R   0.887320 0.280340 0.457000 -0.544334
O33   O     O_R   0.387320 0.219660 0.457000 -0.544334
O34   O     O_3   0.250020 0.749980 0.500000 -0.434340
O35   O     O_R   0.387320 0.780340 0.457000 -0.544334
O36   O     O_R   0.655700 0.780400 0.457020 -0.544339
O37   O     O_R   0.655700 0.219600 0.457020 -0.544339
O38   O     O_R   0.155700 0.280400 0.457020 -0.544339
O39   O     O_R   0.155700 0.719600 0.457020 -0.544339
O40   O     O_R   0.844340 0.780370 0.542980 -0.550603
O41   O     O_R   0.844340 0.219630 0.542980 -0.550604
O42   O     O_R   0.344340 0.280370 0.542980 -0.550604
O43   O     O_R   0.344340 0.719630 0.542980 -0.550603
O44   O     O_R   0.612730 0.719670 0.543000 -0.550609
O45   O     O_R   0.698170 0.634220 0.542990 -0.550555
O46   O     O_R   0.612730 0.280330 0.543000 -0.550608
O47   O     O_R   0.112730 0.219670 0.543000 -0.550608
O48   O     O_R   0.112730 0.780330 0.543000 -0.550608
O49   O     O_R   0.698170 0.365780 0.542990 -0.550554
O50   O     O_R   0.198170 0.134220 0.542990 -0.550554
O51   O     O_R   0.198170 0.865780 0.542990 -0.550555
O52   O     O_R   0.741140 0.865830 0.457020 -0.544344
Zn1   Zn    Zn3+2 0.675940 0.706640 0.561420 0.929917
Zn2   Zn    Zn3+2 0.762700 0.206610 0.561410 0.929907
Zn3   Zn    Zn3+2 0.262700 0.293390 0.561410 0.929906
Zn4   Zn    Zn3+2 0.262700 0.706610 0.561410 0.929908
Zn5   Zn    Zn3+2 0.737340 0.793410 0.438590 0.926950
Zn6   Zn    Zn3+2 0.737340 0.206590 0.438590 0.926951
Zn7   Zn    Zn3+2 0.237340 0.293410 0.438590 0.926951
Zn8   Zn    Zn3+2 0.237340 0.706590 0.438590 0.926950
Zn9   Zn    Zn3+2 0.675940 0.293360 0.561420 0.929918
Zn10  Zn    Zn3+2 0.175940 0.206640 0.561420 0.929919
Zn11  Zn    Zn3+2 0.175940 0.793360 0.561420 0.929917
Zn12  Zn    Zn3+2 0.824100 0.706650 0.438580 0.926977
Zn13  Zn    Zn3+2 0.824100 0.293350 0.438580 0.926975
Zn14  Zn    Zn3+2 0.324100 0.206650 0.438580 0.926975
Zn15  Zn    Zn3+2 0.324100 0.793350 0.438580 0.926977
Zn16  Zn    Zn3+2 0.762700 0.793390 0.561410 0.929909

loop_
_geom_bond_atom_site_label_1
_geom_bond_atom_site_label_2
_ccdc_geom_bond_type
C30   C51   S    
O14   Zn5   S    
C87   C91   S    
C90   H31   S    
C33   C45   A    
C40   C93   A    
C90   C95   S    
C124  H39   S    
C4    C125  S    
C63   C76   S    
C76   C98   S    
O48   Zn11  S    
C89   C94   S    
C129  O51   A    
C42   H34   S    
C133  H52   S    
C20   O30   A    
C91   C96   S    
C21   O31   A    
C22   O32   A    
C20   O4    A    
C12   C135  S    
O31   Zn12  S    
C79   O11   A    
C59   C73   S    
C81   C86   S    
C79   C110  S    
O43   Zn4   S    
C25   O35   A    
C65   C87   S    
C26   O36   A    
O44   Zn1   S    
C28   O38   A    
C84   C88   S    
C86   C90   S    
O38   Zn7   S    
C30   C34   A    
C66   H7    S    
C81   H84   S    
O34   Zn11  S    
C25   C126  S    
C133  H48   S    
C61   H94   S    
C86   C99   S    
C15   H60   S    
C76   C107  S    
C62   C75   S    
C73   C95   S    
C58   H26   S    
C32   C53   S    
C20   C120  S    
C123  H38   S    
C56   C83   S    
C11   H57   S    
C18   O2    A    
C47   C52   S    
C119  C123  A    
C61   C74   S    
C14   H63   S    
C10   H55   S    
C71   O8    A    
C130  C131  S    
O17   Zn8   S    
C45   C50   S    
O15   Zn6   S    
C97   H16   S    
C47   H68   S    
C112  C131  S    
C83   H85   S    
C69   C100  T    
C61   C65   S    
O25   Zn14  S    
C73   C103  S    
C57   H25   S    
C21   C24   S    
C52   H76   S    
C12   H62   S    
C31   C36   A    
O34   Zn8   S    
C77   O18   A    
C43   C47   S    
C71   O17   A    
C13   C44   A    
O28   Zn2   S    
C44   C48   S    
C21   O40   A    
C55   H88   S    
O29   Zn3   S    
C51   H80   S    
O30   Zn4   S    
C83   H28   S    
O12   Zn2   S    
C79   O20   A    
C128  O50   A    
C70   C101  T    
C58   C76   S    
C123  C124  A    
C52   H81   S    
C31   C43   A    
C77   O9    A    
O3    Zn7   S    
C132  H47   S    
C66   C88   S    
C131  H46   S    
O8    Zn15  S    
C64   H5    S    
C3    C136  A    
C118  C122  A    
O23   Zn7   S    
O49   Zn9   S    
C17   O52   A    
C55   H22   S    
C82   C126  A    
O51   Zn11  S    
C29   C38   S    
O35   Zn15  S    
C55   C81   S    
C114  C119  A    
C22   O41   A    
C97   H11   S    
O23   Zn10  S    
C64   H89   S    
C92   C97   S    
O9    Zn16  S    
C48   C53   S    
C1    C72   S    
C113  C130  S    
C62   C66   S    
C34   C39   A    
C29   O39   A    
C74   C96   S    
C93   H41   S    
C1    O5    A    
O45   Zn1   S    
C46   C51   S    
C23   O33   A    
C116  C120  A    
C5    C9    A    
C116  C132  S    
O26   Zn15  S    
C95   H14   S    
C32   C37   A    
C130  H44   S    
C50   H70   S    
C27   O37   A    
O1    Zn5   S    
C90   H18   S    
C59   H93   S    
C96   H15   S    
C4    C134  A    
C87   C100  S    
C33   C54   S    
C5    C135  A    
C18   C118  S    
C53   H77   S    
O34   Zn15  S    
C107  C111  T    
C77   C108  S    
C39   C82   A    
C12   C14   S    
C114  C116  A    
C134  C135  A    
C96   H10   S    
C41   C104  A    
C128  O25   A    
C57   C75   S    
C6    C128  S    
C84   H86   S    
C74   C105  S    
C15   H64   S    
C72   C102  T    
C28   C37   S    
C78   C109  S    
C63   H78   S    
C37   C41   A    
C125  O22   A    
C10   C11   A    
C57   H91   S    
O6    Zn13  S    
O34   Zn4   S    
C121  H36   S    
C48   H73   S    
C50   H74   S    
C2    C23   S    
C33   C38   A    
O36   Zn5   S    
O11   Zn3   S    
C16   C136  S    
C83   C87   S    
C14   H59   S    
O41   Zn2   S    
C95   H9    S    
C130  H49   S    
C3    C15   S    
C54   H83   S    
C50   C54   S    
C47   H72   S    
C3    C7    A    
C112  C117  A    
O12   Zn9   S    
C94   C98   S    
O23   Zn3   S    
C75   C97   S    
C59   H45   S    
O10   Zn2   S    
C105  C109  T    
C84   H29   S    
O1    Zn1   S    
C48   H69   S    
C17   O27   A    
O40   Zn16  S    
C18   O28   A    
C17   C117  S    
C19   C119  S    
C78   O19   A    
C67   H8    S    
C132  H51   S    
C64   C86   S    
C27   O46   A    
C54   H79   S    
C56   C74   S    
C80   O21   A    
C40   H12   S    
C85   C89   S    
O50   Zn10  S    
O5    Zn12  S    
C94   H35   S    
C92   H33   S    
C5    C127  S    
O33   Zn14  S    
C57   C84   S    
C60   O7    A    
O23   Zn14  S    
C85   H87   S    
C121  C122  A    
C49   O15   A    
C65   H2    S    
O12   Zn6   S    
O52   Zn5   S    
C49   C70   S    
C85   H30   S    
C9    H54   S    
C122  H37   S    
O39   Zn8   S    
C28   O47   A    
O16   Zn7   S    
C49   O6    A    
C19   O3    A    
C6    C10   A    
O1    Zn12  S    
C27   C36   S    
C25   O43   A    
C26   O44   A    
C125  O45   A    
C68   C71   S    
C80   C111  S    
O18   Zn1   S    
C13   C22   S    
O2    Zn6   S    
C7    C129  S    
C42   C115  A    
C46   H66   S    
C75   C106  S    
C62   H95   S    
O42   Zn3   S    
C35   C46   S    
C16   H61   S    
C98   H13   S    
C39   H1    S    
O1    Zn16  S    
C89   C102  S    
C4    C8    A    
C88   C101  S    
C29   O48   A    
C7    C11   A    
C59   C64   S    
C78   O10   A    
C30   C35   A    
O20   Zn10  S    
C24   C45   A    
C60   C69   S    
O37   Zn6   S    
O21   Zn11  S    
C38   C42   A    
O22   Zn12  S    
C1    O14   A    
C23   O42   A    
C15   C16   S    
C67   C89   S    
C117  C121  A    
C6    C136  A    
C41   H23   S    
C120  C124  A    
C26   C34   S    
C104  H42   S    
C66   H3    S    
C88   C92   S    
C8    C9    A    
C61   H56   S    
C103  C108  T    
C8    H53   S    
O7    Zn14  S    
C98   H17   S    
O13   Zn4   S    
C81   H27   S    
C112  C113  A    
O12   Zn13  S    
C46   H71   S    
C63   C67   S    
O27   Zn16  S    
C127  O24   A    
O19   Zn9   S    
C91   H32   S    
C36   C40   A    
O32   Zn13  S    
C129  O26   A    
C132  C133  S    
C14   C134  S    
O46   Zn9   S    
C13   C104  A    
C55   C73   S    
C35   C126  A    
C91   H19   S    
C19   O29   A    
C2    C43   A    
C32   C44   A    
C92   H20   S    
C67   H4    S    
O4    Zn8   S    
C82   H40   S    
C60   O16   A    
C58   C85   S    
C58   H92   S    
C106  C110  T    
C53   H82   S    
C12   H58   S    
C2    C93   A    
C94   H21   S    
O47   Zn10  S    
C31   C52   S    
C56   H90   S    
C127  O49   A    
C68   C99   T    
O24   Zn13  S    
C56   H24   S    
C65   H6    S    
C114  C133  S    
C62   H67   S    
C113  C118  A    
C131  H50   S    
C51   H75   S    
C24   C115  A    
C80   O13   A    
C115  H43   S    
C16   H65   S    
C63   H96   S    
