data_mof_unit_65925.cif
_audit_creation_date              2012-10-26T20:34:18-0400
_audit_creation_method            fapswitch 2.2
_symmetry_space_group_name_H-M    P1
_symmetry_Int_Tables_number       1
_space_group_crystal_system       triclinic
_cell_length_a                    15.994573
_cell_length_b                    14.776094
_cell_length_c                    10.656304
_cell_angle_alpha                 89.758207
_cell_angle_beta                  90.102738
_cell_angle_gamma                 90.029469
_cell_volume                      2518.45546792

loop_
_atom_site_label
_atom_site_type_symbol
_atom_type_description
_atom_site_fract_x
_atom_site_fract_y
_atom_site_fract_z
_atom_type_partial_charge
Br1   Br    Br    0.329856 0.596329 0.894601 -0.492506
Br2   Br    Br    0.670144 0.403671 0.105399 -0.492506
C1    C     C_R   0.340853 0.499983 0.500144 0.563490
C2    C     C_R   0.087221 0.499973 0.500232 0.041780
C3    C     C_R   0.499847 0.500233 0.258787 0.577870
C4    C     C_R   0.500153 0.499767 0.741213 0.577870
C5    C     C_1   0.251733 0.499955 0.500278 0.007868
C6    C     C_1   0.748267 0.500045 0.499722 0.007868
C7    C     C_R   0.544873 0.951867 0.591093 -0.102814
C8    C     C_R   0.455126 0.048133 0.408907 -0.102814
C9    C     C_R   0.455121 0.952370 0.408913 -0.104131
C10   C     C_R   0.544878 0.047630 0.591087 -0.104131
C11   C     C_R   0.499995 0.902859 0.500007 0.004606
C12   C     C_R   0.659147 0.500017 0.499856 0.563490
C13   C     C_R   0.500005 0.097141 0.499993 0.004606
C14   C     C_3   0.497136 0.586378 0.040064 -0.116790
C15   C     C_3   0.502864 0.413621 0.959936 -0.116790
C16   C     C_3   0.567401 0.545608 0.957803 -0.132713
C17   C     C_3   0.432599 0.454392 0.042197 -0.132713
C18   C     C_3   0.430606 0.539531 0.958073 0.159879
C19   C     C_3   0.569394 0.460469 0.041927 0.159879
C20   C     C_3   0.500147 0.499257 0.877612 0.016544
C21   C     C_3   0.499853 0.500743 0.122388 0.016544
C22   C     C_1   0.499996 0.802699 0.500005 0.137154
C23   C     C_1   0.823318 0.500043 0.499686 -0.034607
C24   C     C_1   0.500004 0.197301 0.499995 0.137154
C25   C     C_1   0.176681 0.499957 0.500314 -0.034607
C26   C     C_R   0.956433 0.581824 0.509668 -0.097918
C27   C     C_R   0.043567 0.418175 0.490332 -0.097918
C28   C     C_R   0.043689 0.581797 0.509898 -0.089984
C29   C     C_R   0.956311 0.418202 0.490102 -0.089984
C30   C     C_R   0.912779 0.500027 0.499768 0.041780
Cu1   Cu    Cu3+1 0.500000 0.589220 0.500000 1.031905
Cu2   Cu    Cu3+1 0.500000 0.410780 0.500000 1.031905
H1    H     H_    0.580091 0.083077 0.662552 0.119642
H2    H     H_    0.922861 0.354673 0.482435 0.127736
H3    H     H_    0.923079 0.645373 0.517190 0.119713
H4    H     H_    0.076921 0.354627 0.482810 0.119713
H5    H     H_    0.419908 0.916923 0.337448 0.119642
H6    H     H_    0.419915 0.083975 0.337438 0.117703
H7    H     H_    0.580085 0.916025 0.662562 0.117703
H8    H     H_    0.494202 0.657009 0.074890 0.151311
H9    H     H_    0.505798 0.342990 0.925110 0.151311
H10   H     H_    0.622758 0.582250 0.920689 0.140520
H11   H     H_    0.377242 0.417750 0.079311 0.140520
H12   H     H_    0.077139 0.645327 0.517565 0.127736
N1    N     N_1   0.500000 0.276710 0.500000 -0.188220
N2    N     N_1   0.500000 0.723290 0.500000 -0.188220
O1    O     O_R   0.380310 0.575320 0.500020 -0.476447
O2    O     O_R   0.619690 0.424680 0.499980 -0.476447
O3    O     O_R   0.619690 0.575320 0.499980 -0.500437
O4    O     O_R   0.380310 0.424680 0.500020 -0.500437
O5    O     O_R   0.499980 0.575330 0.316850 -0.505010
O6    O     O_R   0.500020 0.424670 0.683150 -0.505010
O7    O     O_R   0.500020 0.575330 0.683150 -0.476144
O8    O     O_R   0.499980 0.424670 0.316850 -0.476144

loop_
_geom_bond_atom_site_label_1
_geom_bond_atom_site_label_2
_ccdc_geom_bond_type
C27   H4    S    
Cu1   O7    S    
C17   C21   S    
C1    O4    A    
C15   H9    S    
Cu2   O8    S    
C15   C20   S    
C16   H10   S    
Cu1   O3    S    
C16   C19   S    
C17   C18   S    
C3    O8    A    
Cu2   O4    S    
C2    C27   A    
C3    C21   S    
C10   C13   A    
C4    O7    A    
C14   C18   S    
C23   C30   S    
C26   C28   A    
Cu1   Cu2   S    
C1    O1    A    
C27   C29   A    
C10   H1    S    
C9    H5    S    
C6    C23   T    
C9    C11   A    
C12   O2    A    
C26   H3    S    
Br2   C19   S    
C24   N1    T    
Br1   C18   S    
C3    O5    A    
C15   C17   S    
C4    O6    A    
Cu2   O6    S    
C14   C21   S    
C1    C5    S    
C8    C13   A    
C19   C21   S    
C12   O3    A    
Cu1   O5    S    
C7    C10   A    
C2    C28   A    
Cu2   O2    S    
C8    C9    A    
Cu1   O1    S    
C22   N2    T    
C14   H8    S    
C26   C30   A    
C2    C25   S    
C5    C25   T    
C14   C16   S    
Cu1   N2    S    
C7    C11   A    
C29   H2    S    
C8    H6    S    
C6    C12   S    
Cu2   N1    S    
C16   C20   S    
C7    H7    S    
C28   H12   S    
C15   C19   S    
C17   H11   S    
C29   C30   A    
C11   C22   S    
C18   C20   S    
C13   C24   S    
C4    C20   S    
