data_mof_unit_23663.cif
_audit_creation_date              2012-12-10T20:47:09-0500
_audit_creation_method            fapswitch 2.2
_symmetry_space_group_name_H-M    P1
_symmetry_Int_Tables_number       1
_space_group_crystal_system       triclinic
_cell_length_a                    10.653324
_cell_length_b                    8.928502
_cell_length_c                    8.125115
_cell_angle_alpha                 90.078377
_cell_angle_beta                  89.999254
_cell_angle_gamma                 89.99975
_cell_volume                      772.845790633

loop_
_atom_site_label
_atom_site_type_symbol
_atom_type_description
_atom_site_fract_x
_atom_site_fract_y
_atom_site_fract_z
_atom_type_partial_charge
C1    C     C_R   0.500000 0.218082 0.499901 0.904721
C2    C     C_R   0.065782 0.363448 0.570947 0.093521
C3    C     C_R   0.127982 0.486751 0.499621 -0.090247
C4    C     C_R   0.872018 0.486746 0.499614 -0.090247
C5    C     C_R   0.064142 0.604036 0.424589 -0.204629
C6    C     C_R   0.935859 0.604034 0.424587 -0.204632
C7    C     C_1   0.500000 0.065235 0.499903 -0.199323
C8    C     C_1   0.500000 0.934800 0.500108 -0.198642
C9    C     C_R   0.500000 0.781925 0.500051 0.933377
C10   C     C_R   0.259908 0.496406 0.500002 0.859368
C11   C     C_R   0.740092 0.496404 0.499999 0.859368
C12   C     C_R   0.130870 0.239360 0.637543 -0.175677
C13   C     C_R   0.869127 0.239348 0.637513 -0.175664
C14   C     C_R   0.065319 0.118351 0.703705 -0.132825
C15   C     C_R   0.934677 0.118344 0.703688 -0.132820
C16   C     C_R   0.934216 0.363444 0.570937 0.093524
H1    H     H_    0.232224 0.233555 0.637008 0.144580
H2    H     H_    0.767773 0.233534 0.636954 0.144563
H3    H     H_    0.113982 0.697016 0.368894 0.152316
H4    H     H_    0.886020 0.697014 0.368893 0.152316
H5    H     H_    0.116043 0.023776 0.753851 0.143851
H6    H     H_    0.883952 0.023763 0.753819 0.143849
N1    N     N_1   0.500000 0.500000 0.073640 -0.030358
N2    N     N_1   0.500000 0.500000 0.926360 -0.030649
O1    O     O_R   0.500000 0.285350 0.636850 -0.628299
O2    O     O_R   0.500000 0.714650 0.636850 -0.613350
O3    O     O_R   0.500000 0.285360 0.363100 -0.609205
O4    O     O_R   0.500000 0.714640 0.363100 -0.615334
O5    O     O_R   0.316770 0.500000 0.636900 -0.620491
O6    O     O_R   0.683230 0.500000 0.636900 -0.620484
O7    O     O_R   0.316780 0.500000 0.363150 -0.613613
O8    O     O_R   0.683220 0.500000 0.363150 -0.613616
Zn1   Zn    Zn3+2 0.500000 0.500000 0.682780 0.982996
Zn2   Zn    Zn3+2 0.500000 0.500000 0.317220 0.991756

loop_
_geom_bond_atom_site_label_1
_geom_bond_atom_site_label_2
_ccdc_geom_bond_type
C12   H1    S    
C4    C16   A    
N1    N2    T    
C5    H3    S    
C9    O2    A    
C6    H4    S    
O2    Zn1   S    
N2    Zn1   S    
N1    Zn2   S    
C2    C12   A    
C2    C3    A    
O7    Zn2   S    
O4    Zn2   S    
C7    C8    T    
C3    C10   S    
C4    C11   S    
C1    O1    A    
C10   O5    A    
C13   H2    S    
C14   H5    S    
C12   C14   A    
C11   O8    A    
C13   C15   A    
O3    Zn2   S    
C5    C6    A    
O5    Zn1   S    
C2    C16   A    
C11   O6    A    
C4    C6    A    
C13   C16   A    
C1    O3    A    
C14   C15   A    
O6    Zn1   S    
C1    C7    S    
C10   O7    A    
C15   H6    S    
C9    O4    A    
O1    Zn1   S    
C8    C9    S    
C3    C5    A    
O8    Zn2   S    
