data_mof_unit_32673.cif
_audit_creation_date              2012-12-10T17:55:04-0500
_audit_creation_method            fapswitch 2.2
_symmetry_space_group_name_H-M    P1
_symmetry_Int_Tables_number       1
_space_group_crystal_system       triclinic
_cell_length_a                    8.726827
_cell_length_b                    10.822632
_cell_length_c                    9.529399
_cell_angle_alpha                 89.782301
_cell_angle_beta                  97.776857
_cell_angle_gamma                 90.538942
_cell_volume                      891.705143889

loop_
_atom_site_label
_atom_site_type_symbol
_atom_type_description
_atom_site_fract_x
_atom_site_fract_y
_atom_site_fract_z
_atom_type_partial_charge
C1    C     C_R   0.499008 0.262119 0.500039 0.784948
C2    C     C_R   0.499250 0.737887 0.499822 0.782528
C3    C     C_R   0.203802 0.500340 0.463806 0.875301
C4    C     C_R   0.796173 0.501320 0.536125 0.883951
C5    C     C_2   0.038017 0.500158 0.443726 -0.350101
C6    C     C_2   0.961894 0.504378 0.555887 -0.384486
C7    C     C_R   0.469916 0.064184 0.371523 -0.187962
C8    C     C_R   0.523161 0.935833 0.628482 -0.192264
C9    C     C_R   0.469279 0.936349 0.371437 -0.201843
C10   C     C_R   0.522651 0.063653 0.628657 -0.172087
C11   C     C_R   0.497376 0.871744 0.499791 -0.010210
C12   C     C_R   0.497175 0.128262 0.500119 -0.012462
C13   C     C_R   0.404851 0.422129 0.063472 -0.242674
C14   C     C_R   0.597193 0.576165 0.936882 -0.240286
C15   C     C_R   0.401969 0.422482 0.912706 0.577063
C16   C     C_R   0.596239 0.578600 0.086807 0.574763
Cu1   Cu    Cu3+1 0.500000 0.500020 0.640660 0.974642
Cu2   Cu    Cu3+1 0.500000 0.499980 0.359340 0.975935
H1    H     H_    0.978370 0.495578 0.335999 0.195509
H2    H     H_    0.021521 0.510399 0.663424 0.166219
H3    H     H_    0.448265 0.112596 0.271178 0.145750
H4    H     H_    0.544881 0.887467 0.728868 0.145327
H5    H     H_    0.446207 0.888346 0.271173 0.141398
H6    H     H_    0.543710 0.111630 0.729095 0.164835
H7    H     H_    0.333566 0.358738 0.114353 0.164783
H8    H     H_    0.676665 0.633804 0.887889 0.164060
N1    N     N_R   0.500040 0.500030 0.852080 -0.215082
N2    N     N_R   0.499960 0.499970 0.147920 -0.214736
O1    O     O_R   0.499990 0.319660 0.618740 -0.539625
O2    O     O_R   0.500010 0.680340 0.381260 -0.562520
O3    O     O_R   0.499990 0.319630 0.381170 -0.599179
O4    O     O_R   0.500010 0.680370 0.618830 -0.597924
O5    O     O_R   0.274840 0.500010 0.591370 -0.545343
O6    O     O_R   0.725160 0.499990 0.408630 -0.526169
O7    O     O_R   0.274830 0.499980 0.353800 -0.596109
O8    O     O_R   0.725170 0.500020 0.646200 -0.601156
O9    O     O_3   0.314981 0.337851 0.824634 -0.552805
C17   C     C_3   0.168979 0.308608 0.865875 0.042988
H9    H     H_    0.082514 0.309507 0.769118 0.176435
H10   H     H_    0.127019 0.376706 0.939020 0.112489
C18   C     C_3   0.169869 0.177935 0.926595 -0.841561
H11   H     H_    0.054624 0.155350 0.957513 0.212188
H12   H     H_    0.195802 0.110596 0.845508 0.257237
H13   H     H_    0.258547 0.168954 0.020965 0.230655
O10   O     O_3   0.702211 0.648929 0.175701 -0.553674
C19   C     C_3   0.719139 0.771240 0.126231 0.042386
H14   H     H_    0.707137 0.834965 0.214941 0.179299
H15   H     H_    0.629688 0.799713 0.037483 0.101700
C20   C     C_3   0.881082 0.790198 0.086245 -0.834911
H16   H     H_    0.901477 0.726637 0.999785 0.234870
H17   H     H_    0.894870 0.886899 0.050278 0.210082
H18   H     H_    0.968918 0.772262 0.179643 0.257825

loop_
_geom_bond_atom_site_label_1
_geom_bond_atom_site_label_2
_ccdc_geom_bond_type
C16   O10   S    
C16   N2    A    
C8    H4    S    
C4    O8    A    
C13   N2    A    
O9    C17   S    
C5    H1    S    
Cu1   O8    S    
C14   N1    A    
Cu1   O1    S    
C18   H11   S    
C15   N1    A    
C13   C15   A    
C3    O7    A    
C2    O2    A    
C20   H18   S    
C1    O1    A    
Cu1   Cu2   S    
Cu2   N2    S    
O10   C19   S    
C14   H8    S    
C17   H10   S    
C18   H12   S    
C19   C20   S    
C13   H7    S    
C17   H9    S    
C1    C12   S    
Cu1   O5    S    
Cu2   O6    S    
C8    C11   A    
Cu2   O2    S    
C2    C11   S    
C10   C12   A    
C8    C10   A    
C4    O6    A    
C9    C11   A    
C5    C6    D    
C18   H13   S    
C14   C16   A    
C7    C12   A    
C4    C6    S    
C3    O5    A    
Cu1   N1    S    
C19   H15   S    
C3    C5    S    
C1    O3    A    
C6    H2    S    
C17   C18   S    
C2    O4    A    
C20   H16   S    
Cu2   O7    S    
C7    C9    A    
Cu1   O4    S    
C19   H14   S    
C9    H5    S    
Cu2   O3    S    
C10   H6    S    
C7    H3    S    
C15   O9    S    
C20   H17   S    
