data_mof_unit_65639.cif
_audit_creation_date              2012-12-10T20:04:43-0500
_audit_creation_method            fapswitch 2.2
_symmetry_space_group_name_H-M    P1
_symmetry_Int_Tables_number       1
_space_group_crystal_system       triclinic
_cell_length_a                    38.609002
_cell_length_b                    32.104186
_cell_length_c                    21.321537
_cell_angle_alpha                 90.085785
_cell_angle_beta                  123.786122
_cell_angle_gamma                 89.951828
_cell_volume                      21965.018312

loop_
_atom_site_label
_atom_site_type_symbol
_atom_type_description
_atom_site_fract_x
_atom_site_fract_y
_atom_site_fract_z
_atom_type_partial_charge
C1    C     C_R   0.919319 0.000006 0.419243 0.899362
C2    C     C_R   0.080681 0.000006 0.580758 0.899368
C3    C     C_R   0.419319 0.500006 0.419243 0.899378
C4    C     C_R   0.580681 0.500006 0.580758 0.899398
C5    C     C_3   0.999638 0.999957 0.688976 0.001369
C6    C     C_3   0.000345 0.999805 0.311007 0.001494
C7    C     C_3   0.499635 0.499958 0.688973 0.001385
C8    C     C_3   0.500357 0.499810 0.311020 0.001624
C9    C     C_R   0.728281 0.997957 0.173557 -0.148471
C10   C     C_R   0.271719 0.998444 0.826481 -0.148410
C11   C     C_R   0.228282 0.497964 0.173556 -0.148463
C12   C     C_R   0.771719 0.498469 0.826483 -0.148406
C13   C     C_R   0.706545 0.000142 0.208297 0.075418
C14   C     C_R   0.293455 0.000139 0.791711 0.075230
C15   C     C_R   0.206545 0.500142 0.208296 0.075416
C16   C     C_R   0.793455 0.500138 0.791711 0.075228
C17   C     C_R   0.727945 0.002337 0.286878 -0.235882
C18   C     C_R   0.272054 0.001840 0.713100 -0.235780
C19   C     C_R   0.227945 0.502329 0.286878 -0.235882
C20   C     C_R   0.772054 0.501812 0.713099 -0.235785
C21   C     C_R   0.771534 0.002354 0.331584 0.474615
C22   C     C_R   0.228465 0.001847 0.668394 0.474891
C23   C     C_R   0.271534 0.502346 0.331585 0.474610
C24   C     C_R   0.728466 0.501819 0.668392 0.474871
C25   C     C_R   0.793304 0.000131 0.296144 0.003222
C26   C     C_R   0.206696 0.000118 0.703864 0.003105
C27   C     C_R   0.293304 0.500131 0.296143 0.003222
C28   C     C_R   0.706696 0.500116 0.703865 0.003102
C29   C     C_R   0.771630 0.997953 0.217468 -0.238663
C30   C     C_R   0.228370 0.998434 0.782570 -0.238780
C31   C     C_R   0.271630 0.497960 0.217467 -0.238654
C32   C     C_R   0.728371 0.498459 0.782572 -0.238778
C33   C     C_1   0.662115 0.000102 0.163157 -0.009870
C34   C     C_1   0.337884 0.000102 0.836849 -0.009776
C35   C     C_1   0.162115 0.500102 0.163157 -0.009867
C36   C     C_1   0.837884 0.500101 0.836850 -0.009778
C37   C     C_1   0.837803 0.000051 0.339252 0.064177
C38   C     C_1   0.162197 0.000044 0.660756 0.064260
C39   C     C_1   0.337803 0.500050 0.339251 0.064180
C40   C     C_1   0.662197 0.500043 0.660756 0.064250
C41   C     C_1   0.875095 0.000009 0.375642 -0.118815
C42   C     C_1   0.124905 0.000006 0.624364 -0.118827
C43   C     C_1   0.375095 0.500009 0.375641 -0.118823
C44   C     C_1   0.624905 0.500006 0.624364 -0.118806
C45   C     C_R   0.999840 0.000010 0.621712 0.875419
C46   C     C_R   0.000148 0.999956 0.378277 0.875188
C47   C     C_R   0.499838 0.500011 0.621711 0.875433
C48   C     C_R   0.500156 0.499957 0.378284 0.875236
C49   C     C_1   0.624806 0.000059 0.125310 -0.152991
C50   C     C_1   0.375194 0.000059 0.874693 -0.152663
C51   C     C_1   0.124806 0.500059 0.125310 -0.152993
C52   C     C_1   0.875194 0.500059 0.874693 -0.152657
C53   C     C_R   1.000000 0.919372 0.999880 0.898524
C54   C     C_R   0.500000 0.419372 0.999880 0.898535
C55   C     C_R   0.999895 0.000004 0.877964 0.872899
C56   C     C_R   0.000103 0.999963 0.122035 0.872786
C57   C     C_R   0.499895 0.500005 0.877963 0.872902
C58   C     C_R   0.500104 0.499968 0.122036 0.872780
C59   C     C_R   1.000000 0.080724 0.000001 0.892731
C60   C     C_R   0.499999 0.580724 0.000000 0.892699
C61   C     C_R   0.500000 0.919512 0.999958 0.893196
C62   C     C_R   1.000000 0.419512 0.999958 0.893197
C63   C     C_R   0.580550 0.000015 0.080644 0.899709
C64   C     C_R   0.419450 0.000015 0.919357 0.900197
C65   C     C_R   0.080550 0.500015 0.080644 0.899699
C66   C     C_R   0.919450 0.500015 0.919357 0.900205
C67   C     C_R   0.499999 0.080573 0.000081 0.895633
C68   C     C_R   0.999999 0.580573 0.000081 0.895630
C69   C     C_R   0.461455 0.228536 0.964329 -0.043947
C70   C     C_R   0.538262 0.228526 0.045668 -0.044020
C71   C     C_R   0.961450 0.728536 0.964222 -0.043952
C72   C     C_R   0.038252 0.728526 0.045760 -0.044019
C73   C     C_R   0.499845 0.206619 0.005408 -0.015352
C74   C     C_R   0.999837 0.706618 0.005400 -0.015352
C75   C     C_R   0.037599 0.772104 0.042789 -0.204346
C76   C     C_R   0.962231 0.772115 0.962774 -0.204826
C77   C     C_R   0.537605 0.272104 0.042697 -0.204337
C78   C     C_R   0.462232 0.272115 0.962875 -0.204824
C79   C     C_3   0.992000 0.961126 0.721274 -0.159883
C80   C     C_3   0.007204 0.960839 0.277733 -0.160945
C81   C     C_3   0.491841 0.461159 0.721114 -0.159777
C82   C     C_3   0.507871 0.460967 0.278404 -0.160505
C83   C     C_R   0.999946 0.793512 0.001677 0.111503
C84   C     C_R   0.499949 0.293512 0.001680 0.111504
C85   C     C_1   0.499909 0.162029 0.002412 0.090281
C86   C     C_1   0.999905 0.662029 0.002407 0.090277
C87   C     C_1   0.999981 0.837902 0.000647 -0.028213
C88   C     C_1   0.499982 0.337902 0.000648 -0.028207
C89   C     C_1   0.999997 0.875173 0.000149 -0.167265
C90   C     C_1   0.499998 0.375173 0.000149 -0.167276
C91   C     C_1   0.499959 0.124753 0.000614 -0.063063
C92   C     C_1   0.999957 0.624753 0.000612 -0.063065
C93   C     C_R   0.506473 0.771998 0.950362 -0.235633
C94   C     C_R   0.493500 0.772138 0.049335 -0.235477
C95   C     C_R   0.006341 0.271998 0.950194 -0.235624
C96   C     C_R   0.993632 0.272139 0.049501 -0.235480
C97   C     C_R   0.499987 0.793558 0.999837 -0.000660
C98   C     C_R   0.999987 0.293558 0.999835 -0.000671
C99   C     C_R   0.993624 0.228629 0.050152 0.427094
C100  C     C_R   0.006352 0.228485 0.949602 0.427280
C101  C     C_R   0.493490 0.728628 0.049982 0.427084
C102  C     C_R   0.506484 0.728486 0.949769 0.427286
C103  C     C_R   0.999990 0.206748 0.999894 -0.158058
C104  C     C_R   0.499989 0.706748 0.999892 -0.158054
C105  C     C_1   0.499993 0.837979 0.999831 0.035213
C106  C     C_1   0.999993 0.337979 0.999829 0.035214
C107  C     C_3   0.029429 0.973925 0.800173 -0.166516
C108  C     C_3   0.970042 0.974403 0.199159 -0.167100
C109  C     C_3   0.529322 0.473807 0.800065 -0.166465
C110  C     C_3   0.470485 0.473904 0.199603 -0.166907
C111  C     C_1   0.999995 0.162164 0.999933 0.208415
C112  C     C_1   0.499994 0.662164 0.999930 0.208400
C113  C     C_1   0.999998 0.124895 0.999968 -0.072466
C114  C     C_1   0.499998 0.624895 0.999966 -0.072482
C115  C     C_1   0.499997 0.875273 0.999867 -0.156777
C116  C     C_1   0.999997 0.375273 0.999866 -0.156773
C117  C     C_3   0.999628 0.999948 0.810237 -0.002021
C118  C     C_3   0.000362 0.999838 0.189753 -0.001727
C119  C     C_3   0.499627 0.499950 0.810235 -0.002035
C120  C     C_3   0.500371 0.499847 0.189762 -0.001839
C121  C     C_3   0.962160 0.987155 0.732428 -0.142878
C122  C     C_3   0.037562 0.986277 0.267226 -0.143406
C123  C     C_3   0.462107 0.487308 0.732374 -0.142815
C124  C     C_3   0.537795 0.486913 0.267463 -0.143117
C125  C     C_3   0.969794 0.025955 0.698961 -0.135047
C126  C     C_3   0.030706 0.025211 0.301675 -0.134179
C127  C     C_3   0.469896 0.526076 0.699065 -0.135126
C128  C     C_3   0.530286 0.525725 0.301252 -0.134602
C129  C     C_3   0.007262 0.038767 0.778041 -0.141948
C130  C     C_3   0.993507 0.038787 0.222937 -0.141253
C131  C     C_3   0.507416 0.538738 0.778195 -0.142042
C132  C     C_3   0.492862 0.538674 0.222290 -0.141808
C133  C     C_3   0.037067 0.012768 0.766690 -0.148941
C134  C     C_3   0.963184 0.013379 0.233625 -0.149040
C135  C     C_3   0.537116 0.512619 0.766738 -0.148946
C136  C     C_3   0.462973 0.512759 0.233414 -0.148950
H1    H     H_    0.053742 0.952684 0.843305 0.153318
H2    H     H_    0.945307 0.953660 0.155496 0.153148
H3    H     H_    0.553549 0.452469 0.843111 0.153241
H4    H     H_    0.446103 0.452751 0.156287 0.152810
H5    H     H_    0.933346 0.789625 0.931954 0.183990
H6    H     H_    0.066498 0.789606 0.073316 0.184169
H7    H     H_    0.433346 0.289625 0.932130 0.183989
H8    H     H_    0.566506 0.289606 0.073149 0.184171
H9    H     H_    0.511507 0.789216 0.912432 0.203183
H10   H     H_    0.488466 0.789463 0.087246 0.203241
H11   H     H_    0.011274 0.289215 0.912135 0.203190
H12   H     H_    0.988701 0.289465 0.087542 0.203252
H13   H     H_    0.985727 0.929390 0.696481 0.165787
H14   H     H_    0.012833 0.928979 0.301720 0.165303
H15   H     H_    0.485440 0.429448 0.696191 0.165801
H16   H     H_    0.514038 0.429208 0.302939 0.165361
H17   H     H_    0.931565 0.976660 0.720075 0.172506
H18   H     H_    0.067939 0.975180 0.279295 0.171735
H19   H     H_    0.431469 0.476936 0.719977 0.172588
H20   H     H_    0.568358 0.476329 0.279728 0.172094
H21   H     H_    0.945467 0.047151 0.655737 0.173373
H22   H     H_    0.055455 0.045906 0.345438 0.173370
H23   H     H_    0.445654 0.547370 0.655928 0.173353
H24   H     H_    0.554684 0.546833 0.344657 0.173269
H25   H     H_    0.013456 0.070409 0.803194 0.153946
H26   H     H_    0.987950 0.070554 0.198595 0.153309
H27   H     H_    0.513737 0.570355 0.803475 0.153922
H28   H     H_    0.486773 0.570344 0.197415 0.153606
H29   H     H_    0.067598 0.023192 0.778651 0.143500
H30   H     H_    0.932865 0.024405 0.221924 0.143930
H31   H     H_    0.567688 0.522920 0.778739 0.143392
H32   H     H_    0.432473 0.523273 0.221532 0.143474
H33   H     H_    0.788289 0.996247 0.190093 0.166417
H34   H     H_    0.211711 0.997108 0.809968 0.166605
H35   H     H_    0.288289 0.496260 0.190092 0.166417
H36   H     H_    0.711711 0.497154 0.809971 0.166606
H37   H     H_    0.711732 0.996253 0.112658 0.160838
H38   H     H_    0.288268 0.997124 0.887402 0.161281
H39   H     H_    0.211732 0.496267 0.112657 0.160841
H40   H     H_    0.788268 0.497170 0.887406 0.161283
H41   H     H_    0.710590 0.004016 0.312906 0.206358
H42   H     H_    0.289408 0.003142 0.687048 0.206146
H43   H     H_    0.210590 0.504002 0.312907 0.206358
H44   H     H_    0.789409 0.503094 0.687046 0.206147
O1    O     O_R   0.939010 0.034440 0.439030 -0.605889
O2    O     O_R   0.060990 0.034440 0.560970 -0.606078
O3    O     O_R   0.439010 0.534440 0.439030 -0.605862
O4    O     O_R   0.560990 0.534440 0.560970 -0.606098
O5    O     O_R   0.561000 0.000050 0.113470 -0.606134
O6    O     O_R   0.439000 0.000050 0.886530 -0.607832
O7    O     O_R   0.061000 0.500050 0.113470 -0.606132
O8    O     O_R   0.939000 0.500050 0.886530 -0.607828
O9    O     O_R   0.561000 0.999980 0.008430 -0.612982
O10   O     O_R   0.439000 0.999980 0.991570 -0.611147
O11   O     O_R   0.061000 0.499980 0.008430 -0.612984
O12   O     O_R   0.939000 0.499980 0.991570 -0.611149
O13   O     O_R   0.500000 0.061040 0.052440 -0.598357
O14   O     O_R   0.500000 0.061040 0.947560 -0.619182
O15   O     O_R   1.000000 0.561040 0.052440 -0.598358
O16   O     O_R   1.000000 0.561040 0.947560 -0.619181
O17   O     O_R   0.939030 0.965580 0.439000 -0.611713
O18   O     O_R   0.060970 0.965580 0.561000 -0.611403
O19   O     O_R   0.439030 0.465580 0.439000 -0.611703
O20   O     O_R   0.560970 0.465580 0.561000 -0.611427
O21   O     O_R   0.000010 0.034440 0.593030 -0.616938
O22   O     O_R   0.999990 0.034440 0.406970 -0.616870
O23   O     O_R   0.500010 0.534440 0.593030 -0.616969
O24   O     O_R   0.499990 0.534440 0.406970 -0.616942
O25   O     O_R   0.000020 0.965580 0.593000 -0.625011
O26   O     O_R   0.999980 0.965580 0.407000 -0.625071
O27   O     O_R   0.500020 0.465580 0.593000 -0.625001
O28   O     O_R   0.499980 0.465580 0.407000 -0.625052
O29   O     O_R   0.034440 0.939060 0.034360 -0.614908
O30   O     O_R   0.965560 0.939060 0.965640 -0.614939
O31   O     O_R   0.534440 0.439060 0.034360 -0.614870
O32   O     O_R   0.465560 0.439060 0.965640 -0.614927
O33   O     O_R   0.034440 0.000050 0.941370 -0.619686
O34   O     O_R   0.965560 0.000050 0.058630 -0.619858
O35   O     O_R   0.534440 0.500050 0.941370 -0.619661
O36   O     O_R   0.465560 0.500050 0.058630 -0.619760
O37   O     O_R   0.965570 0.000070 0.872530 -0.622246
O38   O     O_R   0.034430 0.000070 0.127470 -0.622128
O39   O     O_R   0.465570 0.500070 0.872530 -0.622269
O40   O     O_R   0.534430 0.500070 0.127470 -0.622250
O41   O     O_R   0.034450 0.061050 0.034440 -0.602699
O42   O     O_R   0.965550 0.061050 0.965560 -0.602643
O43   O     O_R   0.534450 0.561050 0.034440 -0.602691
O44   O     O_R   0.465550 0.561050 0.965560 -0.602674
O45   O     O_R   0.500030 0.939050 0.052570 -0.609502
O46   O     O_R   0.499970 0.939050 0.947430 -0.608963
O47   O     O_R   0.000030 0.439050 0.052570 -0.609501
O48   O     O_R   0.999970 0.439050 0.947430 -0.608962
Zn1   Zn    Zn3+2 0.000000 0.045990 0.500000 1.026859
Zn2   Zn    Zn3+2 0.500000 0.545990 0.500000 1.026787
Zn3   Zn    Zn3+2 0.000000 0.954030 0.500000 0.999331
Zn4   Zn    Zn3+2 0.500000 0.454030 0.500000 0.999363
Zn5   Zn    Zn3+2 0.045990 0.000050 0.045940 1.009550
Zn6   Zn    Zn3+2 0.954010 0.000050 0.954060 1.009347
Zn7   Zn    Zn3+2 0.545990 0.500050 0.045940 1.009525
Zn8   Zn    Zn3+2 0.454010 0.500050 0.954060 1.009392
Zn9   Zn    Zn3+2 0.500020 0.000060 0.070120 1.025540
Zn10  Zn    Zn3+2 0.499980 0.000060 0.929880 1.014109
Zn11  Zn    Zn3+2 0.000020 0.500060 0.070120 1.025543
Zn12  Zn    Zn3+2 0.999980 0.500060 0.929880 1.014115
S1    S     S_3+6 0.798032 0.005145 0.430923 0.025472
O49   O     O_2   0.825034 0.967203 0.465409 -0.297656
O50   O     O_2   0.825077 0.043370 0.458954 -0.291577
O51   O     O_3   0.763932 0.007474 0.456401 -0.547361
H45   H     H_    0.781400 0.008926 0.512237 0.393378
S2    S     S_3+6 0.201967 0.004009 0.569017 0.025344
O52   O     O_2   0.174980 0.965996 0.535110 -0.297867
O53   O     O_2   0.174906 0.042213 0.540402 -0.291738
O54   O     O_3   0.236066 0.005841 0.543508 -0.547580
H46   H     H_    0.218598 0.006962 0.487652 0.393264
S3    S     S_3+6 0.298032 0.505127 0.430924 0.025480
O55   O     O_2   0.325035 0.467183 0.465399 -0.297652
O56   O     O_2   0.325076 0.543351 0.458968 -0.291560
O57   O     O_3   0.263932 0.507447 0.456403 -0.547364
H47   H     H_    0.281400 0.508894 0.512240 0.393375
S4    S     S_3+6 0.701967 0.503947 0.569014 0.025366
O58   O     O_2   0.674980 0.465932 0.535146 -0.297863
O59   O     O_2   0.674908 0.542152 0.540358 -0.291660
O60   O     O_3   0.736067 0.505750 0.543502 -0.547597
H48   H     H_    0.718598 0.506853 0.487646 0.393244
C137  C     C_2   0.420137 0.207179 0.922551 0.924462
O61   O     O_2   0.389675 0.224806 0.869845 -0.606052
O62   O     O_R   0.415519 0.167536 0.944099 -0.806753
H49   H     H_    0.385891 0.156735 0.911312 0.354023
C138  C     C_2   0.579481 0.207158 0.091300 0.924124
O63   O     O_2   0.610885 0.224772 0.104089 -0.607980
O64   O     O_R   0.582874 0.167521 0.121355 -0.804548
H50   H     H_    0.612564 0.156712 0.151383 0.355289
C139  C     C_2   0.920132 0.707179 0.922336 0.924472
O65   O     O_2   0.889696 0.724807 0.869576 -0.606056
O66   O     O_R   0.915484 0.667536 0.943840 -0.806763
H51   H     H_    0.885858 0.656736 0.910979 0.354025
C140  C     C_2   0.079467 0.707157 0.091495 0.924110
O67   O     O_2   0.110893 0.724771 0.104389 -0.607972
O68   O     O_R   0.082829 0.667521 0.121527 -0.804538
H52   H     H_    0.112518 0.656712 0.151634 0.355295
S5    S     S_3+6 0.014544 0.201850 0.886062 0.033303
O69   O     O_2   0.017648 0.232014 0.835527 -0.266854
O70   O     O_2   0.054267 0.177212 0.930537 -0.297859
O71   O     O_3   0.974558 0.169046 0.833021 -0.553509
H53   H     H_    0.983467 0.151531 0.806128 0.377979
S6    S     S_3+6 0.985436 0.202179 0.113733 0.033588
O72   O     O_2   0.982307 0.232482 0.164198 -0.266618
O73   O     O_2   0.945728 0.177507 0.069297 -0.297509
O74   O     O_3   0.025440 0.169432 0.166851 -0.553456
H54   H     H_    0.016548 0.152026 0.193811 0.378097
S7    S     S_3+6 0.514844 0.701851 0.886440 0.033315
O75   O     O_2   0.518072 0.732015 0.836049 -0.266887
O76   O     O_2   0.554555 0.677213 0.931113 -0.297783
O77   O     O_3   0.474886 0.669047 0.833217 -0.553558
H55   H     H_    0.483878 0.651535 0.806451 0.377957
S8    S     S_3+6 0.485127 0.702177 0.113341 0.033596
O78   O     O_2   0.481893 0.732478 0.163689 -0.266566
O79   O     O_2   0.445417 0.677526 0.068695 -0.297541
O80   O     O_3   0.525086 0.669408 0.166614 -0.553476
H56   H     H_    0.516077 0.651960 0.193345 0.378078

loop_
_geom_bond_atom_site_label_1
_geom_bond_atom_site_label_2
_ccdc_geom_bond_type
C10   H38   S    
C99   C103  A    
C65   O7    A    
C66   O8    A    
O45   Zn9   S    
C56   O38   A    
C79   C121  S    
S6    O72   D    
C21   S1    S    
C16   C20   A    
C28   C40   S    
O66   H51   S    
C96   C99   A    
C128  C132  S    
O51   H45   S    
C15   C35   S    
C9    C13   A    
C11   C15   A    
C12   C16   A    
C61   C115  S    
S7    O76   D    
C79   H13   S    
C97   C105  S    
C32   H36   S    
C130  C134  S    
O10   Zn9   S    
O33   Zn5   S    
C76   C83   A    
C82   C124  S    
C25   C29   A    
C27   C31   A    
C72   C140  S    
O62   H49   S    
C1    O1    A    
C26   C38   S    
C123  H19   S    
C94   C97   A    
C17   C21   A    
O37   Zn6   S    
C19   C23   A    
C13   C33   S    
O8    Zn12  S    
C10   C30   A    
C6    C80   S    
C59   C113  S    
C48   O28   A    
C111  C113  T    
O3    Zn2   S    
O28   Zn4   S    
C129  C133  S    
C1    C41   S    
C139  O66   S    
C35   C51   T    
C19   H43   S    
C104  C112  S    
C55   C117  S    
C17   H41   S    
O42   Zn6   S    
O26   Zn3   S    
C84   C88   S    
C119  C123  S    
C57   O39   A    
C98   C106  S    
S8    O79   D    
C68   C92   S    
O31   Zn7   S    
C55   O33   A    
C68   O15   A    
C127  C131  S    
C125  C129  S    
O20   Zn4   S    
C29   H33   S    
C101  S8    S    
C64   O6    A    
C62   O47   A    
S4    O60   S    
C100  S5    S    
C109  C135  S    
C60   C114  S    
C112  C114  T    
C5    C133  S    
O54   H46   S    
C81   C123  S    
O15   Zn11  S    
O48   Zn12  S    
C137  O61   D    
S1    O49   D    
C118  C122  S    
S4    O59   D    
C24   S4    S    
C58   O40   A    
C8    C128  S    
O5    Zn9   S    
C65   O11   A    
C53   O30   A    
C66   O12   A    
C119  C131  S    
C9    H37   S    
C5    C79   S    
C117  C129  S    
C56   O34   A    
C36   C52   T    
C12   H40   S    
C130  H26   S    
C54   O32   A    
S5    O69   D    
C70   C77   A    
C72   C75   A    
O32   Zn8   S    
C95   H11   S    
O71   H53   S    
C10   C14   A    
C22   S2    S    
O18   Zn3   S    
S3    O57   S    
C77   C84   A    
C81   H15   S    
C4    O4    A    
C121  C125  S    
C59   O42   A    
C123  C127  S    
C132  C136  S    
C129  H25   S    
O14   Zn10  S    
C138  O64   S    
C73   C85   S    
O22   Zn1   S    
C7    C81   S    
C26   C30   A    
O25   Zn3   S    
C60   O43   A    
C93   C97   A    
O11   Zn12  S    
C46   O26   A    
C21   C25   A    
S2    O52   D    
O41   Zn5   S    
C18   C22   A    
C105  C115  T    
C1    O17   A    
C24   C28   A    
O38   Zn5   S    
C14   C34   S    
O23   Zn2   S    
O46   Zn10  S    
C80   C108  S    
S6    O73   D    
C61   O46   A    
C13   C17   A    
S1    O51   S    
C124  H20   S    
C16   C36   S    
C31   H35   S    
C2    C42   S    
C62   O48   A    
C140  O68   S    
C37   C41   T    
C7    C135  S    
C40   C44   T    
C18   H42   S    
S6    O74   S    
S5    O71   S    
C5    C125  S    
C135  H31   S    
C7    C127  S    
C3    O3    A    
S2    O54   S    
C94   H10   S    
C83   C87   S    
C8    C136  S    
O40   Zn7   S    
O68   H52   S    
S3    O55   D    
C55   O37   A    
C80   C122  S    
C15   C19   A    
C121  H17   S    
C8    C82   S    
C71   C76   A    
C125  H21   S    
O27   Zn4   S    
C126  C130  S    
C33   C49   T    
C103  C111  S    
O77   H55   S    
C51   C65   S    
O1    Zn1   S    
C30   H34   S    
C23   S3    S    
C110  C136  S    
C57   O35   A    
C63   O5    A    
C134  H30   S    
C69   C73   A    
C67   O14   A    
C124  C128  S    
C76   H5    S    
C120  C132  S    
C139  O65   D    
O34   Zn6   S    
O9    Zn10  S    
O17   Zn3   S    
C96   H12   S    
C6    C126  S    
C72   C74   A    
O80   H56   S    
C95   C100  A    
C4    C44   S    
C5    C45   S    
C100  C103  A    
C106  C116  T    
C7    C47   S    
C107  H1    S    
O19   Zn4   S    
C132  H28   S    
C108  C134  S    
O57   H47   S    
C118  C130  S    
C133  H29   S    
S7    O75   D    
C28   C32   A    
O64   H50   S    
O47   Zn11  S    
C70   C73   A    
C67   C91   S    
S7    O77   S    
C79   C107  S    
C68   O16   A    
C81   C109  S    
C101  C104  A    
O36   Zn8   S    
C52   C66   S    
C109  C119  S    
C48   O24   A    
C45   O25   A    
C56   C118  S    
C93   C102  A    
C71   C74   A    
C69   C137  S    
C54   C90   S    
C11   H39   S    
O44   Zn8   S    
O4    Zn2   S    
C107  C133  S    
C108  H2    S    
C75   C83   A    
O30   Zn6   S    
O7    Zn11  S    
C99   S6    S    
C46   O22   A    
C53   O29   A    
C22   C26   A    
C87   C89   T    
C107  C117  S    
C82   H16   S    
C49   C63   S    
C50   C64   S    
C14   C18   A    
C8    C48   S    
C85   C91   T    
C95   C98   A    
C20   H44   S    
C80   H14   S    
C3    C43   S    
O74   H54   S    
C82   C110  S    
S8    O78   D    
C38   C42   T    
C131  C135  S    
S3    O56   D    
C2    O2    A    
C117  C121  S    
C59   O41   A    
C25   C37   S    
O6    Zn10  S    
C20   C24   A    
C94   C101  A    
C27   C39   S    
C3    O19   A    
C93   H9    S    
C23   C27   A    
C138  O63   D    
C71   C139  S    
C57   C119  S    
C11   C31   A    
C12   C32   A    
C122  H18   S    
C69   C78   A    
C60   O44   A    
C58   C120  S    
C126  H22   S    
S2    O53   D    
C34   C50   T    
C47   O23   A    
C108  C118  S    
O35   Zn7   S    
C110  C120  S    
C137  O62   S    
O12   Zn11  S    
C39   C43   T    
C136  H32   S    
C63   O9    A    
C61   O45   A    
C96   C98   A    
S1    O50   D    
C102  S7    S    
C122  C126  S    
C62   C116  S    
C75   H6    S    
O2    Zn1   S    
C4    O20   A    
S4    O58   D    
C140  O67   D    
C74   C86   S    
C102  C104  A    
O13   Zn9   S    
O43   Zn7   S    
C54   O31   A    
S5    O70   D    
O60   H48   S    
C127  H23   S    
C128  H24   S    
C70   C138  S    
O16   Zn12  S    
C6    C46   S    
C2    O18   A    
O39   Zn8   S    
S8    O80   S    
C88   C90   T    
C64   O10   A    
C9    C29   A    
C47   O27   A    
C109  H3    S    
C110  H4    S    
C77   H8    S    
C6    C134  S    
C86   C92   T    
C78   H7    S    
C53   C89   S    
O21   Zn1   S    
O24   Zn2   S    
O29   Zn5   S    
C78   C84   A    
C45   O21   A    
C131  H27   S    
C67   O13   A    
C120  C124  S    
C58   O36   A    
