data_mof_unit_44591.cif
_audit_creation_date              2013-03-05T16:00:37-0500
_audit_creation_method            fapswitch 2.2
_symmetry_space_group_name_H-M    P1
_symmetry_Int_Tables_number       1
_space_group_crystal_system       triclinic
_cell_length_a                    11.126503
_cell_length_b                    14.864897
_cell_length_c                    15.239444
_cell_angle_alpha                 63.288662
_cell_angle_beta                  109.397906
_cell_angle_gamma                 99.594668
_cell_volume                      2123.2730313

loop_
_atom_site_label
_atom_site_type_symbol
_atom_site_description
_atom_site_fract_x
_atom_site_fract_y
_atom_site_fract_z
_atom_type_partial_charge
O1    O     O_R   0.455060 0.022100 0.338110 -0.503317
O2    O     O_R   0.512640 0.160150 0.379180 -0.540593
C1    C     C_R   0.475749 0.120614 0.312344 0.923225
O3    O     O_R   0.288900 0.930980 0.479450 -0.572890
O4    O     O_R   0.346480 0.069030 0.520520 -0.534973
C2    C     C_R   0.261674 0.998586 0.502599 0.817131
Cu1   Cu    Cu3+1 0.465900 0.918260 0.475680 1.046122
Cu2   Cu    Cu3+1 0.534100 0.081740 0.524320 1.018271
O5    O     O_R   0.487360 0.839850 0.620820 -0.621950
O6    O     O_R   0.544940 0.977900 0.661890 -0.595597
O7    O     O_R   0.653520 0.930970 0.479480 -0.495320
O8    O     O_R   0.711100 0.069020 0.520550 -0.615704
C3    C     C_R   0.518526 0.880890 0.687217 0.736062
C4    C     C_R   0.739061 0.999266 0.498151 0.873681
C5    C     C_3   0.034898 0.924955 0.451048 -0.204895
H1    H     H_    0.025703 0.971551 0.367909 0.197509
C6    C     C_3   0.897117 0.916997 0.459070 0.310151
H2    H     H_    0.835196 0.939418 0.379125 0.163669
H3    H     H_    0.119448 0.871585 0.653156 0.158926
H4    H     H_    0.937212 0.912638 0.667963 0.207860
C7    C     C_3   0.108688 0.953901 0.615109 -0.100778
C8    C     C_3   0.067926 0.101886 0.440679 -0.420118
C9    C     C_3   0.123582 0.993696 0.504369 -0.035411
H5    H     H_    0.114966 0.146513 0.484622 0.219141
H6    H     H_    0.092831 0.139924 0.367337 0.254600
C10   C     C_3   0.877021 0.996288 0.496258 -0.097743
C11   C     C_3   0.970825 0.974693 0.605964 -0.436999
C12   C     C_3   0.921305 0.102062 0.424126 0.157268
H7    H     H_    0.905551 0.158875 0.447840 0.138596
H8    H     H_    0.973044 0.041595 0.621259 0.179649
C13   C     C_R   0.456154 0.193894 0.203698 -0.023399
C14   C     C_R   0.523224 0.815394 0.795680 -0.051562
C15   C     C_R   0.407098 0.234219 0.023648 -0.184583
C16   C     C_R   0.432821 0.163474 0.125414 -0.137062
C17   C     C_R   0.463144 0.297426 0.178950 -0.134280
C18   C     C_R   0.445861 0.371272 0.077434 0.066117
C19   C     C_R   0.409125 0.338333 0.997767 0.135153
C20   C     C_R   0.467988 0.476313 0.053503 0.038002
C21   C     C_R   0.436013 0.547831 0.949296 0.028553
C22   C     C_R   0.377944 0.512039 0.872991 -0.233166
C23   C     C_R   0.375484 0.410046 0.894533 0.098011
C24   C     C_R   0.527834 0.511302 0.130354 -0.170466
C25   C     C_R   0.565606 0.612002 0.106933 0.061344
C26   C     C_R   0.547723 0.681224 0.003190 0.125349
C27   C     C_R   0.475292 0.651194 0.923959 0.079627
C28   C     C_R   0.604953 0.778552 0.976352 -0.200911
C29   C     C_R   0.596626 0.843042 0.874218 -0.194984
C30   C     C_R   0.454789 0.724035 0.821169 -0.237447
H9    H     H_    0.387570 0.711225 0.759048 0.128601
H10   H     H_    0.648098 0.914575 0.856860 0.179236
H11   H     H_    0.385753 0.205823 0.966080 0.163819
H12   H     H_    0.435876 0.085248 0.142644 0.215724
H13   H     H_    0.479430 0.319150 0.240242 0.194915
H14   H     H_    0.340530 0.562338 0.794261 0.139715
H15   H     H_    0.554464 0.460859 0.210718 0.166464
H16   H     H_    0.662734 0.804211 0.033657 0.163248
N1    N     N_R   0.585360 0.204570 0.560800 -0.273487
N2    N     N_R   0.414550 0.795430 0.439160 -0.240250
C31   C     C_R   0.739836 0.273627 0.666574 0.336566
C32   C     C_R   0.694921 0.195016 0.637685 -0.095093
C33   C     C_R   0.500052 0.281340 0.523892 0.510412
C34   C     C_R   0.538927 0.357744 0.560354 -0.169029
C35   C     C_R   0.669139 0.361898 0.613130 -0.026638
C36   C     C_R   0.462956 0.441094 0.529956 0.144945
C37   C     C_R   0.521962 0.536065 0.515426 0.060313
C38   C     C_R   0.654333 0.542551 0.534807 -0.247834
C39   C     C_R   0.727955 0.456780 0.594973 -0.099977
C40   C     C_R   0.331742 0.433258 0.517259 -0.120772
C41   C     C_R   0.256420 0.518362 0.455475 -0.139026
C42   C     C_R   0.315261 0.613628 0.430028 0.041452
C43   C     C_R   0.445083 0.621343 0.476965 -0.027106
C44   C     C_R   0.246625 0.701157 0.366951 -0.357135
C45   C     C_R   0.303824 0.793935 0.363136 0.561154
C46   C     C_R   0.483508 0.706523 0.499393 0.194673
H17   H     H_    0.830522 0.465836 0.615211 0.201948
H18   H     H_    0.153491 0.510143 0.434087 0.145630
H19   H     H_    0.746958 0.125732 0.676080 0.192002
H20   H     H_    0.700353 0.613617 0.503489 0.244715
H21   H     H_    0.288365 0.361769 0.554149 0.184233
H22   H     H_    0.150915 0.696963 0.319325 0.193050
C47   C     C_3   0.081399 0.823361 0.466089 -0.212092
C48   C     C_3   0.148068 0.748336 0.577338 -0.263089
C49   C     C_3   0.164046 0.645066 0.583736 -0.837154
H23   H     H_    0.087412 0.627421 0.524770 0.271809
H24   H     H_    0.257248 0.642296 0.574117 0.228170
H25   H     H_    0.160569 0.585393 0.659899 0.242046
H26   H     H_    0.242664 0.777710 0.607190 0.197146
H27   H     H_    0.094809 0.736903 0.631158 0.236152
H28   H     H_    0.002542 0.788593 0.424007 0.216184
H29   H     H_    0.142816 0.837344 0.418664 0.220853
C50   C     C_3   0.212229 0.993392 0.687863 -0.400550
C51   C     C_3   0.195800 0.948861 0.796060 -0.365226
C52   C     C_3   0.315127 0.966678 0.872813 -0.781645
H30   H     H_    0.393900 0.920427 0.887106 0.262698
H31   H     H_    0.345670 0.047136 0.843189 0.248750
H32   H     H_    0.295446 0.944589 0.946765 0.269523
H33   H     H_    0.113955 0.984371 0.793965 0.241368
H34   H     H_    0.176408 0.866342 0.823568 0.225916
H35   H     H_    0.306976 0.970943 0.696033 0.212773
H36   H     H_    0.211764 0.076849 0.655598 0.223936
C53   C     C_3   0.344444 0.380957 0.805548 -0.474366
C54   C     C_3   0.210886 0.332565 0.785007 -0.258507
C55   C     C_3   0.207286 0.248020 0.752918 -0.803315
H37   H     H_    0.279718 0.259952 0.713263 0.229857
H38   H     H_    0.225697 0.175089 0.821926 0.251922
H39   H     H_    0.112039 0.243382 0.700290 0.281819
H40   H     H_    0.176960 0.301186 0.854187 0.265819
H41   H     H_    0.143479 0.391838 0.722653 0.237744
H42   H     H_    0.348339 0.447946 0.733534 0.183155
H43   H     H_    0.420256 0.331133 0.820918 0.219521
C56   C     C_3   0.629327 0.640668 0.196014 -0.397972
C57   C     C_3   0.774270 0.629379 0.230551 -0.367080
C58   C     C_3   0.837874 0.654376 0.322568 -0.754259
H44   H     H_    0.816148 0.732507 0.303376 0.278162
H45   H     H_    0.804235 0.600834 0.389164 0.259163
H46   H     H_    0.942593 0.647706 0.344462 0.222738
H47   H     H_    0.796763 0.550586 0.252455 0.234692
H48   H     H_    0.814534 0.680230 0.166721 0.238035
H49   H     H_    0.604495 0.718313 0.175751 0.208422
H50   H     H_    0.591626 0.591287 0.261992 0.228255
C59   C     C_3   0.584696 0.689314 0.600768 -0.238375
C60   C     C_3   0.545723 0.612721 0.694530 -0.495846
C61   C     C_3   0.652941 0.598820 0.793314 -0.703145
H51   H     H_    0.739785 0.571591 0.792897 0.269096
H52   H     H_    0.676575 0.671003 0.800910 0.258791
H53   H     H_    0.624158 0.541860 0.860974 0.253661
H54   H     H_    0.458832 0.638869 0.693343 0.230350
H55   H     H_    0.524788 0.538547 0.691313 0.230024
H56   H     H_    0.670821 0.658446 0.607761 0.262402
H57   H     H_    0.617992 0.759760 0.606187 0.297554
S1    S     S_3+6 0.230266 0.902208 0.253452 -0.009758
O9    O     O_2   0.309139 0.936490 0.180734 -0.323601
O10   O     O_2   0.099444 0.873816 0.200950 -0.321969
O11   O     O_3   0.213738 0.997599 0.278722 -0.544786
H58   H     H_    0.177858 0.053132 0.210688 0.377711
S2    S     S_3+6 0.859346 0.249074 0.784641 -0.023267
O12   O     O_2   0.936432 0.342204 0.784192 -0.328690
O13   O     O_2   0.794537 0.211955 0.867344 -0.252085
O14   O     O_3   0.955019 0.158558 0.810225 -0.580846
H59   H     H_    0.008746 0.140544 0.882006 0.387108
S3    S     S_3+6 0.360121 0.306197 0.411381 -0.012685
O15   O     O_2   0.376876 0.411402 0.333961 -0.330641
O16   O     O_2   0.333488 0.238437 0.358844 -0.283817
O17   O     O_3   0.223229 0.300880 0.436891 -0.613999
H60   H     H_    0.161649 0.339068 0.369646 0.387199
S4    S     S_3+6 0.835169 0.791837 0.522648 -0.108614
O18   O     O_2   0.704396 0.792929 0.450989 -0.323802
O19   O     O_2   0.895113 0.700707 0.538300 -0.370505
O20   O     O_3   0.834638 0.775034 0.639203 -0.622877
H61   H     H_    0.914094 0.739171 0.687679 0.352334
S5    S     S_3+6 0.831651 0.146911 0.289026 -0.030005
O21   O     O_2   0.798200 0.254988 0.249029 -0.263258
O22   O     O_2   0.909108 0.140851 0.227590 -0.288408
O23   O     O_3   0.696153 0.079292 0.271823 -0.590811
H62   H     H_    0.685852 0.071889 0.208272 0.377854

loop_
_geom_bond_atom_site_label_1
_geom_bond_atom_site_label_2
_geom_bond_distance
_ccdc_geom_bond_type
C45   S1    1.779351 S    
C22   C23   1.397068 A    
C53   C54   1.536499 S    
C17   H13   1.071815 S    
C3    C14   1.481765 S    
C17   C18   1.407620 A    
C59   H57   1.081087 S    
S1    O11   1.678581 S    
C47   C48   1.552069 S    
C51   H34   1.111987 S    
C61   H51   1.110988 S    
C5    C47   1.572054 S    
C10   C12   1.571966 S    
Cu1   O7    2.048167 S    
C10   C11   1.567679 S    
C52   H30   1.108036 S    
N1    C33   1.396066 A    
C6    C10   1.591514 S    
C36   C40   1.399432 A    
C12   H7    1.113705 S    
H3    C7    1.101220 S    
C20   C24   1.414096 A    
C41   C42   1.396529 A    
S3    O16   1.487027 D    
O4    C2    1.348326 A    
Cu2   N1    2.079152 S    
O7    C4    1.332359 A    
C61   H52   1.109625 S    
C53   H42   1.110235 S    
C48   H26   1.101249 S    
C31   S2    1.766625 S    
C41   H18   1.083494 S    
C56   H49   1.110423 S    
S5    O23   1.679634 S    
C60   H54   1.092430 S    
O5    C3    1.329514 A    
C34   C36   1.427308 A    
C58   H44   1.110907 S    
C56   C57   1.533947 S    
C40   C41   1.395615 A    
C8    H6    1.109551 S    
S5    O21   1.503125 D    
C54   H41   1.111753 S    
C42   C43   1.394089 A    
C50   H36   1.110363 S    
Cu1   N2    2.079539 S    
C21   C27   1.433797 A    
C58   H46   1.108728 S    
C47   H28   1.105101 S    
C40   H21   1.072585 S    
C5    C9    1.598692 S    
C38   C39   1.391249 A    
C7    C11   1.563716 S    
C31   C32   1.389517 A    
C52   H31   1.109393 S    
C8    C12   1.566047 S    
C11   H8    1.113696 S    
C19   C23   1.409154 A    
C14   C30   1.397302 A    
C54   C55   1.530652 S    
C25   C56   1.518932 S    
O3    Cu1   2.031406 S    
C57   C58   1.525407 S    
C26   C28   1.414147 A    
C51   H33   1.111170 S    
C15   C16   1.390068 A    
C29   H10   1.083240 S    
S4    O19   1.497274 D    
C20   C21   1.418362 A    
C38   H20   1.065219 S    
C35   C39   1.398517 A    
C32   H19   1.081793 S    
Cu1   Cu2   2.767984 S    
S2    O13   1.502929 D    
S3    O17   1.674182 S    
C21   C22   1.412531 A    
C44   C45   1.403684 A    
C61   H53   1.107582 S    
C53   H43   1.111736 S    
C37   C43   1.429213 A    
C15   C19   1.413073 A    
C56   H50   1.113440 S    
O1    C1    1.335058 A    
S2    O14   1.681009 S    
C25   C26   1.412350 A    
C34   C35   1.410856 A    
C24   H15   1.075818 S    
C43   C46   1.419285 A    
S4    O20   1.680788 S    
C49   H23   1.109829 S    
Cu2   O8    2.031407 S    
C46   C59   1.518248 S    
C6    H2    1.106341 S    
C59   C60   1.520037 S    
C13   C16   1.391121 A    
C54   H40   1.111352 S    
C55   H38   1.108705 S    
C4    C10   1.553146 S    
C1    C13   1.481037 S    
O23   H62   0.990494 S    
C47   H29   1.085438 S    
C33   S3    1.830149 S    
C30   H9    1.065893 S    
C49   H24   1.104176 S    
O8    C4    1.335930 A    
C48   C49   1.530528 S    
C52   H32   1.110469 S    
C22   H14   1.066479 S    
C7    C9    1.575140 S    
C14   C29   1.396218 A    
C8    H5    1.101486 S    
O3    C2    1.310483 A    
C39   H17   1.080711 S    
C24   C25   1.397966 A    
S1    O9    1.499063 D    
C50   C51   1.539154 S    
C26   C27   1.422993 A    
N2    C46   1.399106 A    
S4    O18   1.498805 D    
C7    C50   1.553166 S    
C27   C30   1.413655 A    
Cu1   O5    1.931878 S    
C28   C29   1.393779 A    
C18   C19   1.420871 A    
O1    Cu1   1.943531 S    
C16   H12   1.074718 S    
O2    Cu2   1.931878 S    
C59   H56   1.083950 S    
O17   H60   0.991027 S    
S1    O10   1.504063 D    
O6    C3    1.322322 A    
O4    Cu2   2.048167 S    
O14   H59   0.990630 S    
C5    C6    1.558886 S    
O11   H58   0.990593 S    
H4    C11   1.104385 S    
C15   H11   1.079508 S    
C31   C35   1.400554 A    
C36   C37   1.406998 A    
C18   C20   1.432219 A    
O2    C1    1.315795 A    
C44   H22   1.081597 S    
S3    O15   1.504198 D    
C57   H48   1.110792 S    
C57   H47   1.112054 S    
C48   H27   1.103039 S    
C2    C9    1.534706 S    
C51   C52   1.526673 S    
C23   C53   1.520359 S    
C6    S4    1.808556 S    
C55   H39   1.109892 S    
C13   C17   1.405203 A    
S5    O22   1.505016 D    
C60   H55   1.108040 S    
C33   C34   1.424677 A    
N1    C32   1.355877 A    
C49   H25   1.108305 S    
C12   S5    1.817113 S    
Cu2   O6    1.943531 S    
C37   C38   1.398235 A    
C28   H16   1.079916 S    
C55   H37   1.107093 S    
C8    C9    1.562504 S    
S2    O12   1.500572 D    
C42   C44   1.385397 A    
C50   H35   1.109475 S    
C60   C61   1.530265 S    
O20   H61   0.990333 S    
C5    H1    1.115386 S    
N2    C45   1.387977 A    
C58   H45   1.109234 S    
