data_mof_unit_65029.cif
_audit_creation_date              2013-03-05T15:55:31-0500
_audit_creation_method            fapswitch 2.2
_symmetry_space_group_name_H-M    P1
_symmetry_Int_Tables_number       1
_space_group_crystal_system       triclinic
_cell_length_a                    21.799039
_cell_length_b                    21.799042
_cell_length_c                    23.65284
_cell_angle_alpha                 89.999986
_cell_angle_beta                  89.999965
_cell_angle_gamma                 89.999969
_cell_volume                      11239.7862057

loop_
_atom_site_label
_atom_site_type_symbol
_atom_site_description
_atom_site_fract_x
_atom_site_fract_y
_atom_site_fract_z
_atom_type_partial_charge
O1    O     O_R   0.090160 0.552180 0.999990 -0.588403
O2    O     O_R   0.552180 0.909840 0.999990 -0.588404
O3    O     O_R   0.909840 0.447820 0.999990 -0.588403
O4    O     O_R   0.447820 0.090160 0.999990 -0.588404
O5    O     O_R   0.090160 0.447820 0.000010 -0.588403
O6    O     O_R   0.552180 0.090160 0.000010 -0.588403
O7    O     O_R   0.909840 0.552180 0.000010 -0.588403
O8    O     O_R   0.447820 0.909840 0.000010 -0.588403
O9    O     O_R   0.590160 0.052180 0.499990 -0.588403
O10   O     O_R   0.052180 0.409840 0.499990 -0.588403
O11   O     O_R   0.409840 0.947820 0.499990 -0.588404
O12   O     O_R   0.947820 0.590160 0.499990 -0.588403
O13   O     O_R   0.590160 0.947820 0.500010 -0.588404
O14   O     O_R   0.052180 0.590160 0.500010 -0.588403
O15   O     O_R   0.409840 0.052180 0.500010 -0.588404
O16   O     O_R   0.947820 0.409840 0.500010 -0.588403
C1    C     C_R   0.118505 0.500000 0.000000 0.835846
C2    C     C_R   0.500000 0.881495 0.000000 0.835847
C3    C     C_R   0.881495 0.500000 1.000000 0.835847
C4    C     C_R   0.500000 0.118505 1.000000 0.835848
C5    C     C_R   0.618505 1.000000 0.500000 0.835847
C6    C     C_R   0.000000 0.381495 0.500000 0.835847
C7    C     C_R   0.381495 0.000000 0.500000 0.835848
C8    C     C_R   1.000000 0.618505 0.500000 0.835847
O17   O     O_R   0.999980 0.552180 0.081400 -0.575193
O18   O     O_R   0.552180 0.000020 0.081400 -0.575192
O19   O     O_R   0.000020 0.447820 0.081400 -0.575191
O20   O     O_R   0.447820 0.999980 0.081400 -0.575191
O21   O     O_R   0.999980 0.447820 0.918600 -0.575192
O22   O     O_R   0.552180 0.999980 0.918600 -0.575192
O23   O     O_R   0.000020 0.552180 0.918600 -0.575192
O24   O     O_R   0.447820 0.000020 0.918600 -0.575192
O25   O     O_R   0.499980 0.052180 0.581400 -0.575191
O26   O     O_R   0.052180 0.500020 0.581400 -0.575192
O27   O     O_R   0.500020 0.947820 0.581400 -0.575193
O28   O     O_R   0.947820 0.499980 0.581400 -0.575192
O29   O     O_R   0.499980 0.947820 0.418600 -0.575191
O30   O     O_R   0.052180 0.499980 0.418600 -0.575192
O31   O     O_R   0.500020 0.052180 0.418600 -0.575192
O32   O     O_R   0.947820 0.500020 0.418600 -0.575192
C9    C     C_R   0.000000 0.500000 0.108044 0.804009
C10   C     C_R   0.500000 1.000000 0.108044 0.804009
C11   C     C_R   1.000000 0.500000 0.891956 0.804007
C12   C     C_R   0.500000 1.000000 0.891956 0.804007
C13   C     C_R   0.500000 0.000000 0.608044 0.804009
C14   C     C_R   1.000000 0.500000 0.608044 0.804006
C15   C     C_R   0.500000 0.000000 0.391956 0.804007
C16   C     C_R   0.000000 0.500000 0.391956 0.804007
Cu1   Cu    Cu3+1 0.000000 0.561790 0.000000 0.986476
Cu2   Cu    Cu3+1 0.561790 0.000000 0.000000 0.986476
Cu3   Cu    Cu3+1 0.000000 0.438210 0.000000 0.986476
Cu4   Cu    Cu3+1 0.438210 0.000000 0.000000 0.986476
Cu5   Cu    Cu3+1 0.500000 0.061790 0.500000 0.986476
Cu6   Cu    Cu3+1 0.061790 0.500000 0.500000 0.986476
Cu7   Cu    Cu3+1 0.500000 0.938210 0.500000 0.986475
Cu8   Cu    Cu3+1 0.938210 0.500000 0.500000 0.986476
C17   C     C_1   0.000000 0.500000 0.168941 -0.165018
C18   C     C_1   0.500000 1.000000 0.168941 -0.165018
C19   C     C_1   1.000000 0.500000 0.831059 -0.165017
C20   C     C_1   0.500000 1.000000 0.831059 -0.165018
C21   C     C_1   0.500000 1.000000 0.668941 -0.165019
C22   C     C_1   1.000000 0.500000 0.668941 -0.165017
C23   C     C_1   0.500000 1.000000 0.331059 -0.165017
C24   C     C_1   0.000000 0.500000 0.331059 -0.165018
C25   C     C_1   0.000000 0.500000 0.220045 0.010919
C26   C     C_1   0.500000 1.000000 0.220045 0.010920
C27   C     C_1   1.000000 0.500000 0.779955 0.010920
C28   C     C_1   0.500000 1.000000 0.779955 0.010921
C29   C     C_1   0.500000 1.000000 0.720045 0.010920
C30   C     C_1   1.000000 0.500000 0.720045 0.010920
C31   C     C_1   0.500000 1.000000 0.279955 0.010920
C32   C     C_1   0.000000 0.500000 0.279955 0.010920
C33   C     C_R   0.216914 0.474375 0.953429 0.013819
C34   C     C_R   0.474375 0.783086 0.953430 0.013819
C35   C     C_R   0.783086 0.525625 0.953430 0.013819
C36   C     C_R   0.525626 0.216914 0.953430 0.013819
C37   C     C_R   0.216914 0.525624 0.046571 0.013820
C38   C     C_R   0.474374 0.216914 0.046570 0.013819
C39   C     C_R   0.783086 0.474375 0.046570 0.013818
C40   C     C_R   0.525625 0.783086 0.046570 0.013819
C41   C     C_R   0.716914 0.974377 0.453429 0.013818
C42   C     C_R   0.974375 0.283086 0.453430 0.013819
C43   C     C_R   0.283085 0.025627 0.453431 0.013819
C44   C     C_R   0.025625 0.716914 0.453429 0.013817
C45   C     C_R   0.716914 0.025622 0.546571 0.013820
C46   C     C_R   0.974375 0.716914 0.546570 0.013819
C47   C     C_R   0.283085 0.974373 0.546570 0.013820
C48   C     C_R   0.025625 0.283086 0.546570 0.013819
C49   C     C_R   0.281252 0.472832 0.954609 0.295654
C50   C     C_R   0.472831 0.718748 0.954609 0.295653
C51   C     C_R   0.718748 0.527168 0.954609 0.295654
C52   C     C_R   0.527169 0.281252 0.954610 0.295652
C53   C     C_R   0.281252 0.527167 0.045391 0.295657
C54   C     C_R   0.472831 0.281252 0.045390 0.295652
C55   C     C_R   0.718748 0.472832 0.045391 0.295654
C56   C     C_R   0.527169 0.718748 0.045390 0.295655
C57   C     C_R   0.781252 0.972833 0.454608 0.295656
C58   C     C_R   0.972832 0.218748 0.454609 0.295653
C59   C     C_R   0.218748 0.027170 0.454610 0.295653
C60   C     C_R   0.027168 0.781252 0.454609 0.295654
C61   C     C_R   0.781252 0.027165 0.545392 0.295655
C62   C     C_R   0.972832 0.781252 0.545391 0.295652
C63   C     C_R   0.218748 0.972830 0.545390 0.295653
C64   C     C_R   0.027168 0.218748 0.545391 0.295654
C65   C     C_R   0.313333 0.500000 0.000000 -0.274045
C66   C     C_R   0.500000 0.686667 1.000000 -0.274045
C67   C     C_R   0.686667 0.500000 0.000000 -0.274044
C68   C     C_R   0.500000 0.313333 0.000000 -0.274045
C69   C     C_R   0.813333 0.999999 0.500000 -0.274047
C70   C     C_R   1.000000 0.186667 0.500000 -0.274045
C71   C     C_R   0.186667 1.000000 0.500000 -0.274043
C72   C     C_R   0.000000 0.813333 0.500000 -0.274045
O33   O     O_R   0.499980 0.590270 0.952910 -0.537641
O34   O     O_R   0.590270 0.500020 0.952910 -0.537641
O35   O     O_R   0.500020 0.409730 0.952910 -0.537642
O36   O     O_R   0.409730 0.499980 0.952910 -0.537641
O37   O     O_R   0.499980 0.409730 0.047090 -0.537642
O38   O     O_R   0.590270 0.499980 0.047090 -0.537641
O39   O     O_R   0.500020 0.590270 0.047090 -0.537644
O40   O     O_R   0.409730 0.500020 0.047090 -0.537642
O41   O     O_R   0.999980 0.090270 0.452910 -0.537640
O42   O     O_R   0.090270 0.000020 0.452910 -0.537643
O43   O     O_R   0.000020 0.909730 0.452910 -0.537642
O44   O     O_R   0.909730 0.999980 0.452910 -0.537640
O45   O     O_R   0.999980 0.909730 0.547090 -0.537640
O46   O     O_R   0.090270 0.999980 0.547090 -0.537643
O47   O     O_R   0.000020 0.090270 0.547090 -0.537645
O48   O     O_R   0.909730 0.000020 0.547090 -0.537642
C73   C     C_R   0.500000 0.619392 0.000000 0.888777
C74   C     C_R   0.619392 0.500000 1.000000 0.888779
C75   C     C_R   0.500000 0.380608 0.000000 0.888781
C76   C     C_R   0.380608 0.500000 0.000000 0.888776
C77   C     C_R   1.000000 0.119392 0.500000 0.888775
C78   C     C_R   0.119392 1.000000 0.500000 0.888783
C79   C     C_R   0.000000 0.880608 0.500000 0.888778
C80   C     C_R   0.880608 1.000000 0.500000 0.888769
C81   C     C_R   0.185134 0.500000 1.000000 -0.129481
C82   C     C_R   0.500000 0.814866 0.000000 -0.129480
C83   C     C_R   0.814866 0.500000 1.000000 -0.129478
C84   C     C_R   0.500000 0.185134 1.000000 -0.129479
C85   C     C_R   0.685134 1.000000 0.500000 -0.129477
C86   C     C_R   0.000000 0.314866 0.500000 -0.129479
C87   C     C_R   0.314866 1.000000 0.500000 -0.129482
C88   C     C_R   1.000000 0.685134 0.500000 -0.129478
Cu9   Cu    Cu3+1 0.500000 0.500000 0.944220 1.237245
Cu10  Cu    Cu3+1 0.500000 0.500000 0.055780 1.237245
Cu11  Cu    Cu3+1 0.000000 0.000000 0.444220 1.237245
Cu12  Cu    Cu3+1 0.000000 0.000000 0.555780 1.237245
C89   C     C_3   0.182792 0.450287 0.901601 -0.356820
C90   C     C_3   0.164322 0.502856 0.862516 -0.753157
H1    H     H_    0.133137 0.535196 0.884566 0.239316
H2    H     H_    0.205616 0.528240 0.848078 0.290102
H3    H     H_    0.140242 0.484210 0.824892 0.239246
H4    H     H_    0.210955 0.417349 0.877053 0.251467
H5    H     H_    0.141697 0.423466 0.913548 0.215276
C91   C     C_3   0.450285 0.817208 0.901602 -0.356818
C92   C     C_3   0.502854 0.835678 0.862516 -0.753156
H6    H     H_    0.535194 0.866863 0.884566 0.239315
H7    H     H_    0.528237 0.794384 0.848078 0.290102
H8    H     H_    0.484208 0.859758 0.824892 0.239246
H9    H     H_    0.417347 0.789045 0.877054 0.251467
H10   H     H_    0.423465 0.858303 0.913549 0.215276
C93   C     C_3   0.817208 0.549713 0.901601 -0.356821
C94   C     C_3   0.835677 0.497144 0.862515 -0.753160
H11   H     H_    0.866862 0.464804 0.884565 0.239317
H12   H     H_    0.794383 0.471760 0.848078 0.290103
H13   H     H_    0.859757 0.515790 0.824891 0.239247
H14   H     H_    0.789045 0.582651 0.877053 0.251468
H15   H     H_    0.858303 0.576533 0.913547 0.215276
C95   C     C_3   0.549716 0.182792 0.901602 -0.356818
C96   C     C_3   0.497148 0.164321 0.862516 -0.753157
H16   H     H_    0.464807 0.133137 0.884565 0.239315
H17   H     H_    0.471765 0.205616 0.848077 0.290102
H18   H     H_    0.515795 0.140241 0.824893 0.239246
H19   H     H_    0.582654 0.210955 0.877055 0.251467
H20   H     H_    0.576537 0.141697 0.913550 0.215277
C97   C     C_3   0.182792 0.549712 0.098399 -0.356822
C98   C     C_3   0.164325 0.497143 0.137485 -0.753161
H21   H     H_    0.133143 0.464799 0.115435 0.239320
H22   H     H_    0.205621 0.471763 0.151925 0.290105
H23   H     H_    0.140242 0.515788 0.175108 0.239245
H24   H     H_    0.210954 0.582651 0.122946 0.251466
H25   H     H_    0.141695 0.576531 0.086453 0.215276
C99   C     C_3   0.450284 0.182792 0.098398 -0.356819
C100  C     C_3   0.502852 0.164321 0.137484 -0.753158
H26   H     H_    0.535192 0.133137 0.115434 0.239315
H27   H     H_    0.528235 0.205615 0.151922 0.290102
H28   H     H_    0.484205 0.140241 0.175107 0.239246
H29   H     H_    0.417346 0.210955 0.122945 0.251467
H30   H     H_    0.423463 0.141697 0.086450 0.215277
C101  C     C_3   0.817208 0.450287 0.098399 -0.356821
C102  C     C_3   0.835678 0.502856 0.137484 -0.753158
H31   H     H_    0.866864 0.535195 0.115434 0.239316
H32   H     H_    0.794384 0.528240 0.151921 0.290102
H33   H     H_    0.859757 0.484210 0.175108 0.239247
H34   H     H_    0.789045 0.417349 0.122947 0.251468
H35   H     H_    0.858303 0.423466 0.086452 0.215276
C103  C     C_3   0.549714 0.817208 0.098398 -0.356822
C104  C     C_3   0.497146 0.835676 0.137485 -0.753158
H36   H     H_    0.464803 0.866858 0.115435 0.239318
H37   H     H_    0.471766 0.794380 0.151925 0.290104
H38   H     H_    0.515792 0.859758 0.175107 0.239245
H39   H     H_    0.582654 0.789045 0.122945 0.251466
H40   H     H_    0.576534 0.858304 0.086452 0.215276
C105  C     C_3   0.682792 0.950290 0.401599 -0.356823
C106  C     C_3   0.664322 0.002860 0.362516 -0.753157
H41   H     H_    0.633137 0.035199 0.384566 0.239318
H42   H     H_    0.705616 0.028245 0.348079 0.290103
H43   H     H_    0.640243 0.984216 0.324891 0.239246
H44   H     H_    0.710954 0.917353 0.377051 0.251468
H45   H     H_    0.641696 0.923469 0.413546 0.215274
C107  C     C_3   0.950286 0.317208 0.401601 -0.356819
C108  C     C_3   0.002855 0.335678 0.362516 -0.753156
H46   H     H_    0.035196 0.366861 0.384566 0.239317
H47   H     H_    0.028237 0.294383 0.348077 0.290102
H48   H     H_    0.984209 0.359758 0.324893 0.239245
H49   H     H_    0.917347 0.289045 0.377054 0.251467
H50   H     H_    0.923466 0.358303 0.413548 0.215276
C109  C     C_3   0.317208 0.049717 0.401603 -0.356817
C110  C     C_3   0.335678 0.997150 0.362516 -0.753157
H51   H     H_    0.366862 0.964809 0.384565 0.239315
H52   H     H_    0.294383 0.971767 0.348077 0.290101
H53   H     H_    0.359758 0.015797 0.324893 0.239246
H54   H     H_    0.289044 0.082656 0.377056 0.251467
H55   H     H_    0.358303 0.076538 0.413550 0.215277
C111  C     C_3   0.049713 0.682792 0.401601 -0.356820
C112  C     C_3   0.997144 0.664322 0.362516 -0.753157
H56   H     H_    0.964805 0.633136 0.384565 0.239316
H57   H     H_    0.971760 0.705617 0.348079 0.290102
H58   H     H_    0.015790 0.640243 0.324891 0.239247
H59   H     H_    0.082651 0.710955 0.377053 0.251467
H60   H     H_    0.076534 0.641697 0.413548 0.215276
C113  C     C_3   0.682792 0.049708 0.598401 -0.356822
C114  C     C_3   0.664321 0.997137 0.637484 -0.753161
H61   H     H_    0.633136 0.964799 0.615433 0.239319
H62   H     H_    0.705616 0.971752 0.651920 0.290102
H63   H     H_    0.640243 0.015781 0.675109 0.239247
H64   H     H_    0.710955 0.082645 0.622950 0.251469
H65   H     H_    0.641696 0.076529 0.586455 0.215275
C115  C     C_3   0.950287 0.682792 0.598399 -0.356821
C116  C     C_3   0.002855 0.664322 0.637484 -0.753159
H66   H     H_    0.035195 0.633136 0.615434 0.239316
H67   H     H_    0.028240 0.705616 0.651921 0.290103
H68   H     H_    0.984210 0.640243 0.675108 0.239247
H69   H     H_    0.917349 0.710955 0.622947 0.251468
H70   H     H_    0.923466 0.641697 0.586452 0.215276
C117  C     C_3   0.317208 0.950282 0.598397 -0.356817
C118  C     C_3   0.335678 0.002849 0.637485 -0.753158
H71   H     H_    0.366859 0.035193 0.615434 0.239317
H72   H     H_    0.294383 0.028229 0.651927 0.290102
H73   H     H_    0.359762 0.984201 0.675105 0.239244
H74   H     H_    0.289045 0.917342 0.622943 0.251466
H75   H     H_    0.358303 0.923462 0.586449 0.215278
C119  C     C_3   0.049714 0.317208 0.598399 -0.356820
C120  C     C_3   0.997145 0.335678 0.637484 -0.753158
H76   H     H_    0.964806 0.366864 0.615434 0.239316
H77   H     H_    0.971761 0.294384 0.651921 0.290102
H78   H     H_    0.015791 0.359756 0.675108 0.239247
H79   H     H_    0.082652 0.289045 0.622946 0.251467
H80   H     H_    0.076534 0.358303 0.586452 0.215276
N1    N     N_R   0.314112 0.442346 0.910158 0.130830
O49   O     O_R   0.318179 0.467352 0.860353 -0.314049
O50   O     O_R   0.342499 0.391011 0.920311 -0.338500
N2    N     N_R   0.442345 0.685888 0.910158 0.130829
O51   O     O_R   0.467350 0.681821 0.860353 -0.314049
O52   O     O_R   0.391010 0.657501 0.920313 -0.338501
N3    N     N_R   0.685888 0.557654 0.910158 0.130829
O53   O     O_R   0.681820 0.532648 0.860353 -0.314048
O54   O     O_R   0.657501 0.608990 0.920311 -0.338500
N4    N     N_R   0.557656 0.314112 0.910159 0.130829
O55   O     O_R   0.532652 0.318178 0.860353 -0.314050
O56   O     O_R   0.608990 0.342501 0.920314 -0.338501
N5    N     N_R   0.314112 0.557653 0.089842 0.130828
O57   O     O_R   0.318183 0.532645 0.139646 -0.314047
O58   O     O_R   0.342493 0.608992 0.079690 -0.338502
N6    N     N_R   0.442344 0.314112 0.089841 0.130830
O59   O     O_R   0.467348 0.318178 0.139647 -0.314050
O60   O     O_R   0.391009 0.342500 0.079686 -0.338501
N7    N     N_R   0.685888 0.442346 0.089842 0.130829
O61   O     O_R   0.681820 0.467353 0.139647 -0.314048
O62   O     O_R   0.657501 0.391011 0.079689 -0.338500
N8    N     N_R   0.557655 0.685888 0.089841 0.130829
O63   O     O_R   0.532650 0.681820 0.139646 -0.314050
O64   O     O_R   0.608991 0.657501 0.079687 -0.338501
N9    N     N_R   0.814112 0.942350 0.410156 0.130831
O65   O     O_R   0.818179 0.967357 0.360352 -0.314047
O66   O     O_R   0.842498 0.891013 0.420307 -0.338500
N10   N     N_R   0.942345 0.185888 0.410158 0.130829
O67   O     O_R   0.967350 0.181821 0.360353 -0.314049
O68   O     O_R   0.891010 0.157501 0.420312 -0.338503
N11   N     N_R   0.185888 0.057658 0.410160 0.130828
O69   O     O_R   0.181820 0.032655 0.360354 -0.314051
O70   O     O_R   0.157500 0.108992 0.420316 -0.338502
N12   N     N_R   0.057654 0.814112 0.410158 0.130829
O71   O     O_R   0.032648 0.818179 0.360353 -0.314049
O72   O     O_R   0.108989 0.842499 0.420311 -0.338500
N13   N     N_R   0.814111 0.057647 0.589845 0.130830
O73   O     O_R   0.818182 0.032636 0.639647 -0.314043
O74   O     O_R   0.842491 0.108989 0.579696 -0.338500
N14   N     N_R   0.942347 0.814112 0.589842 0.130830
O75   O     O_R   0.967352 0.818180 0.639647 -0.314047
O76   O     O_R   0.891011 0.842498 0.579689 -0.338501
N15   N     N_R   0.185887 0.942342 0.589840 0.130829
O77   O     O_R   0.181821 0.967345 0.639646 -0.314052
O78   O     O_R   0.157499 0.891008 0.579684 -0.338502
N16   N     N_R   0.057654 0.185888 0.589842 0.130829
O79   O     O_R   0.032648 0.181820 0.639646 -0.314050
O80   O     O_R   0.108990 0.157501 0.579688 -0.338499

loop_
_geom_bond_atom_site_label_1
_geom_bond_atom_site_label_2
_geom_bond_distance
_ccdc_geom_bond_type
C39   C83   1.416095 A    
C120  H77   1.110464 S    
O40   Cu10  1.978508 S    
C92   H6    1.109565 S    
O25   C13   1.300386 A    
N11   O69   1.301050 A    
C10   C18   1.440375 S    
Cu9   Cu10  2.638713 S    
N15   O78   1.301122 A    
C95   H20   1.106435 S    
C117  H74   1.108867 S    
C96   H17   1.110465 S    
N8    O63   1.301050 A    
C14   C22   1.440378 S    
C45   C113  1.527034 S    
O18   Cu2   1.936704 S    
O36   Cu9   1.978507 S    
C105  H45   1.106436 S    
C97   H24   1.108869 S    
C22   C30   1.208752 T    
C101  H34   1.108867 S    
O24   Cu4   1.936707 S    
C68   C75   1.466524 S    
Cu1   Cu3   2.693923 S    
Cu2   Cu4   2.693923 S    
O41   Cu11  1.978506 S    
O3    C3    1.294463 A    
O15   C7    1.294461 A    
O45   C79   1.282023 A    
C36   C84   1.416095 A    
C104  H36   1.109563 S    
C39   C101  1.527034 S    
O34   C74   1.282024 A    
C7    C87   1.452457 S    
C114  H62   1.110463 S    
C51   N3    1.435333 S    
C118  H72   1.110467 S    
C108  H47   1.110466 S    
O44   Cu11  1.978507 S    
C101  C102  1.526428 S    
C44   C60   1.403183 A    
C102  H33   1.110259 S    
C51   C67   1.411552 A    
O17   C9    1.300386 A    
C106  H41   1.109560 S    
C38   C84   1.416096 A    
O37   Cu10  1.978508 S    
C114  H63   1.110259 S    
C61   N13   1.435333 S    
O39   C73   1.282023 A    
C112  H56   1.109561 S    
N16   O79   1.301048 A    
C34   C91   1.527035 S    
C36   C95   1.527034 S    
C47   C63   1.403185 A    
C23   C31   1.208755 T    
O26   Cu6   1.936704 S    
C92   H8    1.110257 S    
O7    C3    1.294461 A    
C103  H40   1.106435 S    
C115  H69   1.108866 S    
N4    O56   1.301122 A    
C49   N1    1.435336 S    
O27   C13   1.300389 A    
N14   O75   1.301049 A    
C64   C70   1.411550 A    
O31   C15   1.300387 A    
O32   C16   1.300388 A    
O45   Cu12  1.978508 S    
C47   C117  1.527034 S    
C34   C50   1.403183 A    
C113  H65   1.106438 S    
C13   C21   1.440375 S    
N9    O66   1.301121 A    
C15   C23   1.440375 S    
O9    C5    1.294462 A    
C33   C81   1.416094 A    
C119  H79   1.108867 S    
C38   C54   1.403185 A    
C111  H60   1.106437 S    
O11   C7    1.294463 A    
C38   C99   1.527034 S    
N7    O62   1.301120 A    
C89   H5    1.106436 S    
C33   C49   1.403183 A    
O4    C4    1.294461 A    
C107  C108  1.526428 S    
O46   C78   1.282022 A    
C3    C83   1.452455 S    
O5    Cu3   1.976534 S    
C1    C81   1.452455 S    
C102  H32   1.110463 S    
C43   C87   1.416096 A    
Cu11  Cu12  2.638713 S    
C98   H21   1.109566 S    
O39   Cu10  1.978505 S    
O23   C11   1.300387 A    
N11   O70   1.301120 A    
C8    C88   1.452455 S    
C62   N14   1.435334 S    
N1    O49   1.301049 A    
C100  H27   1.110463 S    
C95   C96   1.526426 S    
C44   C88   1.416094 A    
C57   C69   1.411550 A    
C99   C100  1.526425 S    
C35   C93   1.527034 S    
C116  H66   1.109561 S    
O14   C8    1.294463 A    
O42   C78   1.282025 A    
O2    Cu2   1.976537 S    
C19   C27   1.208755 T    
C109  H54   1.108867 S    
C52   C68   1.411551 A    
N2    O51   1.301049 A    
C104  H38   1.110260 S    
O28   C14   1.300387 A    
O26   C14   1.300388 A    
O29   C15   1.300388 A    
C50   N2    1.435334 S    
C113  C114  1.526428 S    
O8    Cu4   1.976537 S    
O30   C16   1.300387 A    
C35   C51   1.403183 A    
N13   O74   1.301125 A    
C110  H51   1.109564 S    
C48   C64   1.403185 A    
O19   Cu3   1.936705 S    
C42   C107  1.527034 S    
C9    C17   1.440375 S    
C60   N12   1.435333 S    
C45   C85   1.416091 A    
C37   C97   1.527031 S    
O43   C79   1.282025 A    
N10   O68   1.301119 A    
O16   Cu8   1.976537 S    
C53   N5    1.435333 S    
C43   C109  1.527036 S    
C46   C115  1.527034 S    
O36   C76   1.282025 A    
C59   C71   1.411551 A    
C6    C86   1.452455 S    
O8    C2    1.294463 A    
O6    Cu2   1.976535 S    
C112  H57   1.110465 S    
C91   H9    1.108869 S    
C99   H30   1.106434 S    
C46   C62   1.403183 A    
O18   C10   1.300388 A    
O21   Cu3   1.936707 S    
O34   Cu9   1.978505 S    
O43   Cu11  1.978508 S    
N3    O53   1.301050 A    
C71   C78   1.466526 S    
C25   C32   1.417058 S    
O12   C8    1.294461 A    
N8    O64   1.301122 A    
C116  H68   1.110258 S    
C93   H14   1.108867 S    
C35   C83   1.416093 A    
O13   C5    1.294460 A    
C105  H44   1.108867 S    
C40   C82   1.416094 A    
C115  C116  1.526427 S    
N5    O58   1.301124 A    
O37   C75   1.282023 A    
O29   Cu7   1.936707 S    
N6    O59   1.301050 A    
C111  C112  1.526427 S    
C49   C65   1.411552 A    
C90   H1    1.109562 S    
C110  H53   1.110258 S    
C58   C70   1.411550 A    
C42   C58   1.403183 A    
C62   C72   1.411550 A    
C42   C86   1.416094 A    
C46   C88   1.416095 A    
C108  H46   1.109564 S    
O10   C6    1.294461 A    
C34   C82   1.416096 A    
O15   Cu5   1.976537 S    
C94   H11   1.109559 S    
C37   C81   1.416094 A    
O48   C80   1.282024 A    
C54   N6    1.435336 S    
N12   O71   1.301048 A    
C106  H42   1.110463 S    
C16   C24   1.440378 S    
O5    C1    1.294461 A    
C107  H49   1.108869 S    
C61   C69   1.411551 A    
C63   C71   1.411547 A    
O33   Cu9   1.978506 S    
C2    C82   1.452455 S    
C28   C29   1.417058 S    
O32   Cu8   1.936707 S    
C90   H3    1.110259 S    
N16   O80   1.301120 A    
N7    O61   1.301050 A    
O47   Cu12  1.978505 S    
O22   Cu2   1.936707 S    
C120  H78   1.110261 S    
C92   H7    1.110466 S    
C43   C59   1.403183 A    
O21   C11   1.300388 A    
C115  H70   1.106435 S    
O22   C12   1.300387 A    
O23   Cu1   1.936707 S    
C67   C74   1.466526 S    
N14   O76   1.301121 A    
C65   C76   1.466526 S    
C95   H19   1.108867 S    
C96   H18   1.110257 S    
O44   C80   1.282025 A    
C50   C66   1.411549 A    
C109  C110  1.526427 S    
O46   Cu12  1.978505 S    
O48   Cu12  1.978508 S    
C48   C119  1.527032 S    
C97   H25   1.106437 S    
C64   N16   1.435335 S    
C89   H4    1.108866 S    
C39   C55   1.403183 A    
N9    O65   1.301048 A    
O28   Cu8   1.936705 S    
C26   C31   1.417058 S    
O30   Cu6   1.936707 S    
C119  H80   1.106436 S    
C40   C103  1.527032 S    
O42   Cu11  1.978505 S    
C55   C67   1.411550 A    
C60   C72   1.411552 A    
O9    Cu5   1.976534 S    
C114  H61   1.109563 S    
O11   Cu7   1.976536 S    
C118  H71   1.109564 S    
C108  H48   1.110259 S    
O16   C6    1.294463 A    
C33   C89   1.527033 S    
O1    C1    1.294463 A    
C94   H13   1.110257 S    
O47   C77   1.282023 A    
C17   C25   1.208755 T    
C57   N9    1.435334 S    
C98   H22   1.110465 S    
O6    C4    1.294463 A    
O35   Cu9   1.978508 S    
C4    C84   1.452457 S    
C5    C85   1.452455 S    
C89   C90   1.526427 S    
N10   O67   1.301050 A    
N3    O54   1.301120 A    
C100  H26   1.109560 S    
O31   Cu5   1.936707 S    
C12   C20   1.440378 S    
C37   C53   1.403183 A    
O3    Cu3   1.976536 S    
C93   H15   1.106435 S    
O17   Cu1   1.936704 S    
C98   H23   1.110259 S    
C20   C28   1.208752 T    
N2    O52   1.301121 A    
C97   C98   1.526428 S    
C103  H39   1.108865 S    
C104  H37   1.110465 S    
N4    O55   1.301050 A    
O13   Cu7   1.976534 S    
C66   C73   1.466526 S    
C96   H16   1.109563 S    
O2    C2    1.294461 A    
N13   O73   1.301052 A    
C93   C94   1.526429 S    
C113  H64   1.108867 S    
C44   C111  1.527033 S    
C110  H52   1.110466 S    
O35   C75   1.282025 A    
C105  C106  1.526425 S    
C54   C68   1.411550 A    
C119  C120  1.526427 S    
O33   C73   1.282026 A    
O4    Cu4   1.976535 S    
O38   C74   1.282025 A    
C91   C92   1.526429 S    
C111  H59   1.108868 S    
O20   C10   1.300387 A    
C53   C65   1.411550 A    
C18   C26   1.208755 T    
N15   O77   1.301048 A    
C103  C104  1.526425 S    
C40   C56   1.403185 A    
C118  H73   1.110259 S    
C41   C85   1.416093 A    
C91   H10   1.106438 S    
C69   C80   1.466528 S    
C59   N11   1.435333 S    
C48   C86   1.416094 A    
C58   N10   1.435335 S    
Cu5   Cu7   2.693923 S    
O25   Cu5   1.936704 S    
Cu6   Cu8   2.693923 S    
C55   N7    1.435335 S    
O27   Cu7   1.936705 S    
O38   Cu10  1.978505 S    
O7    Cu1   1.976537 S    
N1    O50   1.301120 A    
C100  H28   1.110258 S    
C56   N8    1.435334 S    
C116  H67   1.110460 S    
O19   C9    1.300389 A    
N5    O57   1.301049 A    
O24   C12   1.300388 A    
C109  H55   1.106438 S    
O12   Cu8   1.976535 S    
C36   C52   1.403185 A    
C117  H75   1.106437 S    
O14   Cu6   1.976535 S    
N6    O60   1.301119 A    
C90   H2    1.110465 S    
C72   C79   1.466526 S    
C120  H76   1.109561 S    
C45   C61   1.403183 A    
C41   C105  1.527033 S    
C52   N4    1.435335 S    
C21   C29   1.208755 T    
C56   C66   1.411551 A    
O40   C76   1.282024 A    
C101  H35   1.106436 S    
C117  C118  1.526430 S    
C11   C19   1.440375 S    
O41   C77   1.282026 A    
C102  H31   1.109563 S    
C94   H12   1.110461 S    
N12   O72   1.301121 A    
O20   Cu4   1.936705 S    
C106  H43   1.110258 S    
C41   C57   1.403185 A    
C63   N15   1.435337 S    
C24   C32   1.208752 T    
O10   Cu6   1.976537 S    
C112  H58   1.110259 S    
C99   H29   1.108866 S    
C70   C77   1.466526 S    
C27   C30   1.417058 S    
C47   C87   1.416096 A    
O1    Cu1   1.976534 S    
C107  H50   1.106438 S    
