data_mof_unit_10237.cif
_audit_creation_date              2013-03-05T16:23:20-0500
_audit_creation_method            fapswitch 2.2
_symmetry_space_group_name_H-M    P1
_symmetry_Int_Tables_number       1
_space_group_crystal_system       triclinic
_cell_length_a                    27.696454
_cell_length_b                    10.471446
_cell_length_c                    9.775126
_cell_angle_alpha                 90.492932
_cell_angle_beta                  89.923799
_cell_angle_gamma                 90.04379
_cell_volume                      2834.89260632

loop_
_atom_site_label
_atom_site_type_symbol
_atom_site_description
_atom_site_fract_x
_atom_site_fract_y
_atom_site_fract_z
_atom_type_partial_charge
O1    O     O_R   0.500000 0.313960 0.616610 -0.625602
O2    O     O_R   0.500000 0.686040 0.383390 -0.625260
O3    O     O_R   0.500020 0.313950 0.383350 -0.625727
O4    O     O_R   0.499980 0.686050 0.616650 -0.626008
C1    C     C_R   0.500002 0.257592 0.499354 0.865200
C2    C     C_R   0.500001 0.742407 0.500645 0.864913
O5    O     O_R   0.428750 0.500030 0.616610 -0.599311
O6    O     O_R   0.571250 0.499970 0.383390 -0.603133
O7    O     O_R   0.428770 0.500020 0.383360 -0.629411
O8    O     O_R   0.571230 0.499980 0.616640 -0.625076
C3    C     C_R   0.406117 0.499861 0.499980 0.873820
C4    C     C_R   0.593878 0.500201 0.499868 0.873527
Zn1   Zn    Zn3+2 0.499990 0.500010 0.655740 0.950920
Zn2   Zn    Zn3+2 0.500010 0.499990 0.344260 0.949942
C5    C     C_R   0.177004 0.392259 0.512231 0.493926
C6    C     C_R   0.822903 0.608965 0.518316 0.493718
O9    O     O_2   0.201642 0.282981 0.533364 -0.553107
O10   O     O_2   0.798185 0.717025 0.547077 -0.554239
N1    N     N_R   0.201306 0.504257 0.496454 -0.364860
N2    N     N_R   0.798675 0.497790 0.494601 -0.364893
C7    C     C_R   0.178112 0.617494 0.476244 0.519625
C8    C     C_R   0.821947 0.385753 0.466347 0.519622
C9    C     C_R   0.278242 0.492594 0.372512 0.142208
C10   C     C_R   0.721729 0.514930 0.372296 0.138344
C11   C     C_R   0.328418 0.491654 0.374551 -0.189847
C12   C     C_R   0.671553 0.515171 0.374743 -0.183693
C13   C     C_R   0.327516 0.508490 0.622666 -0.211798
C14   C     C_R   0.672470 0.486359 0.621150 -0.219635
C15   C     C_R   0.277364 0.509818 0.621091 -0.120280
C16   C     C_R   0.722624 0.485600 0.619131 -0.116085
C17   C     C_R   0.252729 0.502296 0.496644 0.284338
C18   C     C_R   0.747252 0.499456 0.495301 0.284405
C19   C     C_R   0.101589 0.505364 0.481719 -0.098356
C20   C     C_R   0.898416 0.497622 0.480255 -0.098132
C21   C     C_R   0.126736 0.390441 0.505261 0.005439
C22   C     C_R   0.873183 0.611228 0.511705 0.005062
C23   C     C_R   0.101290 0.276487 0.522861 -0.160992
C24   C     C_R   0.898558 0.724232 0.537539 -0.161515
C25   C     C_R   0.127306 0.621064 0.466743 -0.053270
C26   C     C_R   0.872767 0.382760 0.456846 -0.052901
C27   C     C_R   0.353352 0.499884 0.499311 -0.090216
C28   C     C_R   0.646633 0.500649 0.498834 -0.089714
H1    H     H_    0.345970 0.514781 0.720119 0.179742
H2    H     H_    0.654009 0.474999 0.718040 0.162777
H3    H     H_    0.257529 0.516940 0.716402 0.146128
H4    H     H_    0.742468 0.473953 0.713583 0.144949
H5    H     H_    0.119747 0.188217 0.546576 0.184855
H6    H     H_    0.880021 0.811253 0.567272 0.186583
C29   C     C_R   0.974996 0.383914 0.456273 0.012568
C30   C     C_R   0.025064 0.620107 0.465053 0.012333
C31   C     C_R   0.974423 0.617279 0.485952 0.092711
C32   C     C_R   0.025571 0.385747 0.478031 0.093294
C33   C     C_R   0.949332 0.499476 0.473573 0.019484
C34   C     C_R   0.050689 0.503905 0.474383 0.019196
C35   C     C_R   0.949299 0.272050 0.416976 0.025068
C36   C     C_R   0.050871 0.733602 0.434223 0.026945
C37   C     C_R   0.898363 0.270657 0.420581 0.095016
C38   C     C_R   0.101800 0.734726 0.438402 0.095634
O11   O     O_2   0.795604 0.278615 0.447504 -0.525110
O12   O     O_2   0.204519 0.725251 0.465217 -0.524632
C39   C     C_R   0.051483 0.274379 0.510789 -0.189583
C40   C     C_R   0.948394 0.726941 0.526209 -0.190334
H7    H     H_    0.652207 0.527078 0.279440 0.185654
H8    H     H_    0.347750 0.484313 0.278349 0.166970
H9    H     H_    0.033647 0.185501 0.534107 0.158202
H10   H     H_    0.966137 0.814624 0.556048 0.160583
C41   C     C_3   0.539886 0.043239 0.563575 -0.169021
C42   C     C_3   0.460121 0.956760 0.436418 -0.169735
C43   C     C_3   0.539613 0.956886 0.434770 -0.175863
C44   C     C_3   0.460394 0.043112 0.565223 -0.176744
H11   H     H_    0.571781 0.916698 0.381956 0.139492
H12   H     H_    0.428225 0.083295 0.618037 0.140403
H13   H     H_    0.572291 0.083488 0.615004 0.141002
H14   H     H_    0.427715 0.916514 0.384989 0.141816
C45   C     C_3   0.500004 0.877538 0.501847 0.025745
C46   C     C_3   0.500002 0.122461 0.498147 0.025648
C47   C     C_3   0.500277 0.961156 0.630817 -0.145221
C48   C     C_3   0.499729 0.038843 0.369177 -0.145068
H15   H     H_    0.500504 0.925429 0.737434 0.135879
H16   H     H_    0.499502 0.074571 0.262560 0.135865
C49   C     C_3   0.505094 0.384620 0.047883 -0.152271
C50   C     C_3   0.494901 0.615379 0.952115 -0.151991
C51   C     C_3   0.540246 0.453768 0.950415 -0.105391
C52   C     C_3   0.459752 0.546236 0.049589 -0.108574
H17   H     H_    0.574186 0.417098 0.904085 0.127142
H18   H     H_    0.425809 0.582880 0.095928 0.129423
H19   H     H_    0.508552 0.287950 0.092547 0.126364
H20   H     H_    0.491441 0.712048 0.907451 0.126208
N3    N     N_3   0.499960 0.500030 0.863290 -0.082651
N4    N     N_3   0.500040 0.499970 0.136710 -0.082201
C53   C     C_3   0.465707 0.432631 0.952691 0.206389
C54   C     C_3   0.534288 0.567379 0.047305 0.209319
N5    N     N_3   0.426611 0.356957 0.894395 -0.436532
H21   H     H_    0.406830 0.319593 0.975902 0.160635
H22   H     H_    0.442233 0.279335 0.843161 0.191843
N6    N     N_3   0.573362 0.643137 0.105585 -0.441423
H23   H     H_    0.593131 0.680553 0.024086 0.161905
H24   H     H_    0.557722 0.720714 0.156853 0.191255
N7    N     N_3   0.746204 0.531039 0.244450 -0.462851
H25   H     H_    0.767766 0.450752 0.226485 0.205213
H26   H     H_    0.768799 0.610734 0.252785 0.201643
N8    N     N_3   0.253759 0.483060 0.243872 -0.465059
H27   H     H_    0.232348 0.564352 0.232047 0.205394
H28   H     H_    0.231018 0.403383 0.246395 0.200842
N9    N     N_3   0.872751 0.155545 0.385715 -0.370582
H29   H     H_    0.883255 0.083129 0.452305 0.187684
H30   H     H_    0.881279 0.128565 0.285412 0.183690
N10   N     N_3   0.127503 0.851235 0.412134 -0.369509
H31   H     H_    0.116852 0.920444 0.483693 0.185680
H32   H     H_    0.119207 0.882868 0.313853 0.184429
N11   N     N_3   0.974635 0.164542 0.359532 -0.475687
H33   H     H_    0.965791 0.082687 0.414632 0.173995
H34   H     H_    0.963900 0.151768 0.257879 0.194115
N12   N     N_3   0.025686 0.843746 0.384559 -0.477392
H35   H     H_    0.034355 0.922745 0.445834 0.168865
H36   H     H_    0.036675 0.861512 0.284188 0.194896

loop_
_geom_bond_atom_site_label_1
_geom_bond_atom_site_label_2
_geom_bond_distance
_ccdc_geom_bond_type
C37   N9    1.436866 S    
N5    H21   1.044943 S    
C13   C15   1.389217 A    
C10   N7    1.432111 S    
N11   H33   1.045012 S    
C41   C47   1.542933 S    
O7    Zn2   2.009271 S    
N1    C17   1.424391 S    
N12   H35   1.045124 S    
C2    C45   1.414958 S    
C42   C45   1.526385 S    
C5    N1    1.361577 A    
C51   C54   1.523178 S    
N9    H30   1.044821 S    
C30   C34   1.412805 A    
C50   N3    1.488081 S    
C20   C26   1.413526 A    
N1    C7    1.365018 A    
C10   C12   1.389875 A    
C32   C39   1.409210 A    
C48   H16   1.110363 S    
C9    N8    1.432149 S    
C42   H14   1.110346 S    
C54   N6    1.455191 S    
C50   C54   1.523190 S    
N10   H31   1.045273 S    
O4    Zn1   1.988451 S    
C43   H11   1.110415 S    
Zn2   N4    2.028825 S    
C4    C28   1.461160 S    
N10   H32   1.044823 S    
N6    H24   1.044816 S    
C43   C45   1.526379 S    
C41   H13   1.110347 S    
C52   C53   1.523166 S    
C23   H5    1.083580 S    
C24   H6    1.083582 S    
C50   H20   1.110114 S    
O6    C4    1.300380 A    
C35   N11   1.436789 S    
N5    H22   1.044824 S    
C44   C47   1.542928 S    
C43   C48   1.542937 S    
O2    C2    1.284714 A    
C31   C40   1.409232 A    
C52   N4    1.488447 S    
C5    C21   1.394109 A    
C49   C51   1.545387 S    
C32   C34   1.419676 A    
C47   H15   1.110362 S    
C42   C48   1.542928 S    
C51   N3    1.488424 S    
C38   N10   1.436911 S    
C40   H10   1.079193 S    
C7    O12   1.349222 S    
O4    C2    1.282829 A    
C11   C27   1.404268 A    
C8    O11   1.349233 S    
C29   C35   1.420546 A    
C25   C38   1.414154 A    
C14   H2    1.083124 S    
C30   C36   1.420706 A    
C15   H3    1.082995 S    
C31   C33   1.419725 A    
C11   H8    1.083697 S    
C9    C17   1.406310 A    
O5    C3    1.301761 A    
C12   H7    1.083480 S    
C10   C18   1.406231 A    
C39   H9    1.079266 S    
C53   N5    1.455240 S    
O7    C3    1.300506 A    
C13   C27   1.403580 A    
N4    C54   1.472807 S    
N7    H25   1.045105 S    
C7    C25   1.410881 A    
C6    N2    1.361576 A    
C29   C32   1.417170 A    
C8    C26   1.410826 A    
N6    H23   1.044921 S    
C30   C31   1.417425 A    
N11   H34   1.045052 S    
C19   C25   1.413522 A    
N8    H28   1.045425 S    
C45   C47   1.528762 S    
C49   H19   1.110113 S    
O3    Zn2   1.988453 S    
O8    C4    1.301743 A    
C49   N4    1.488082 S    
C6    O10   1.350308 S    
C51   H17   1.110223 S    
N2    C8    1.364992 A    
C50   C52   1.545343 S    
C35   C37   1.411190 A    
C44   C46   1.526374 S    
O1    C1    1.284726 A    
N3    C53   1.472824 S    
C23   C39   1.384807 A    
C12   C28   1.404160 A    
N2    C18   1.424367 S    
C21   C23   1.397181 A    
C19   C34   1.411735 A    
C5    O9    1.350323 S    
O6    Zn2   2.010331 S    
C26   C37   1.414097 A    
Zn1   N3    2.028824 S    
C16   H4    1.082954 S    
C46   C48   1.528769 S    
O3    C1    1.282820 A    
O8    Zn1   2.009274 S    
N12   H36   1.045053 S    
N9    H29   1.045314 S    
C1    C46   1.414965 S    
C22   C24   1.397136 A    
C14   C16   1.389233 A    
C15   C17   1.397165 A    
C6    C22   1.394175 A    
C16   C18   1.397205 A    
C29   C33   1.412671 A    
C14   C28   1.403411 A    
C19   C21   1.411638 A    
C36   C38   1.411247 A    
C3    C27   1.461435 S    
C20   C22   1.411558 A    
C9    C11   1.389891 A    
N8    H27   1.045126 S    
O2    Zn2   1.982174 S    
C49   C53   1.523232 S    
C13   H1    1.083152 S    
O5    Zn1   2.010326 S    
O1    Zn1   1.982176 S    
C20   C33   1.411761 A    
C42   C44   1.543833 S    
C36   N12   1.436764 S    
C52   H18   1.110247 S    
C44   H12   1.110406 S    
C41   C46   1.526388 S    
C41   C43   1.543843 S    
N7    H26   1.045419 S    
C24   C40   1.384870 A    
