data_mof_unit_31916.cif
_audit_creation_date              2012-12-10T17:56:44-0500
_audit_creation_method            fapswitch 2.2
_symmetry_space_group_name_H-M    P1
_symmetry_Int_Tables_number       1
_space_group_crystal_system       triclinic
_cell_length_a                    10.891219
_cell_length_b                    9.589769
_cell_length_c                    10.872475
_cell_angle_alpha                 87.939274
_cell_angle_beta                  94.042201
_cell_angle_gamma                 91.507069
_cell_volume                      1131.68861553

loop_
_atom_site_label
_atom_site_type_symbol
_atom_type_description
_atom_site_fract_x
_atom_site_fract_y
_atom_site_fract_z
_atom_type_partial_charge
C1    C     C_R   0.262108 0.497364 0.502646 0.774635
C2    C     C_R   0.738008 0.500473 0.506765 0.787758
C3    C     C_R   0.937645 0.614991 0.476891 -0.235089
C4    C     C_R   0.064003 0.612750 0.475086 -0.203945
C5    C     C_R   0.438778 0.075174 0.406193 0.202451
C6    C     C_R   0.556419 0.071744 0.596221 0.168011
C7    C     C_R   0.433921 0.925844 0.409770 0.166705
C8    C     C_R   0.562885 0.923598 0.592077 0.192119
C9    C     C_R   0.506714 0.504496 0.262890 0.814043
C10   C     C_R   0.506819 0.498153 0.737846 0.865179
C11   C     C_R   0.690967 0.685100 0.125772 0.073333
C12   C     C_R   0.729460 0.597730 0.890238 0.112232
C13   C     C_R   0.802473 0.717616 0.073532 0.155611
C14   C     C_R   0.823124 0.670596 0.958029 0.122262
C15   C     C_R   0.615962 0.560156 0.941945 -0.003111
C16   C     C_R   0.603363 0.588569 0.067692 -0.058358
C17   C     C_R   0.505113 0.518346 0.128214 -0.161768
C18   C     C_R   0.515061 0.494918 0.872909 -0.150639
C19   C     C_R   0.406460 0.453641 0.058536 0.170934
C20   C     C_R   0.411009 0.444222 0.931675 0.113282
C21   C     C_R   0.063574 0.371967 0.558979 0.153140
C22   C     C_R   0.937515 0.383732 0.579027 0.144062
C23   C     C_R   0.872829 0.499866 0.523245 -0.096828
C24   C     C_R   0.128101 0.491723 0.511457 -0.096004
Cu1   Cu    Cu3+1 0.500000 0.640660 0.500000 0.971906
Cu2   Cu    Cu3+1 0.500000 0.359340 0.500000 0.973335
H1    H     H_    0.890152 0.706769 0.439925 0.151776
H2    H     H_    0.111060 0.704573 0.438792 0.163558
N1    N     N_R   0.500000 0.852070 0.500000 -0.165702
N2    N     N_R   0.500000 0.147940 0.500000 -0.160077
O1    O     O_R   0.319640 0.618740 0.499990 -0.559428
O2    O     O_R   0.680360 0.618740 0.500010 -0.587752
O3    O     O_R   0.319620 0.381170 0.499990 -0.568305
O4    O     O_R   0.680380 0.381170 0.500010 -0.573797
O5    O     O_R   0.500000 0.618810 0.319650 -0.569023
O6    O     O_R   0.500000 0.618810 0.680350 -0.544604
O7    O     O_R   0.499970 0.381240 0.319640 -0.546719
O8    O     O_R   0.500030 0.381240 0.680360 -0.567596
N3    N     N_3   0.294688 0.406357 0.112201 -0.557848
H3    H     H_    0.289529 0.437318 0.202679 0.218450
H4    H     H_    0.290426 0.297530 0.111505 0.233163
N4    N     N_3   0.306185 0.384175 0.863094 -0.581168
H5    H     H_    0.333696 0.295328 0.820507 0.217267
H6    H     H_    0.272908 0.456699 0.795551 0.205602
N5    N     N_3   0.658452 0.781324 0.214619 -0.613285
H7    H     H_    0.684329 0.745112 0.303721 0.266761
H8    H     H_    0.567206 0.810928 0.198581 0.253591
N6    N     N_3   0.754887 0.555201 0.771027 -0.590643
H9    H     H_    0.775552 0.644960 0.718960 0.259010
H10   H     H_    0.836568 0.501249 0.782190 0.247095
N7    N     N_3   0.894076 0.805855 0.135098 -0.609105
H11   H     H_    0.856612 0.903471 0.146301 0.240256
H12   H     H_    0.917719 0.761028 0.222255 0.220409
N8    N     N_3   0.937681 0.703126 0.904419 -0.603688
H13   H     H_    0.009142 0.662631 0.963248 0.250455
H14   H     H_    0.949465 0.811661 0.898069 0.233359
C25   C     C_3   0.122196 0.228683 0.576200 -0.368365
C26   C     C_3   0.119403 0.158158 0.452730 -0.816650
H15   H     H_    0.023146 0.127657 0.422506 0.235077
H16   H     H_    0.155115 0.230296 0.380969 0.269295
H17   H     H_    0.174935 0.062534 0.462653 0.229942
H18   H     H_    0.215234 0.233574 0.623724 0.214486
H19   H     H_    0.074050 0.154977 0.636960 0.212946
C27   C     C_3   0.874625 0.274803 0.661506 -0.416578
C28   C     C_3   0.938988 0.255936 0.792082 -0.895825
H20   H     H_    0.018356 0.329937 0.807418 0.278080
H21   H     H_    0.873484 0.273096 0.863698 0.253577
H22   H     H_    0.971259 0.147514 0.808077 0.241775
H23   H     H_    0.781166 0.306071 0.677772 0.258509
H24   H     H_    0.865685 0.173479 0.614793 0.202979
N9    N     N_3   0.381427 0.149445 0.302335 -0.541491
H25   H     H_    0.291893 0.110905 0.284103 0.178835
H26   H     H_    0.430321 0.129281 0.225770 0.198249
N10   N     N_3   0.601375 0.140234 0.705577 -0.546504
H27   H     H_    0.688671 0.104446 0.734221 0.191761
H28   H     H_    0.543356 0.111011 0.775165 0.200015
N11   N     N_3   0.356520 0.850993 0.321400 -0.527271
H29   H     H_    0.264998 0.873888 0.333613 0.189056
H30   H     H_    0.376106 0.884831 0.232398 0.184572
N12   N     N_3   0.635814 0.848145 0.684861 -0.532754
H31   H     H_    0.727210 0.883724 0.682563 0.183441
H32   H     H_    0.604595 0.867161 0.771308 0.205573

loop_
_geom_bond_atom_site_label_1
_geom_bond_atom_site_label_2
_ccdc_geom_bond_type
Cu1   O1    S    
C15   C18   A    
C7    N1    A    
C3    C23   A    
C19   C20   A    
C12   N6    S    
C1    O3    A    
C25   H18   S    
N3    H4    S    
N11   H29   S    
N10   H28   S    
C8    N1    A    
C4    C24   A    
C26   H16   S    
C15   C16   A    
C1    O1    A    
C2    O2    A    
N5    H8    S    
C13   N7    S    
Cu2   O4    S    
C16   C17   A    
C28   H21   S    
C6    N10   S    
C27   H24   S    
C7    N11   S    
C2    O4    A    
C26   H17   S    
N6    H10   S    
C21   C22   A    
N4    H6    S    
C4    H2    S    
C25   H19   S    
N11   H30   S    
Cu1   N1    S    
N8    H14   S    
N10   H27   S    
N7    H11   S    
N12   H32   S    
N3    H3    S    
N9    H26   S    
Cu2   O8    S    
C6    C8    A    
C26   H15   S    
N5    H7    S    
N7    H12   S    
C21   C25   S    
C11   C16   A    
Cu2   O3    S    
C12   C15   A    
C28   H22   S    
C8    N12   S    
C9    O7    A    
C27   H23   S    
C19   N3    S    
Cu1   O5    S    
C9    C17   S    
N6    H9    S    
C14   N8    S    
C12   C14   A    
Cu2   N2    S    
C11   N5    S    
N4    H5    S    
C3    C4    A    
C5    C7    A    
C5    N2    A    
N8    H13   S    
C6    N2    A    
N12   H31   S    
C20   N4    S    
Cu2   O7    S    
C10   O8    A    
C27   C28   S    
C3    H1    S    
Cu1   Cu2   S    
N9    H25   S    
C5    N9    S    
C11   C13   A    
C25   C26   S    
C10   C18   S    
C17   C19   A    
C18   C20   A    
Cu1   O6    S    
C22   C27   S    
C1    C24   S    
C28   H20   S    
C21   C24   A    
C2    C23   S    
C9    O5    A    
C22   C23   A    
C10   O6    A    
C13   C14   A    
Cu1   O2    S    
