data_mof_unit_32323.cif
_audit_creation_date              2012-12-11T14:55:58-0500
_audit_creation_method            fapswitch 2.2
_symmetry_space_group_name_H-M    P1
_symmetry_Int_Tables_number       1
_space_group_crystal_system       triclinic
_cell_length_a                    28.09913
_cell_length_b                    17.29048
_cell_length_c                    18.176717
_cell_angle_alpha                 90.043124
_cell_angle_beta                  138.215071
_cell_angle_gamma                 90.210313
_cell_volume                      5884.37034632

loop_
_atom_site_label
_atom_site_type_symbol
_atom_type_description
_atom_site_fract_x
_atom_site_fract_y
_atom_site_fract_z
_atom_type_partial_charge
C1    C     C_R   0.670203 0.919699 0.817071 -0.120076
C2    C     C_3   0.243475 0.652617 0.047667 -0.240873
C3    C     C_3   0.670339 0.732113 0.935029 -0.246639
C4    C     C_3   0.162817 0.745846 0.955968 -0.241917
C5    C     C_3   0.837194 0.254168 0.044027 -0.241912
C6    C     C_3   0.793270 0.810828 0.099499 -0.242850
C7    C     C_3   0.206685 0.189248 0.900601 -0.242757
C8    C     C_3   0.222996 0.718687 0.077350 0.371954
C9    C     C_3   0.777017 0.281331 0.922647 0.371945
C10   C     C_3   0.763432 0.785943 0.990105 0.382877
C11   C     C_3   0.236639 0.214174 0.010058 0.382811
C12   C     C_3   0.762479 0.264521 0.049919 0.383908
C13   C     C_3   0.254970 0.295118 0.002790 -0.221042
C14   C     C_3   0.237526 0.735477 0.950065 0.383912
C15   C     C_3   0.299693 0.243438 0.954988 0.370011
C16   C     C_3   0.700237 0.756470 0.044909 0.370217
C17   C     C_3   0.275332 0.772394 0.098095 0.097353
C18   C     C_3   0.724681 0.227615 0.901891 0.097350
C19   C     C_3   0.689428 0.813231 0.928412 0.091205
C20   C     C_3   0.310576 0.186771 0.071605 0.091283
C21   C     C_3   0.815448 0.318919 0.072281 0.091069
C22   C     C_3   0.184557 0.681086 0.927714 0.091073
C23   C     C_3   0.225737 0.270327 0.893716 0.095227
C24   C     C_3   0.745136 0.704945 0.997314 -0.221091
C25   C     C_3   0.774256 0.729693 0.106324 0.095211
C26   C     C_3   0.217054 0.711757 0.153628 -1.015801
C27   C     C_3   0.782965 0.288271 0.846376 -1.015794
C28   C     C_3   0.800452 0.800309 0.959437 -1.049172
C29   C     C_3   0.199715 0.199929 0.040895 -1.049079
C30   C     C_3   0.752608 0.253082 0.121047 -1.023710
C31   C     C_3   0.247392 0.746906 0.878930 -1.023713
C32   C     C_3   0.337697 0.259742 0.926776 -1.017669
C33   C     C_3   0.662177 0.740109 0.073013 -1.017923
C34   C     C_3   0.626062 0.669189 0.451514 -1.064925
C35   C     C_3   0.216404 0.800561 0.978311 -0.239465
C36   C     C_3   0.374111 0.330716 0.548810 -1.064853
C37   C     C_3   0.405890 0.689442 0.623684 -1.070991
C38   C     C_3   0.594111 0.310588 0.376348 -1.071067
C39   C     C_3   0.164820 0.138804 0.629375 -1.074054
C40   C     C_3   0.835125 0.861189 0.370559 -1.074082
C41   C     C_3   0.008099 0.291625 0.811857 -1.078613
C42   C     C_3   0.991906 0.708355 0.188139 -1.078713
C43   C     C_3   0.783607 0.199445 0.021674 -0.239464
C44   C     C_3   0.717905 0.838639 0.036486 -0.224995
C45   C     C_3   0.281985 0.161322 0.963465 -0.225068
C46   C     C_R   0.654187 0.807758 0.437748 0.077023
C47   C     C_R   0.345973 0.192142 0.562572 0.076957
C48   C     C_R   0.300483 0.764455 0.443817 0.073095
C49   C     C_R   0.329796 0.080302 0.182928 -0.120084
C50   C     C_R   0.699517 0.235546 0.556182 0.073085
C51   C     C_R   0.225802 0.261474 0.651336 0.073409
C52   C     C_R   0.774185 0.738508 0.348656 0.073336
C53   C     C_R   0.894995 0.369398 0.655160 0.080124
C54   C     C_R   0.105014 0.630596 0.344850 0.080124
C55   C     C_R   0.351168 0.300034 0.652819 -0.253120
C56   C     C_R   0.648973 0.699884 0.347463 -0.253163
C57   C     C_R   0.717029 0.362729 0.522795 -0.248148
C58   C     C_R   0.282981 0.637277 0.477228 -0.248165
C59   C     C_R   0.748864 0.861644 0.376474 -0.252171
C60   C     C_R   0.313465 0.899415 0.194596 -0.147389
C61   C     C_R   0.251179 0.138310 0.623655 -0.252223
C62   C     C_R   0.108176 0.734117 0.258710 -0.253085
C63   C     C_R   0.891827 0.265867 0.741283 -0.253086
C64   C     C_R   0.359234 0.271903 0.591278 0.313623
C65   C     C_R   0.640933 0.728002 0.409045 0.313643
C66   C     C_R   0.670976 0.302921 0.489368 0.319585
C67   C     C_R   0.329029 0.697090 0.510648 0.319546
C68   C     C_R   0.785968 0.819323 0.365847 0.309478
C69   C     C_R   0.214023 0.180654 0.634167 0.309470
C70   C     C_R   0.069417 0.690421 0.265600 0.322448
C71   C     C_R   0.686540 0.100589 0.805394 -0.147394
C72   C     C_R   0.930589 0.309565 0.734399 0.322403
C73   C     C_R   0.315922 0.145214 0.582812 -0.314721
C74   C     C_R   0.684219 0.854695 0.417484 -0.314742
C75   C     C_R   0.773847 0.226709 0.647408 -0.313963
C76   C     C_R   0.226153 0.773282 0.352582 -0.313948
C77   C     C_R   0.711288 0.708555 0.306074 -0.316968
C78   C     C_R   0.288720 0.291421 0.693980 -0.316885
C79   C     C_R   0.167059 0.600474 0.385178 -0.305978
C80   C     C_R   0.832953 0.399523 0.614842 -0.305972
C81   C     C_R   0.296196 0.177951 0.626609 0.136636
C82   C     C_R   0.187793 0.397902 0.800681 -0.152911
C83   C     C_R   0.703899 0.821981 0.373610 0.136636
C84   C     C_R   0.819165 0.281392 0.668026 0.145276
C85   C     C_R   0.180839 0.718598 0.331972 0.145262
C86   C     C_R   0.683697 0.744990 0.335049 0.147438
C87   C     C_R   0.316387 0.254950 0.665148 0.147450
C88   C     C_R   0.209653 0.649566 0.393120 0.135525
C89   C     C_R   0.790357 0.350431 0.606893 0.135516
C90   C     C_R   0.342828 0.087815 0.458860 -0.136696
C91   C     C_R   0.657240 0.912131 0.541296 -0.136728
C92   C     C_R   0.669388 0.100272 0.573802 -0.137132
C93   C     C_R   0.812205 0.602104 0.199332 -0.152822
C94   C     C_R   0.330608 0.899724 0.426186 -0.137169
C95   C     C_R   0.823862 0.603211 0.395756 -0.151651
C96   C     C_R   0.176136 0.396782 0.604244 -0.151681
C97   C     C_R   0.135423 0.565880 0.502242 -0.125551
C98   C     C_R   0.864580 0.434119 0.497764 -0.125553
C99   C     C_R   0.412826 0.806593 0.511178 -0.147173
C100  C     C_R   0.587173 0.193406 0.488820 -0.147151
C101  C     C_R   0.570700 0.820438 0.447264 -0.140082
C102  C     C_R   0.429387 0.179486 0.552914 -0.140026
C103  C     C_R   0.945516 0.339528 0.584440 -0.136246
C104  C     C_R   0.834488 0.423983 0.183970 -0.126962
C105  C     C_R   0.054484 0.660469 0.415558 -0.136254
C106  C     C_R   0.094828 0.302821 0.514183 -0.146608
C107  C     C_R   0.905165 0.697177 0.485806 -0.146630
C108  C     C_R   0.602941 0.192024 0.716889 -0.145027
C109  C     C_R   0.397070 0.807984 0.283100 -0.144943
C110  C     C_R   0.413842 0.173550 0.274142 -0.135231
C111  C     C_R   0.586164 0.826444 0.725859 -0.135226
C112  C     C_R   0.081653 0.668038 0.725478 -0.129339
C113  C     C_R   0.918347 0.331963 0.274521 -0.129339
C114  C     C_R   0.895638 0.693996 0.288707 -0.154966
C115  C     C_R   0.165511 0.576017 0.816029 -0.126942
C116  C     C_R   0.104359 0.306011 0.711310 -0.154929
C117  C     C_R   0.646161 0.856251 0.828166 0.071233
C118  C     C_R   0.353847 0.143740 0.171838 0.071251
C119  C     C_R   0.327295 0.825420 0.187985 0.082036
C120  C     C_R   0.672717 0.174591 0.811997 0.082064
C121  C     C_R   0.175228 0.321867 0.802429 0.082266
C122  C     C_R   0.824765 0.678147 0.197604 0.082279
C123  C     C_R   0.861246 0.364482 0.172279 0.069222
C124  C     C_R   0.138754 0.635520 0.827721 0.069214
C125  C     C_R   0.369706 0.155525 0.522467 0.082786
C126  C     C_3   0.756533 0.347393 0.952330 -0.240868
C127  C     C_R   0.630414 0.844380 0.477789 0.082805
C128  C     C_R   0.652567 0.176342 0.534078 0.086547
C129  C     C_R   0.347431 0.823657 0.465914 0.086553
C130  C     C_R   0.832792 0.682659 0.409117 0.103226
C131  C     C_R   0.167200 0.317332 0.590875 0.103174
C132  C     C_R   0.096428 0.618325 0.415184 0.073131
C133  C     C_R   0.903576 0.381673 0.584820 0.073129
C134  C     C_3   0.703179 0.292358 0.930247 -0.240015
C135  C     C_3   0.296829 0.707644 0.069739 -0.240025
C136  C     C_3   0.329704 0.267834 0.064934 -0.246606
H1    H     H_    0.718496 0.952603 0.882173 0.099901
H2    H     H_    0.239425 0.077370 0.602276 0.143223
H3    H     H_    0.563825 0.345725 0.381767 0.247368
H4    H     H_    0.193462 0.089457 0.687680 0.260893
H5    H     H_    0.147437 0.176952 0.654987 0.254276
H6    H     H_    0.117593 0.116284 0.544634 0.252156
H7    H     H_    0.806450 0.910522 0.312229 0.260915
H8    H     H_    0.882360 0.883732 0.455280 0.252156
H9    H     H_    0.852500 0.823044 0.344932 0.254273
H10   H     H_    0.035873 0.290815 0.897840 0.262652
H11   H     H_    0.013591 0.233981 0.791896 0.252762
H12   H     H_    0.034897 0.336412 0.808591 0.261734
H13   H     H_    0.083799 0.783952 0.204834 0.140967
H14   H     H_    0.964132 0.709152 0.102156 0.262675
H15   H     H_    0.965112 0.663573 0.191415 0.261746
H16   H     H_    0.986411 0.766004 0.208086 0.252763
H17   H     H_    0.916202 0.216028 0.795151 0.140961
H18   H     H_    0.362547 0.360617 0.676911 0.137861
H19   H     H_    0.637592 0.639304 0.323362 0.137871
H20   H     H_    0.695349 0.414614 0.472941 0.137534
H21   H     H_    0.304666 0.585399 0.527097 0.137540
H22   H     H_    0.295365 0.055982 0.419605 0.095694
H23   H     H_    0.704716 0.943958 0.580598 0.095676
H24   H     H_    0.721133 0.073359 0.629556 0.086536
H25   H     H_    0.281492 0.047411 0.117823 0.099853
H26   H     H_    0.278861 0.926634 0.370422 0.086542
H27   H     H_    0.774102 0.572501 0.330403 0.088371
H28   H     H_    0.225897 0.427489 0.669599 0.088359
H29   H     H_    0.173294 0.524227 0.526150 0.101523
H30   H     H_    0.826710 0.475772 0.473859 0.101521
H31   H     H_    0.435191 0.749966 0.528056 0.114991
H32   H     H_    0.564811 0.250033 0.471954 0.114986
H33   H     H_    0.535627 0.772247 0.395568 0.121222
H34   H     H_    0.464495 0.227639 0.604675 0.121229
H35   H     H_    0.980748 0.292679 0.638171 0.124057
H36   H     H_    0.261561 0.925771 0.140654 0.092350
H37   H     H_    0.019249 0.707315 0.361821 0.124071
H38   H     H_    0.069367 0.247182 0.491611 0.114414
H39   H     H_    0.930618 0.752820 0.508365 0.114415
H40   H     H_    0.578899 0.248708 0.690190 0.092318
H41   H     H_    0.421117 0.751303 0.309792 0.092309
H42   H     H_    0.443240 0.225442 0.294070 0.100785
H43   H     H_    0.556764 0.774553 0.705930 0.100780
H44   H     H_    0.052306 0.719358 0.706692 0.101470
H45   H     H_    0.947694 0.280643 0.293307 0.101468
H46   H     H_    0.921268 0.750197 0.317221 0.091367
H47   H     H_    0.738442 0.074229 0.859332 0.092347
H48   H     H_    0.078732 0.249808 0.682802 0.091342
H49   H     H_    0.647829 0.306656 0.883383 0.131414
H50   H     H_    0.352177 0.693343 0.116601 0.131420
H51   H     H_    0.380497 0.300009 0.132169 0.133518
H52   H     H_    0.619592 0.699879 0.867750 0.133520
H53   H     H_    0.107259 0.759687 0.908406 0.133202
H54   H     H_    0.892753 0.240331 0.091592 0.133204
H55   H     H_    0.843986 0.842942 0.167273 0.130092
H56   H     H_    0.155925 0.157181 0.832885 0.130061
H57   H     H_    0.747196 0.408620 0.926190 0.132632
H58   H     H_    0.239324 0.425939 0.854738 0.094438
H59   H     H_    0.252810 0.591391 0.073812 0.132630
H60   H     H_    0.242936 0.350313 0.017546 0.135315
H61   H     H_    0.757259 0.649797 0.982625 0.135360
H62   H     H_    0.206694 0.861646 0.951391 0.130604
H63   H     H_    0.793319 0.138359 0.048590 0.130606
H64   H     H_    0.705230 0.893982 0.049825 0.136736
H65   H     H_    0.294571 0.105933 0.950055 0.136692
H66   H     H_    0.695770 0.915230 0.441201 0.139742
H67   H     H_    0.304367 0.084678 0.559091 0.139744
H68   H     H_    0.203500 0.824638 0.302002 0.131981
H69   H     H_    0.760675 0.574064 0.145274 0.094438
H70   H     H_    0.796497 0.175347 0.697975 0.131979
H71   H     H_    0.304980 0.350538 0.722705 0.132405
H72   H     H_    0.695014 0.649446 0.277316 0.132457
H73   H     H_    0.809334 0.451877 0.566608 0.131375
H74   H     H_    0.190683 0.548125 0.433421 0.131377
H75   H     H_    0.269036 0.693294 0.236810 0.253523
H76   H     H_    0.202473 0.768671 0.160524 0.249314
H77   H     H_    0.175316 0.668482 0.119814 0.257379
H78   H     H_    0.730983 0.306735 0.763193 0.253523
H79   H     H_    0.824701 0.331551 0.880197 0.257378
H80   H     H_    0.786317 0.456348 0.118484 0.098687
H81   H     H_    0.797550 0.231361 0.839480 0.249319
H82   H     H_    0.764341 0.783599 0.871977 0.260132
H83   H     H_    0.815396 0.862227 0.971494 0.246274
H84   H     H_    0.849484 0.765015 0.012962 0.267185
H85   H     H_    0.235893 0.216680 0.128361 0.260108
H86   H     H_    0.150706 0.235257 0.987426 0.267146
H87   H     H_    0.184754 0.138026 0.028916 0.246301
H88   H     H_    0.803373 0.233290 0.204551 0.253871
H89   H     H_    0.736261 0.308292 0.128184 0.252664
H90   H     H_    0.710516 0.208819 0.082375 0.252782
H91   H     H_    0.213685 0.543655 0.881517 0.098684
H92   H     H_    0.196626 0.766695 0.795425 0.253871
H93   H     H_    0.289484 0.791166 0.917593 0.252781
H94   H     H_    0.263736 0.691692 0.871795 0.252663
H95   H     H_    0.319019 0.217914 0.863320 0.269043
H96   H     H_    0.327026 0.319879 0.896501 0.245576
H97   H     H_    0.396074 0.252092 0.001436 0.253227
H98   H     H_    0.680911 0.781797 0.136635 0.269022
H99   H     H_    0.603834 0.747937 0.998395 0.253275
H100  H     H_    0.672697 0.679917 0.103030 0.245560
H101  H     H_    0.659034 0.616826 0.480373 0.257391
H102  H     H_    0.760625 0.922579 0.397872 0.143212
H103  H     H_    0.640870 0.690894 0.523977 0.258826
H104  H     H_    0.568952 0.651592 0.384383 0.248376
H105  H     H_    0.341211 0.383125 0.520064 0.257365
H106  H     H_    0.431246 0.348234 0.615918 0.248346
H107  H     H_    0.359216 0.309034 0.476262 0.258840
H108  H     H_    0.408604 0.659883 0.681011 0.257073
H109  H     H_    0.436185 0.654272 0.618306 0.247366
H110  H     H_    0.431962 0.746542 0.662110 0.260459
H111  H     H_    0.591382 0.340193 0.319030 0.257072
H112  H     H_    0.568041 0.253492 0.337890 0.260461
N1    N     N_R   0.625380 0.928280 0.709340 -0.041774
N2    N     N_R   0.613900 0.929750 0.547530 -0.039089
N3    N     N_R   0.613900 0.070250 0.547530 -0.036508
N4    N     N_R   0.386100 0.929750 0.452470 -0.036504
N5    N     N_R   0.886100 0.570250 0.452470 -0.038251
N6    N     N_R   0.113900 0.429750 0.547530 -0.038245
N7    N     N_R   0.113900 0.570250 0.547530 -0.042986
N8    N     N_R   0.886100 0.429750 0.452470 -0.042987
N9    N     N_R   0.437800 0.869550 0.507970 -0.040028
N10   N     N_R   0.562200 0.130450 0.492030 -0.040030
N11   N     N_R   0.562200 0.869550 0.492030 -0.043481
N12   N     N_R   0.374620 0.071720 0.290660 -0.041768
N13   N     N_R   0.437800 0.130450 0.507970 -0.043494
N14   N     N_R   0.937800 0.369550 0.507970 -0.044994
N15   N     N_R   0.062200 0.630450 0.492030 -0.044993
N16   N     N_R   0.062200 0.369550 0.492030 -0.039835
N17   N     N_R   0.937800 0.630450 0.507970 -0.039835
N18   N     N_R   0.573690 0.128980 0.653840 -0.038167
N19   N     N_R   0.426310 0.871020 0.346160 -0.038170
N20   N     N_R   0.426310 0.128980 0.346160 -0.042726
N21   N     N_R   0.573690 0.871020 0.653840 -0.042726
N22   N     N_R   0.073690 0.628980 0.653840 -0.042833
N23   N     N_R   0.374620 0.928280 0.290660 -0.036676
N24   N     N_R   0.926310 0.371020 0.346160 -0.042833
N25   N     N_R   0.926310 0.628980 0.346160 -0.035981
N26   N     N_R   0.073690 0.371020 0.653840 -0.035976
N27   N     N_R   0.625380 0.071720 0.709340 -0.036674
N28   N     N_R   0.125380 0.428280 0.709340 -0.033925
N29   N     N_R   0.874620 0.571720 0.290660 -0.033943
N30   N     N_R   0.874620 0.428280 0.290660 -0.041328
N31   N     N_R   0.125380 0.571720 0.709340 -0.041327
N32   N     N_R   0.386100 0.070250 0.452470 -0.039101
Ni1   Ni    Ni4+2 0.616560 0.000000 0.627280 0.215438
Ni2   Ni    Ni4+2 0.383440 0.000000 0.372720 0.215436
Ni3   Ni    Ni4+2 0.116560 0.500000 0.627280 0.211507
Ni4   Ni    Ni4+2 0.883440 0.500000 0.372720 0.211508
Ni5   Ni    Ni4+2 0.497990 0.870580 0.500000 0.208838
Ni6   Ni    Ni4+2 0.502010 0.129420 0.500000 0.208839
Ni7   Ni    Ni4+2 0.997990 0.370580 0.500000 0.207481
Ni8   Ni    Ni4+2 0.002010 0.629420 0.500000 0.207479

loop_
_geom_bond_atom_site_label_1
_geom_bond_atom_site_label_2
_ccdc_geom_bond_type
C55   H18   S    
N8    N14   A    
C8    C26   S    
C108  C120  A    
C134  H49   S    
C113  N24   A    
C74   C83   A    
C102  C125  A    
C110  C118  A    
C20   C118  S    
C15   C32   S    
C104  C123  A    
C109  C119  A    
C91   C127  A    
C40   H9    S    
C36   H105  S    
C112  C124  A    
C49   N12   A    
C6    C25   S    
C110  H42   S    
C115  N31   A    
C37   H109  S    
C62   C70   A    
C2    H59   S    
C78   H71   S    
N17   Ni8   S    
C39   H5    S    
C107  N17   A    
C71   N27   A    
C3    C19   S    
C115  C124  A    
N31   Ni3   S    
C34   H104  S    
C95   N5    A    
C135  H50   S    
C93   N29   A    
C20   C45   S    
C5    C43   S    
C28   H84   S    
C37   H108  S    
C6    C44   S    
C111  H43   S    
C73   C81   A    
C99   H31   S    
C29   H86   S    
C11   C20   S    
C116  C121  A    
C99   C129  A    
C71   H47   S    
C53   C133  S    
C104  H80   S    
C46   C65   A    
C47   C64   A    
C51   C131  S    
N23   Ni2   S    
C58   C88   A    
N22   N31   A    
C21   C123  S    
C115  H91   S    
C95   H27   S    
C56   C86   A    
C54   C70   A    
N18   N27   A    
C105  N15   A    
C106  N16   A    
C108  N18   A    
C33   H100  S    
N1    Ni1   S    
N7    N15   A    
C48   C129  S    
C52   C77   A    
C19   C44   S    
C54   C79   A    
C16   C25   S    
C39   H4    S    
N24   N30   A    
C12   C134  S    
C36   H107  S    
C94   N4    A    
C54   C132  S    
C8    C17   S    
C63   C84   A    
C92   H24   S    
C51   C78   A    
C96   N6    A    
C2    C22   S    
C11   C13   S    
C126  H57   S    
N13   N32   A    
C101  N11   A    
C48   C67   A    
C58   C67   A    
C83   C86   A    
C5    C21   S    
C126  C134  S    
N7    Ni3   S    
C26   H76   S    
C51   C69   A    
C21   C126  S    
C36   C64   S    
C76   C85   A    
C114  N25   A    
C91   N2    A    
C78   C87   A    
C102  H34   S    
C79   H74   S    
C32   H96   S    
C30   H90   S    
C14   C31   S    
C73   H67   S    
C26   H77   S    
N3    N10   A    
C59   C68   A    
C1    N1    A    
C75   C84   A    
C14   C135  S    
C31   H93   S    
C42   C70   S    
C13   C23   S    
C60   C119  A    
C90   C125  A    
C113  H45   S    
C41   H10   S    
C13   H60   S    
C6    H55   S    
C17   C135  S    
C27   H78   S    
N12   N20   A    
C49   H25   S    
C112  H44   S    
N6    N16   A    
C105  H37   S    
C31   H92   S    
C103  H35   S    
C3    C24   S    
C57   H20   S    
C46   C127  S    
C53   C80   A    
C15   C136  S    
C10   C24   S    
C96   H28   S    
C7    H56   S    
C5    C9    S    
C4    C22   S    
C38   H112  S    
C39   C69   S    
C1    C117  A    
C20   C136  S    
C42   H15   S    
C98   H30   S    
C96   C131  A    
N29   Ni4   S    
C44   H64   S    
N2    Ni1   S    
N2    N11   A    
C1    H1    S    
C85   C88   A    
C16   C44   S    
C100  C128  A    
C58   H21   S    
C2    C135  S    
C111  C117  A    
C36   H106  S    
C14   C22   S    
C61   C81   A    
C41   H12   S    
C7    C23   S    
C37   C67   S    
C101  C127  A    
C18   C134  S    
N26   N28   A    
C60   N23   A    
C55   C87   A    
N27   Ni1   S    
C9    C18   S    
N19   Ni5   S    
C40   H7    S    
C3    C16   S    
C109  N19   A    
C110  N20   A    
C23   C121  S    
N24   Ni7   S    
C29   H85   S    
C98   C133  A    
C57   C89   A    
C59   C83   A    
C99   N9    A    
C90   N32   A    
N3    Ni1   S    
C80   C89   A    
C48   C76   A    
N19   N23   A    
C38   H3    S    
C101  H33   S    
C57   C66   A    
C91   H23   S    
C33   H99   S    
C97   N7    A    
C4    C35   S    
C27   H79   S    
C107  C130  A    
C79   C88   A    
N4    N9    A    
C47   C125  S    
C105  C132  A    
C32   H97   S    
C106  C131  A    
C100  N10   A    
N1    N21   A    
C59   H102  S    
C93   C122  A    
C47   C73   A    
C112  N22   A    
C74   H66   S    
C114  H46   S    
N25   N29   A    
C37   H110  S    
N4    Ni2   S    
N18   Ni6   S    
C113  C123  A    
C39   H6    S    
C10   C19   S    
N9    Ni5   S    
C106  H38   S    
C102  N13   A    
C34   H103  S    
C63   H17   S    
C81   C87   A    
C24   H61   S    
C27   H81   S    
C28   H83   S    
C50   C128  S    
C111  N21   A    
C9    C27   S    
N13   Ni6   S    
C10   C28   S    
C29   H87   S    
N15   Ni8   S    
C12   C30   S    
C2    C8    S    
C97   C132  A    
C6    C10   S    
N10   Ni6   S    
C50   C75   A    
C107  H39   S    
C97   H29   S    
C108  H40   S    
C103  N14   A    
C61   H2    S    
C82   H58   S    
C17   C119  S    
C109  H41   S    
C63   C72   A    
C19   C117  S    
C40   C68   S    
N25   Ni8   S    
N26   Ni7   S    
C17   C35   S    
C53   C72   A    
C80   H73   S    
C62   H13   S    
C4    C8    S    
C93   H69   S    
C3    H52   S    
C98   N8    A    
C7    C11   S    
C71   C120  A    
C7    C45   S    
N21   Ni5   S    
N32   Ni2   S    
C5    H54   S    
C12   C43   S    
C75   H70   S    
C56   C65   A    
C31   H94   S    
C116  H48   S    
N11   Ni5   S    
C34   H101  S    
C38   C66   S    
C26   H75   S    
C42   H16   S    
C25   C122  S    
C94   H26   S    
C82   C121  A    
C52   C68   A    
N5    Ni4   S    
N6    Ni3   S    
C15   C23   S    
N14   Ni7   S    
C32   H95   S    
N30   Ni4   S    
C30   H89   S    
C56   H19   S    
C92   C128  A    
C34   C65   S    
C62   C85   A    
C94   C129  A    
N8    Ni4   S    
C60   H36   S    
C24   C25   S    
C77   H72   S    
C104  N30   A    
C14   C35   S    
C30   H88   S    
N5    N17   A    
C12   C21   S    
C90   H22   S    
C82   N28   A    
C16   C33   S    
C95   C130  A    
C49   C118  A    
C41   H11   S    
C55   C64   A    
C116  N26   A    
C50   C66   A    
C41   C72   S    
C77   C86   A    
C40   H8    S    
C136  H51   S    
C13   C136  S    
C84   C89   A    
C15   C45   S    
C18   C120  S    
C46   C74   A    
C92   N3    A    
C61   C69   A    
C28   H82   S    
N20   Ni6   S    
N16   Ni7   S    
C4    H53   S    
N22   Ni8   S    
N12   Ni2   S    
C76   H68   S    
C22   C124  S    
N28   Ni3   S    
C9    C126  S    
C100  H32   S    
C52   C130  S    
C103  C133  A    
C38   H111  S    
C42   H14   S    
C114  C122  A    
C11   C29   S    
C45   H65   S    
C18   C43   S    
C43   H63   S    
C33   H98   S    
C35   H62   S    
