data_mof_unit_43827.cif
_audit_creation_date              2012-12-10T17:33:05-0500
_audit_creation_method            fapswitch 2.2
_symmetry_space_group_name_H-M    P1
_symmetry_Int_Tables_number       1
_space_group_crystal_system       triclinic
_cell_length_a                    12.408009
_cell_length_b                    13.265379
_cell_length_c                    14.277662
_cell_angle_alpha                 93.483052
_cell_angle_beta                  107.70729
_cell_angle_gamma                 117.471164
_cell_volume                      1929.2705123

loop_
_atom_site_label
_atom_site_type_symbol
_atom_type_description
_atom_site_fract_x
_atom_site_fract_y
_atom_site_fract_z
_atom_type_partial_charge
C1    C     C_R   0.651617 0.714475 0.509692 0.798833
C2    C     C_R   0.879763 0.542536 0.922023 0.088648
C3    C     C_R   0.852460 0.589038 0.997989 0.160282
C4    C     C_R   0.987749 0.523237 0.949319 0.055960
C5    C     C_R   0.058639 0.538831 0.053401 0.066749
C6    C     C_R   0.028389 0.585812 0.127040 -0.176367
C7    C     C_R   0.927951 0.611106 0.099433 -0.206758
C8    C     C_R   0.028294 0.490610 0.875928 -0.203534
C9    C     C_R   0.126704 0.463063 0.902647 -0.184168
C10   C     C_R   0.188972 0.467656 0.003170 0.115515
C11   C     C_R   0.157163 0.506826 0.079858 0.083192
C12   C     C_R   0.619746 0.518865 0.686762 0.787721
C13   C     C_R   0.282647 0.432675 0.027320 -0.251981
C14   C     C_R   0.347392 0.436311 0.127566 0.252752
C15   C     C_R   0.222482 0.509293 0.180085 -0.290184
C16   C     C_R   0.115123 0.977340 0.334592 0.404845
C17   C     C_R   0.247410 0.161420 0.460832 -0.236769
C18   C     C_R   0.736723 0.923601 0.578973 -0.296040
C19   C     C_R   0.825935 0.042637 0.595012 0.432895
C20   C     C_R   0.922265 0.075627 0.553906 -0.108668
C21   C     C_R   0.930196 0.991385 0.495086 0.036520
C22   C     C_R   0.826832 0.874193 0.465788 0.064131
C23   C     C_R   0.345351 0.285232 0.485154 0.809513
C24   C     C_R   0.034334 0.021374 0.460126 0.014708
C25   C     C_R   0.017596 0.942727 0.377213 -0.012922
C26   C     C_R   0.905888 0.830854 0.341078 -0.210849
C27   C     C_R   0.813500 0.796791 0.385511 -0.170627
C28   C     C_R   0.156844 0.124508 0.508679 0.334239
C29   C     C_R   0.228183 0.086597 0.376605 -0.236665
C30   C     C_R   0.737542 0.838724 0.515868 -0.144643
C31   C     C_R   0.253183 0.675194 0.670761 -0.299931
C32   C     C_R   0.651742 0.338632 0.365719 0.100455
C33   C     C_R   0.725985 0.296998 0.340757 -0.288131
C34   C     C_R   0.381441 0.482621 0.312970 0.807776
C35   C     C_R   0.861056 0.354879 0.393262 -0.127851
C36   C     C_R   0.925811 0.459121 0.469421 0.020117
C37   C     C_R   0.843893 0.494436 0.496061 0.271888
C38   C     C_R   0.066712 0.525526 0.524044 -0.048947
C39   C     C_R   0.118794 0.615351 0.611019 0.108312
C40   C     C_R   0.036856 0.646390 0.637149 -0.262256
C41   C     C_R   0.903490 0.589774 0.579300 -0.185052
C42   C     C_R   0.158999 0.508165 0.495970 0.534028
C43   C     C_R   0.337123 0.647898 0.643837 -0.000771
C44   C     C_R   0.694179 0.538901 0.794504 -0.052310
C45   C     C_R   0.317254 0.475563 0.205142 -0.097923
C46   C     C_R   0.749179 0.612515 0.971567 -0.207759
C47   C     C_R   0.670975 0.588433 0.870222 -0.187940
C48   C     C_R   0.795613 0.513840 0.821046 -0.250470
Cu1   Cu    Cu3+1 0.416420 0.526630 0.522910 0.950478
Cu2   Cu    Cu3+1 0.583580 0.473370 0.477090 0.934919
H1    H     H_    0.907818 0.646358 0.158190 0.141464
H2    H     H_    0.305420 0.401686 0.967999 0.147813
H3    H     H_    0.297915 0.115691 0.339433 0.183521
H4    H     H_    0.890053 0.766456 0.280613 0.136582
H5    H     H_    0.667112 0.897371 0.616203 0.154846
H6    H     H_    0.986672 0.168321 0.565070 0.200077
H7    H     H_    0.728442 0.710516 0.352663 0.159505
H8    H     H_    0.440276 0.692837 0.691039 0.136499
H9    H     H_    0.199417 0.535224 0.240570 0.201650
H10   H     H_    0.076677 0.716818 0.702529 0.161305
H11   H     H_    0.293150 0.742638 0.738459 0.153301
H12   H     H_    0.546678 0.292387 0.325415 0.140568
H13   H     H_    0.910066 0.311890 0.375554 0.186047
H14   H     H_    0.678295 0.217936 0.282015 0.153797
H15   H     H_    0.849920 0.622147 0.603999 0.205979
H16   H     H_    0.153245 0.436683 0.843775 0.160320
H17   H     H_    0.729696 0.650418 0.029331 0.126545
H18   H     H_    0.593282 0.609157 0.851222 0.150745
H19   H     H_    0.805355 0.469448 0.761287 0.163776
H20   H     H_    0.081776 0.606644 0.207233 0.166194
H21   H     H_    0.987825 0.487703 0.796846 0.157267
N1    N     N_R   0.290690 0.566960 0.557640 -0.203857
N2    N     N_R   0.709100 0.433710 0.442970 -0.205904
O1    O     O_R   0.545970 0.684450 0.528810 -0.573297
O2    O     O_R   0.687130 0.639470 0.490120 -0.603823
O3    O     O_R   0.519670 0.535100 0.660030 -0.586985
O4    O     O_R   0.660830 0.490120 0.621340 -0.598546
O5    O     O_R   0.312870 0.360530 0.509880 -0.586616
O6    O     O_R   0.454030 0.315550 0.471190 -0.578971
O7    O     O_R   0.339170 0.509880 0.378660 -0.560178
O8    O     O_R   0.480330 0.464900 0.339970 -0.558958
O9    O     O_3   0.102082 0.910043 0.249868 -0.728479
H22   H     H_    0.009241 0.868962 0.203110 0.311212
O10   O     O_3   0.189800 0.183548 0.605414 -0.741607
H23   H     H_    0.286318 0.233701 0.638418 0.328888
O11   O     O_3   0.823696 0.128626 0.652444 -0.729770
H24   H     H_    0.749893 0.091299 0.675864 0.322586
O12   O     O_3   0.118441 0.443134 0.401150 -0.765451
H25   H     H_    0.144280 0.383345 0.409837 0.344898
N3    N     N_2   0.438299 0.395852 0.148737 -0.415137
H26   H     H_    0.400626 0.314212 0.104185 0.247902
C49   C     C_3   0.565139 0.478496 0.148480 -0.672349
H27   H     H_    0.556500 0.490624 0.070767 0.214204
H28   H     H_    0.633499 0.444928 0.174596 0.231493
H29   H     H_    0.606312 0.564084 0.200335 0.225984

loop_
_geom_bond_atom_site_label_1
_geom_bond_atom_site_label_2
_ccdc_geom_bond_type
C43   N1    A    
C40   H10   S    
C28   O10   S    
C17   C29   A    
C31   H11   S    
C35   C36   A    
C48   H19   S    
C4    C8    A    
C19   O11   S    
Cu2   O6    S    
C26   C27   A    
C17   C23   S    
C31   C43   A    
C1    O1    A    
C49   H27   S    
C36   C37   A    
C38   C42   A    
C3    C7    A    
C38   C39   A    
Cu1   O5    S    
C18   C19   A    
C9    H16   S    
C14   N3    S    
C43   H8    S    
C34   O7    A    
C11   C15   A    
C19   C20   A    
C8    C9    A    
Cu1   N1    S    
C18   C30   A    
C34   O8    A    
C9    C10   A    
C44   C47   A    
C20   H6    S    
C21   C22   A    
C26   H4    S    
C42   N1    A    
C14   C45   A    
C1    O2    A    
C24   C25   A    
C27   H7    S    
Cu2   N2    S    
C32   N2    A    
O11   H24   S    
C41   H15   S    
C2    C48   A    
C16   C29   A    
C49   H29   S    
C2    C4    A    
C13   H2    S    
N3    C49   S    
C12   O4    A    
C20   C21   A    
C49   H28   S    
Cu1   O3    S    
C34   C45   S    
O10   H23   S    
C18   H5    S    
C40   C41   A    
Cu1   Cu2   S    
C22   C27   A    
C12   O3    A    
C42   O12   S    
C15   C45   A    
Cu2   O4    S    
C47   H18   S    
C39   C40   A    
C16   O9    S    
C16   C25   A    
C6    H20   S    
C37   N2    A    
C46   C47   A    
C8    H21   S    
C22   C30   A    
C17   C28   A    
C15   H9    S    
C24   C28   A    
C4    C5    A    
C10   C13   A    
C5    C11   A    
C6    C7    A    
C3    C46   A    
Cu1   O7    S    
C32   C33   A    
C36   C38   A    
C2    C3    A    
C25   C26   A    
C7    H1    S    
C46   H17   S    
C12   C44   S    
Cu2   O2    S    
N3    H26   S    
C5    C6    A    
C29   H3    S    
C33   H14   S    
C1    C30   S    
C33   C35   A    
C31   C39   A    
C23   O5    A    
C37   C41   A    
C10   C11   A    
C32   H12   S    
O12   H25   S    
O9    H22   S    
C21   C24   A    
Cu1   O1    S    
C35   H13   S    
C23   O6    A    
C13   C14   A    
C44   C48   A    
Cu2   O8    S    
