data_mof_unit_54687.cif
_audit_creation_date              2012-12-10T16:47:52-0500
_audit_creation_method            fapswitch 2.2
_symmetry_space_group_name_H-M    P1
_symmetry_Int_Tables_number       1
_space_group_crystal_system       triclinic
_cell_length_a                    7.811196
_cell_length_b                    8.603276
_cell_length_c                    10.722522
_cell_angle_alpha                 91.799206
_cell_angle_beta                  85.00336
_cell_angle_gamma                 92.799761
_cell_volume                      716.711604063

loop_
_atom_site_label
_atom_site_type_symbol
_atom_type_description
_atom_site_fract_x
_atom_site_fract_y
_atom_site_fract_z
_atom_type_partial_charge
C1    C     C_R   0.543642 0.794238 0.497984 0.915457
C2    C     C_2   0.557816 0.955585 0.521222 0.085037
C3    C     C_1   0.411998 0.644369 0.933261 0.185378
C4    C     C_1   0.984429 0.584080 0.652971 0.523682
C5    C     C_2   0.440256 0.044589 0.475419 0.054959
C6    C     C_R   0.501513 0.505448 0.737077 0.935443
C7    C     C_R   0.455976 0.205907 0.499241 0.921879
C8    C     C_R   0.498863 0.488233 0.262933 0.985490
C9    C     C_2   0.637267 0.434686 0.052291 0.468195
C10   C     C_2   0.495907 0.452829 0.132269 -0.465870
C11   C     C_2   0.613613 0.428982 0.920717 -0.193943
C12   C     C_2   0.507007 0.520279 0.868640 -0.244284
H1    H     H_    0.368442 0.442907 0.098693 0.160170
H2    H     H_    0.693238 0.350370 0.862870 0.256900
H3    H     H_    0.013569 0.407256 0.388738 0.258988
H4    H     H_    0.095821 0.360883 0.991265 0.383088
H5    H     H_    0.625549 0.845146 0.786753 0.350479
H6    H     H_    0.348211 0.157119 0.216056 0.347886
N1    N     N_2   0.950320 0.457950 0.466680 -0.133000
N2    N     N_2   0.049680 0.542050 0.533320 -0.149583
N3    N     N_1   0.336093 0.743415 0.984204 -0.052952
N4    N     N_1   0.935882 0.619081 0.754504 -0.119944
O1    O     O_R   0.389250 0.738570 0.508180 -0.600918
O2    O     O_2   0.853594 0.282024 0.181984 -0.260820
O3    O     O_3   0.979790 0.368528 0.961985 -0.539878
O4    O     O_2   0.853178 0.092383 0.592896 -0.188924
O5    O     O_2   0.591505 0.129951 0.731968 -0.357626
O6    O     O_3   0.729401 0.863411 0.728533 -0.533274
O7    O     O_2   0.384708 0.867738 0.267385 -0.302094
O8    O     O_2   0.137231 0.909521 0.419051 -0.182506
O9    O     O_3   0.248487 0.137415 0.277963 -0.507488
O10   O     O_R   0.678390 0.711630 0.486820 -0.578215
O11   O     O_R   0.355470 0.513470 0.691600 -0.640812
O12   O     O_R   0.644610 0.486520 0.670240 -0.621627
O13   O     O_R   0.321610 0.288370 0.513180 -0.589178
O14   O     O_R   0.610750 0.261430 0.491820 -0.579195
O15   O     O_R   0.355390 0.513480 0.329760 -0.585470
O16   O     O_R   0.644530 0.486530 0.308400 -0.554760
O17   O     O_2   0.920406 0.560950 0.149708 -0.253234
S1    S     S_3+6 0.851737 0.411911 0.091556 0.068974
S2    S     S_3+6 0.686180 0.016399 0.645516 0.060478
S3    S     S_3+6 0.300152 0.983614 0.357781 0.087383
Zn1   Zn    Zn3+2 0.306940 0.517990 0.514260 1.070756
Zn2   Zn    Zn3+2 0.693060 0.482010 0.485740 1.114975

loop_
_geom_bond_atom_site_label_1
_geom_bond_atom_site_label_2
_ccdc_geom_bond_type
O15   Zn1   S    
C11   C12   D    
O16   Zn2   S    
C3    C12   S    
O9    S3    S    
O7    S3    D    
C4    N4    T    
C9    C10   D    
O5    S2    D    
N1    N2    D    
C6    O11   A    
C5    S3    S    
O13   Zn1   S    
O10   Zn2   S    
O1    Zn1   S    
H3    N1    S    
C9    C11   S    
C8    O16   A    
O2    S1    D    
C1    O1    A    
C9    S1    S    
O3    S1    S    
C6    C12   S    
C11   H2    S    
C3    N3    T    
C2    C5    D    
O14   Zn2   S    
C8    O15   A    
C2    S2    S    
O11   Zn1   S    
O6    S2    S    
H4    O3    S    
N2    Zn1   S    
O12   Zn2   S    
N1    Zn2   S    
C8    C10   S    
C1    C2    S    
C7    O14   A    
O17   S1    D    
C5    C7    S    
O8    S3    D    
H6    O9    S    
H5    O6    S    
C7    O13   A    
C1    O10   A    
C6    O12   A    
O4    S2    D    
C10   H1    S    
C4    N2    S    
