data_mof_unit_52871.cif
_audit_creation_date              2012-12-11T17:08:34-0500
_audit_creation_method            fapswitch 2.2
_symmetry_space_group_name_H-M    P1
_symmetry_Int_Tables_number       1
_space_group_crystal_system       triclinic
_cell_length_a                    6.987951
_cell_length_b                    14.506518
_cell_length_c                    16.096925
_cell_angle_alpha                 90.027273
_cell_angle_beta                  89.996954
_cell_angle_gamma                 89.972944
_cell_volume                      1631.75839069

loop_
_atom_site_label
_atom_site_type_symbol
_atom_type_description
_atom_site_fract_x
_atom_site_fract_y
_atom_site_fract_z
_atom_type_partial_charge
O1    O     O_R   0.505700 0.583890 0.413310 -0.535746
O2    O     O_R   0.175960 0.594920 0.586080 -0.547308
O3    O     O_R   0.005660 0.416110 0.586690 -0.538771
C1    C     C_R   0.344828 0.616453 0.615124 0.710831
O4    O     O_R   0.175980 0.594920 0.413930 -0.540655
O5    O     O_R   0.005680 0.416110 0.413310 -0.542859
C2    C     C_R   0.344684 0.616954 0.385284 0.697744
O6    O     O_R   0.505680 0.583890 0.586690 -0.535458
O7    O     O_3   0.339200 0.441330 0.500000 -0.378546
V1    V     V_3+5 0.064350 0.510880 0.500000 1.369995
O8    O     O_R   0.675960 0.405080 0.413920 -0.539874
C3    C     C_R   0.845056 0.383018 0.385313 0.686071
O9    O     O_R   0.675940 0.405080 0.586070 -0.547855
C4    C     C_R   0.845435 0.380078 0.612245 0.686345
V2    V     V_3+5 0.564340 0.489120 0.500000 1.373142
O10   O     O_3   0.839360 0.558670 0.500000 -0.373376
C5    C     C_R   0.022232 0.301063 0.727339 0.057609
C6    C     C_R   0.857255 0.309758 0.679169 -0.096687
C7    C     C_R   0.703708 0.251515 0.698714 -0.191978
H1    H     H_    0.581927 0.249225 0.658361 0.159025
C8    C     C_R   0.712988 0.190423 0.766548 -0.166097
H2    H     H_    0.595796 0.143164 0.776616 0.142363
C9    C     C_R   0.876929 0.185918 0.817419 -0.091600
C10   C     C_R   0.029286 0.245140 0.798231 0.045653
C11   C     C_3   0.231230 0.218046 0.781923 -0.435592
C12   C     C_3   0.215867 0.269012 0.699895 0.129921
H3    H     H_    0.250319 0.142148 0.775984 0.184978
H4    H     H_    0.330641 0.251558 0.826590 0.152187
H5    H     H_    0.318973 0.326632 0.691996 0.119513
C13   C     C_R   0.728047 0.182387 0.241623 0.103730
C14   C     C_R   0.882074 0.181988 0.185813 -0.113069
C15   C     C_R   0.033816 0.243300 0.202063 -0.178114
H6    H     H_    0.156484 0.245206 0.161258 0.134774
C16   C     C_R   0.022695 0.307438 0.267673 -0.179700
H7    H     H_    0.137718 0.356508 0.275507 0.129028
C17   C     C_R   0.859160 0.312471 0.318854 -0.111326
C18   C     C_R   0.716647 0.246076 0.306317 0.104175
C19   C     C_3   0.506627 0.258279 0.294850 -0.412022
C20   C     C_3   0.518913 0.188535 0.224565 -0.397595
H8    H     H_    0.470025 0.328930 0.273413 0.167946
H9    H     H_    0.423456 0.233068 0.349145 0.172526
H10   H     H_    0.488762 0.218534 0.162395 0.171377
H11   H     H_    0.443402 0.122864 0.238356 0.168979
C21   C     C_R   0.513054 0.744289 0.691850 0.019513
C22   C     C_R   0.354274 0.686357 0.682320 -0.085387
C23   C     C_R   0.203516 0.696950 0.739259 -0.151953
H12   H     H_    0.082900 0.651182 0.736256 0.150679
C24   C     C_R   0.214534 0.761209 0.804691 -0.100182
H13   H     H_    0.099634 0.764056 0.849591 0.126101
C25   C     C_R   0.377696 0.816853 0.815369 -0.141182
C26   C     C_R   0.523198 0.809362 0.755870 0.036896
C27   C     C_3   0.730708 0.791317 0.769691 0.161074
C28   C     C_3   0.718473 0.718475 0.702017 0.165138
H14   H     H_    0.764772 0.764491 0.832840 0.106509
H15   H     H_    0.807884 0.732498 0.646020 0.111714
C29   C     C_R   0.509246 0.747154 0.310167 0.107610
C30   C     C_R   0.352690 0.687615 0.318749 -0.112032
C31   C     C_R   0.200104 0.698823 0.262460 -0.178840
H16   H     H_    0.076555 0.654361 0.266432 0.132247
C32   C     C_R   0.211762 0.762716 0.196638 -0.178590
H17   H     H_    0.095709 0.766361 0.152356 0.131039
C33   C     C_R   0.377001 0.816839 0.184757 -0.110145
C34   C     C_R   0.521166 0.810075 0.244871 0.102681
C35   C     C_3   0.729875 0.793236 0.233929 -0.417149
C36   C     C_3   0.716969 0.725023 0.305313 -0.397545
H18   H     H_    0.816836 0.855202 0.248906 0.174688
H19   H     H_    0.762368 0.760091 0.173275 0.171045
H20   H     H_    0.795950 0.747703 0.361668 0.177460
H21   H     H_    0.742679 0.652410 0.286171 0.166929
O11   O     O_R   0.229000 0.916070 0.913330 -0.537268
O12   O     O_R   0.558770 0.905070 0.086080 -0.538872
O13   O     O_R   0.729000 0.083900 0.086690 -0.535486
C37   C     C_R   0.389797 0.882932 0.114643 0.694772
O14   O     O_R   0.558720 0.905070 0.913930 -0.550263
O15   O     O_R   0.728960 0.083900 0.913310 -0.542203
C38   C     C_R   0.389862 0.883101 0.885300 0.696043
O16   O     O_R   0.229050 0.916070 0.086710 -0.539584
O17   O     O_3   0.395460 0.058650 0.000020 -0.369183
V3    V     V_3+5 0.670340 0.989120 0.000000 1.384583
O18   O     O_R   0.058670 0.094960 0.913900 -0.538392
C39   C     C_R   0.889680 0.116886 0.885217 0.695174
O19   O     O_R   0.058720 0.094960 0.086050 -0.542400
C40   C     C_R   0.889959 0.116757 0.114876 0.698754
V4    V     V_3+5 0.170330 0.010930 0.999970 1.392833
O20   O     O_3   0.895340 0.941350 0.999980 -0.376272
O21   O     O_3   0.842291 0.866772 0.745047 -0.650149
H22   H     H_    0.847294 0.908832 0.793618 0.294257
O22   O     O_3   0.736817 0.629324 0.735116 -0.660715
H23   H     H_    0.784125 0.589465 0.689442 0.295148
N1    N     N_2   0.208517 0.202748 0.631553 -0.519676
H24   H     H_    0.100608 0.154225 0.634284 0.277306
C41   C     C_3   0.251555 0.234482 0.548630 -0.497061
H25   H     H_    0.283093 0.174120 0.508490 0.174804
H26   H     H_    0.379594 0.279331 0.548634 0.210317
H27   H     H_    0.126924 0.271023 0.521838 0.201530

loop_
_geom_bond_atom_site_label_1
_geom_bond_atom_site_label_2
_ccdc_geom_bond_type
C4    C6    S    
C7    H1    S    
C1    O6    A    
O12   V3    S    
C30   C31   A    
C22   C23   A    
C21   C22   A    
C11   H4    S    
C18   C19   S    
O14   C38   A    
C5    C12   S    
C17   C18   A    
C7    C8    A    
C6    C7    A    
O13   V3    S    
O5    C3    A    
C19   C20   S    
C31   C32   A    
V2    O10   S    
C14   C40   S    
C29   C30   A    
C32   C33   A    
C16   H7    S    
O8    V2    S    
C21   C28   S    
C9    C10   A    
C33   C37   S    
O1    V2    S    
C3    C17   S    
O11   V4    S    
O7    V1    S    
O18   V4    S    
C24   C25   A    
O1    C2    A    
O9    C4    A    
C27   H14   S    
C25   C26   A    
C20   H10   S    
C1    C22   S    
C28   H15   S    
C23   C24   A    
C5    C10   A    
C26   C27   S    
C35   H19   S    
C10   C11   S    
C19   H9    S    
O4    C2    A    
O17   V3    S    
O15   C39   A    
C20   H11   S    
O16   V4    S    
C31   H16   S    
C41   H27   S    
C13   C18   A    
C32   H17   S    
C35   H18   S    
O2    C1    A    
C33   C34   A    
C25   C38   S    
N1    C41   S    
C14   C15   A    
C36   H20   S    
C41   H26   S    
C5    C6    A    
C29   C34   A    
V4    O20   S    
O3    C4    A    
C21   C26   A    
C24   H13   S    
O6    V2    S    
O19   V4    S    
O14   V3    S    
O9    V2    S    
O11   C38   A    
C12   N1    S    
O2    V1    S    
V3    O20   S    
C27   C28   S    
O12   C37   A    
C23   H12   S    
C9    C39   S    
O21   H22   S    
O18   C39   A    
O5    V1    S    
O8    C3    A    
C11   H3    S    
C15   H6    S    
C8    C9    A    
C11   C12   S    
O4    V1    S    
O3    V1    S    
V1    O10   S    
C35   C36   S    
C19   H8    S    
N1    H24   S    
C13   C14   A    
C36   H21   S    
C27   O21   S    
C41   H25   S    
C13   C20   S    
C28   O22   S    
C16   C17   A    
O7    V2    S    
O13   C40   A    
C34   C35   S    
O17   V4    S    
O22   H23   S    
C12   H5    S    
O19   C40   A    
C37   O16   A    
C8    H2    S    
O15   V3    S    
C2    C30   S    
C29   C36   S    
C15   C16   A    
