data_mof_unit_22905.cif
_audit_creation_date              2013-03-05T15:54:12-0500
_audit_creation_method            fapswitch 2.2
_symmetry_space_group_name_H-M    P1
_symmetry_Int_Tables_number       1
_space_group_crystal_system       triclinic
_cell_length_a                    10.513471
_cell_length_b                    10.725382
_cell_length_c                    9.900513
_cell_angle_alpha                 88.932022
_cell_angle_beta                  89.690105
_cell_angle_gamma                 91.696728
_cell_volume                      1115.68850175

loop_
_atom_site_label
_atom_site_type_symbol
_atom_site_description
_atom_site_fract_x
_atom_site_fract_y
_atom_site_fract_z
_atom_type_partial_charge
O1    O     O_R   0.500000 0.316780 0.614690 -0.657163
O2    O     O_R   0.499990 0.316750 0.385360 -0.644477
C1    C     C_R   0.506548 0.259697 0.502344 0.862920
O3    O     O_R   0.313960 0.499980 0.614650 -0.657279
O4    O     O_R   0.313940 0.499960 0.385310 -0.610541
C2    C     C_R   0.257560 0.500973 0.500359 0.910217
Zn1   Zn    Zn3+2 0.500010 0.500020 0.653130 0.923167
Zn2   Zn    Zn3+2 0.499990 0.499980 0.346870 0.962210
O5    O     O_R   0.500010 0.683250 0.614640 -0.637996
O6    O     O_R   0.500000 0.683220 0.385310 -0.597385
O7    O     O_R   0.686060 0.500040 0.614690 -0.621090
O8    O     O_R   0.686040 0.500020 0.385350 -0.623647
C3    C     C_R   0.487462 0.738796 0.499303 0.919927
C4    C     C_R   0.742471 0.499950 0.499594 0.896872
C5    C     C_3   0.039498 0.497094 0.628900 -0.193471
C6    C     C_3   0.954877 0.396085 0.561146 -0.143356
H1    H     H_    0.913638 0.310289 0.610739 0.141164
H2    H     H_    0.075438 0.492874 0.734122 0.169087
C7    C     C_3   0.877274 0.500694 0.498619 -0.024155
C8    C     C_3   0.958686 0.601873 0.566653 -0.239768
C9    C     C_3   0.042875 0.604675 0.439992 0.358553
C10   C     C_3   0.959534 0.506230 0.370202 -0.195194
C11   C     C_3   0.040251 0.401828 0.433272 -0.229078
C12   C     C_3   0.122773 0.502662 0.500988 -0.075760
H3    H     H_    0.921677 0.683941 0.619321 0.157103
H4    H     H_    0.924137 0.511461 0.264821 0.164171
H5    H     H_    0.077570 0.320468 0.379559 0.151617
H6    H     H_    0.536056 0.115233 0.290857 0.172947
C13   C     C_R   0.504646 0.104448 0.763069 -0.169858
H7    H     H_    0.559322 0.188803 0.782287 0.173773
C14   C     C_R   0.456896 0.039343 0.876603 -0.147638
H8    H     H_    0.468623 0.078069 0.976156 0.151479
C15   C     C_R   0.391712 0.926045 0.861416 -0.149599
H9    H     H_    0.349641 0.877772 0.948455 0.160384
C16   C     C_R   0.386122 0.872124 0.734669 -0.134223
H10   H     H_    0.335534 0.783267 0.726334 0.165964
C17   C     C_R   0.445593 0.932231 0.621226 0.090285
C18   C     C_R   0.487275 0.056591 0.631329 0.089368
C19   C     C_R   0.509905 0.125510 0.508603 -0.120417
C20   C     C_R   0.516655 0.064909 0.385034 -0.221775
H11   H     H_    0.517329 0.892415 0.285936 0.172810
C21   C     C_R   0.501574 0.937997 0.381116 -0.162078
C22   C     C_R   0.470182 0.870964 0.499156 -0.081004
H12   H     H_    0.645151 0.637980 0.121780 0.152734
C23   C     C_R   0.329966 0.338993 0.143881 -0.158148
H13   H     H_    0.325257 0.331489 0.251037 0.202060
C24   C     C_R   0.244957 0.261462 0.075323 -0.203738
H14   H     H_    0.179567 0.199727 0.131211 0.165353
C25   C     C_R   0.244606 0.262265 0.935531 -0.185954
H15   H     H_    0.179354 0.200796 0.882361 0.161747
C26   C     C_R   0.329789 0.340066 0.863528 -0.171391
H16   H     H_    0.326711 0.332481 0.756587 0.211673
C27   C     C_R   0.416075 0.421071 0.929562 0.148502
C28   C     C_R   0.416154 0.420860 0.074234 0.176044
N1    N     N_R   0.498800 0.498800 0.142780 -0.120633
C29   C     C_R   0.579909 0.575942 0.069541 -0.117318
H17   H     H_    0.645103 0.637935 0.870818 0.155389
C30   C     C_R   0.579898 0.575885 0.926341 -0.111199
N2    N     N_R   0.498760 0.498720 0.857170 -0.127618
N3    N     N_R   0.088675 0.720052 0.373625 0.195530
O9    O     O_R   0.007292 0.798500 0.326318 -0.409537
O10   O     O_R   0.209771 0.746577 0.363009 -0.420559

loop_
_geom_bond_atom_site_label_1
_geom_bond_atom_site_label_2
_geom_bond_distance
_ccdc_geom_bond_type
C13   C18   1.421256 A    
C17   C22   1.412625 A    
C5    H2    1.110668 S    
C26   C27   1.409294 A    
C11   C12   1.532826 S    
C14   C15   1.388350 A    
C17   C18   1.397112 A    
C11   H5    1.110637 S    
O4    Zn2   1.990681 S    
H11   C21   1.083833 S    
H12   C29   1.081827 S    
C14   H8    1.082920 S    
O8    C4    1.280065 A    
Zn2   O8    1.994797 S    
C2    C12   1.417704 S    
N1    C29   1.366264 A    
C20   C21   1.367006 A    
C15   H9    1.082575 S    
C27   N2    1.375173 A    
C1    C19   1.440881 S    
C26   H16   1.063989 S    
C13   C14   1.395338 A    
O1    Zn1   2.008778 S    
C27   C28   1.432295 A    
N3    O10   1.299567 A    
Zn1   O7    1.990682 S    
H17   C30   1.081800 S    
C13   H7    1.077961 S    
O3    Zn1   1.994797 S    
O4    C2    1.281572 A    
Zn2   N1    2.020974 S    
Zn1   N2    2.019858 S    
C5    C12   1.534903 S    
C16   C17   1.417583 A    
C29   C30   1.417765 A    
C23   C28   1.411059 A    
O2    C1    1.302904 A    
C6    C11   1.547177 S    
C23   C24   1.390881 A    
C6    C7    1.530192 S    
C5    C8    1.549500 S    
C15   C16   1.392262 A    
O7    C4    1.281790 A    
O3    C2    1.280349 A    
C8    H3    1.110515 S    
H6    C20   1.083950 S    
C5    C6    1.546482 S    
C24   H14   1.082815 S    
C23   H13   1.063224 S    
C3    C22   1.434443 S    
C7    C10   1.533028 S    
C18   C19   1.425589 A    
C8    C9    1.530329 S    
C9    N3    1.458042 S    
C24   C25   1.383904 A    
C25   H15   1.082791 S    
C10   H4    1.110590 S    
C9    C12   1.517468 S    
C19   C20   1.398442 A    
Zn1   O5    1.994831 S    
O5    C3    1.287314 A    
C28   N1    1.377976 A    
C6    H1    1.110425 S    
C25   C26   1.390394 A    
C30   N2    1.366484 A    
C9    C10   1.529369 S    
C4    C7    1.417012 S    
O6    C3    1.294035 A    
C10   C11   1.549144 S    
O2    Zn2   1.994831 S    
C7    C8    1.530500 S    
C21   C22   1.393570 A    
Zn2   O6    2.008779 S    
N3    O9    1.300631 A    
O1    C1    1.282108 A    
C16   H10   1.082278 S    
