data_mof_unit_53390.cif
_audit_creation_date              2012-12-10T18:19:06-0500
_audit_creation_method            fapswitch 2.2
_symmetry_space_group_name_H-M    P1
_symmetry_Int_Tables_number       1
_space_group_crystal_system       triclinic
_cell_length_a                    14.93353
_cell_length_b                    14.195859
_cell_length_c                    11.558414
_cell_angle_alpha                 89.859311
_cell_angle_beta                  87.646761
_cell_angle_gamma                 89.597039
_cell_volume                      2448.1850028

loop_
_atom_site_label
_atom_site_type_symbol
_atom_type_description
_atom_site_fract_x
_atom_site_fract_y
_atom_site_fract_z
_atom_type_partial_charge
C1    C     C_R   0.327219 0.500508 0.501653 0.943145
C2    C     C_R   0.672973 0.499703 0.499029 0.927414
C3    C     C_R   0.909309 0.567808 0.428739 -0.024267
C4    C     C_R   0.090050 0.469651 0.610093 -0.019616
C5    C     C_R   0.945019 0.432105 0.701917 0.281742
C6    C     C_R   0.052501 0.631485 0.359781 0.281683
C7    C     C_R   0.038911 0.428106 0.702316 0.503601
C8    C     C_R   0.959135 0.627834 0.352794 0.502962
C9    C     C_R   0.541516 0.798588 0.410017 0.472632
C10   C     C_R   0.459921 0.201336 0.590881 0.469686
C11   C     C_R   0.458166 0.798882 0.589624 0.472514
C12   C     C_R   0.540459 0.201169 0.409407 0.476468
C13   C     C_R   0.464464 0.899152 0.596985 -0.056955
C14   C     C_R   0.533963 0.100967 0.402207 -0.052402
C15   C     C_R   0.535886 0.899088 0.402937 -0.055259
C16   C     C_R   0.466034 0.100965 0.597702 -0.060072
C17   C     C_R   0.500097 0.949621 0.499928 -0.018522
C18   C     C_R   0.500000 0.050385 0.499922 -0.018897
C19   C     C_R   0.434392 0.950274 0.697445 -0.105703
C20   C     C_R   0.563293 0.050219 0.301484 -0.107258
C21   C     C_R   0.566635 0.950368 0.302832 -0.108268
C22   C     C_R   0.436941 0.050035 0.698419 -0.093007
C23   C     C_R   0.500290 0.500095 0.282067 0.908518
C24   C     C_R   0.499717 0.499908 0.717932 0.894966
C25   C     C_1   0.500214 0.500255 0.161537 -0.087090
C26   C     C_1   0.499719 0.499765 0.838465 -0.085127
C27   C     C_1   0.500054 0.500147 0.059363 0.048786
C28   C     C_1   0.499835 0.499892 0.940641 0.052190
C29   C     C_R   0.816913 0.556396 0.417825 0.387950
C30   C     C_R   0.184235 0.466077 0.606575 0.378497
C31   C     C_R   0.769048 0.500262 0.498865 -0.240249
C32   C     C_R   0.231431 0.503894 0.509647 -0.235758
C33   C     C_R   0.811043 0.451397 0.586506 0.366032
C34   C     C_R   0.188622 0.551225 0.421751 0.375414
C35   C     C_R   0.902501 0.466695 0.602934 -0.126012
C36   C     C_R   0.096191 0.568045 0.433688 -0.131365
C37   C     C_R   0.952572 0.518887 0.518504 -0.127737
C38   C     C_R   0.046228 0.519562 0.521516 -0.128359
N1    N     N_R   0.500000 0.750030 0.500000 -0.214918
N2    N     N_R   0.500000 0.249970 0.500000 -0.214119
O1    O     O_R   0.367850 0.580280 0.500030 -0.618674
O2    O     O_R   0.632150 0.419720 0.499970 -0.600961
O3    O     O_R   0.632150 0.580280 0.499970 -0.642567
O4    O     O_R   0.367850 0.419720 0.500030 -0.642343
O5    O     O_R   0.500010 0.580270 0.334450 -0.593089
O6    O     O_R   0.499990 0.419730 0.665550 -0.590337
O7    O     O_R   0.499990 0.580270 0.665550 -0.607147
O8    O     O_R   0.500010 0.419730 0.334450 -0.604594
Zn1   Zn    Zn3+2 0.500000 0.607200 0.500000 0.999802
Zn2   Zn    Zn3+2 0.500000 0.392800 0.500000 1.005356
O9    O     O_3   0.775253 0.597231 0.325081 -0.659164
H1    H     H_    0.722459 0.559518 0.305432 0.312538
O10   O     O_3   0.228339 0.424326 0.696753 -0.658438
H2    H     H_    0.289621 0.449808 0.700650 0.312815
O11   O     O_3   0.761091 0.387708 0.652272 -0.725297
H3    H     H_    0.799888 0.332541 0.667746 0.379639
O12   O     O_3   0.238790 0.575341 0.322854 -0.736872
H4    H     H_    0.200253 0.569673 0.255458 0.375490
O13   O     O_3   0.897191 0.407028 0.802001 -0.746968
H5    H     H_    0.844104 0.449149 0.810409 0.382506
O14   O     O_3   0.098369 0.700816 0.298171 -0.743097
H6    H     H_    0.150523 0.719931 0.342774 0.385217
O15   O     O_3   0.081779 0.386546 0.793628 -0.648707
H7    H     H_    0.038482 0.351370 0.844087 0.390251
O16   O     O_3   0.914965 0.685281 0.276245 -0.639349
H8    H     H_    0.958279 0.715801 0.221216 0.393781
O17   O     O_3   0.590429 0.750457 0.325797 -0.716229
H9    H     H_    0.614037 0.692934 0.360714 0.391249
O18   O     O_3   0.410874 0.249013 0.675494 -0.717183
H10   H     H_    0.386061 0.306008 0.640389 0.384731
O19   O     O_3   0.407411 0.751505 0.672490 -0.736801
H11   H     H_    0.384781 0.693972 0.637498 0.375186
O20   O     O_3   0.590997 0.248329 0.326069 -0.735276
H12   H     H_    0.614833 0.305222 0.361437 0.375229
C39   C     C_2   0.407237 0.900511 0.806413 1.036614
O21   O     O_2   0.330287 0.907518 0.845956 -0.541199
O22   O     O_R   0.469450 0.844106 0.861908 -0.759149
H13   H     H_    0.441727 0.810446 0.931882 0.367116
C40   C     C_2   0.580859 0.100417 0.189771 1.029684
O23   O     O_2   0.654842 0.096070 0.140623 -0.541193
O24   O     O_R   0.512654 0.154575 0.142884 -0.748359
H14   H     H_    0.533257 0.188315 0.069253 0.383930
C41   C     C_2   0.596087 0.900805 0.194806 1.053559
O25   O     O_2   0.674889 0.902507 0.161709 -0.521980
O26   O     O_R   0.533913 0.850336 0.133089 -0.762028
H15   H     H_    0.562990 0.816386 0.064103 0.366998
C42   C     C_2   0.418638 0.099442 0.810101 1.036860
O27   O     O_2   0.480031 0.137644 0.858220 -0.591847
O28   O     O_R   0.331469 0.103368 0.858741 -0.711840
H16   H     H_    0.327762 0.139297 0.934505 0.368896

loop_
_geom_bond_atom_site_label_1
_geom_bond_atom_site_label_2
_ccdc_geom_bond_type
C33   O11   S    
C42   O27   D    
C23   O5    A    
O20   H12   S    
C14   C18   A    
O11   H3    S    
O24   H14   S    
O7    Zn1   S    
O22   H13   S    
C6    O14   S    
C35   C37   A    
C24   C26   S    
C11   O19   S    
C9    N1    A    
C10   N2    A    
C3    C29   A    
C21   C41   S    
C34   O12   S    
C31   C33   A    
O8    Zn2   S    
C8    O16   S    
C12   O20   S    
O18   H10   S    
C4    C7    A    
O1    Zn1   S    
C30   O10   S    
C5    O13   S    
O17   H9    S    
C14   C20   A    
C19   C22   A    
C40   O23   D    
C3    C8    A    
C5    C7    A    
C13   C19   A    
O3    Zn1   S    
C6    C8    A    
O26   H15   S    
C1    C32   S    
O9    H1    S    
C2    C31   S    
C32   C34   A    
C12   N2    A    
C39   O21   D    
C9    O17   S    
C37   C38   A    
C1    O4    A    
C41   O25   D    
O5    Zn1   S    
C2    O3    A    
C17   C18   A    
C22   C42   S    
C11   N1    A    
C39   O22   S    
C7    O15   S    
O2    Zn2   S    
C1    O1    A    
N1    Zn1   S    
C4    C38   A    
C42   O28   S    
C40   O24   S    
C29   O9    S    
O4    Zn2   S    
C15   C17   A    
C16   C22   A    
C23   O8    A    
C20   C40   S    
C41   O26   S    
C24   O7    A    
C12   C14   A    
O10   H2    S    
C25   C27   T    
O6    Zn2   S    
C26   C28   T    
C13   C17   A    
C24   O6    A    
C36   C38   A    
C9    C15   A    
O19   H11   S    
C29   C31   A    
C10   C16   A    
C30   C32   A    
C11   C13   A    
O12   H4    S    
C15   C21   A    
C2    O2    A    
N2    Zn2   S    
C5    C35   A    
C19   C39   S    
C33   C35   A    
C6    C36   A    
C34   C36   A    
C23   C25   S    
O14   H6    S    
O15   H7    S    
C10   O18   S    
O13   H5    S    
C20   C21   A    
C3    C37   A    
C16   C18   A    
O16   H8    S    
C27   C28   S    
O28   H16   S    
C4    C30   A    
