data_mof_unit_52912.cif
_audit_creation_date              2012-12-10T17:35:34-0500
_audit_creation_method            fapswitch 2.2
_symmetry_space_group_name_H-M    P1
_symmetry_Int_Tables_number       1
_space_group_crystal_system       triclinic
_cell_length_a                    10.734315
_cell_length_b                    12.31676
_cell_length_c                    13.198281
_cell_angle_alpha                 116.454995
_cell_angle_beta                  77.508722
_cell_angle_gamma                 101.711872
_cell_volume                      1513.87311419

loop_
_atom_site_label
_atom_site_type_symbol
_atom_type_description
_atom_site_fract_x
_atom_site_fract_y
_atom_site_fract_z
_atom_type_partial_charge
C1    C     C_R   0.512290 0.854770 0.286587 0.800641
C2    C     C_3   0.121533 0.995970 0.496313 0.058670
C3    C     C_3   0.043090 0.010885 0.614506 -0.358095
C4    C     C_3   0.068086 0.875743 0.397103 -0.184452
C5    C     C_R   0.367776 0.266450 0.030130 -0.005649
C6    C     C_R   0.465081 0.226684 0.835018 -0.080802
C7    C     C_R   0.603067 0.815919 0.087021 -0.146005
C8    C     C_R   0.638142 0.736190 0.974622 -0.136317
C9    C     C_R   0.598826 0.611585 0.937989 -0.168131
C10   C     C_R   0.516579 0.563844 0.012417 0.100971
C11   C     C_R   0.473415 0.647069 0.124789 0.080005
C12   C     C_R   0.739733 0.000452 0.500309 0.774353
C13   C     C_R   0.476574 0.436418 0.979602 0.066867
C14   C     C_R   0.399018 0.393872 0.060203 0.078533
C15   C     C_R   0.346873 0.479468 0.165337 -0.176615
C16   C     C_R   0.379558 0.603144 0.194852 -0.174737
C17   C     C_R   0.508389 0.350287 0.867835 -0.249620
C18   C     C_R   0.399082 0.184323 0.916466 -0.242462
C19   C     C_R   0.524560 0.772327 0.164038 -0.075876
C20   C     C_R   0.705503 0.349115 0.329836 -0.275746
C21   C     C_R   0.325180 0.757832 0.644439 0.129317
C22   C     C_R   0.286918 0.660195 0.675132 -0.232418
C23   C     C_R   0.482910 0.144883 0.713369 0.807386
C24   C     C_R   0.352261 0.557301 0.620504 -0.190645
C25   C     C_R   0.457524 0.550635 0.533823 0.003387
C26   C     C_R   0.493120 0.653158 0.505148 0.270409
C27   C     C_R   0.528905 0.446815 0.474802 -0.014061
C28   C     C_R   0.633503 0.448103 0.388734 0.170187
C29   C     C_R   0.666232 0.548282 0.361947 -0.248841
C30   C     C_R   0.597900 0.648154 0.418794 -0.175902
C31   C     C_R   0.502061 0.341113 0.497097 0.045993
C32   C     C_R   0.674399 0.248591 0.356096 0.077898
C33   C     C_R   0.260055 0.998435 0.497969 0.750883
C34   C     C_3   0.960035 0.112243 0.482809 -0.348182
C35   C     C_3   0.102970 0.106292 0.475321 -0.376568
C36   C     C_3   0.898875 0.004491 0.612224 -0.404821
C37   C     C_3   0.923207 0.878400 0.398381 -0.188951
C38   C     C_3   0.877891 0.999044 0.497143 0.043362
Cu1   Cu    Cu3+1 0.529690 0.098270 0.475420 0.943284
Cu2   Cu    Cu3+1 0.470310 0.901730 0.524580 0.945964
H1    H     H_    0.931719 0.197258 0.557516 0.169999
H2    H     H_    0.846343 0.922315 0.624185 0.190340
H3    H     H_    0.370325 0.087244 0.891007 0.185909
H4    H     H_    0.562292 0.377230 0.802372 0.152379
H5    H     H_    0.642351 0.911272 0.114839 0.150268
H6    H     H_    0.636399 0.556095 0.851206 0.124949
H7    H     H_    0.700798 0.770604 0.916431 0.141240
H8    H     H_    0.943512 0.119203 0.405812 0.214545
H9    H     H_    0.729694 0.172000 0.310953 0.127930
H10   H     H_    0.746297 0.549899 0.296264 0.190792
H11   H     H_    0.273773 0.837136 0.687357 0.132807
H12   H     H_    0.206228 0.664293 0.741598 0.152847
H13   H     H_    0.631388 0.719787 0.391945 0.228845
H14   H     H_    0.860153 0.085829 0.685168 0.163919
H15   H     H_    0.076278 0.100866 0.681504 0.155383
H16   H     H_    0.124891 0.876267 0.315929 0.131607
N1    N     N_R   0.574690 0.246280 0.438200 -0.182275
N2    N     N_R   0.426100 0.754320 0.561190 -0.211509
O1    O     O_R   0.537340 0.972510 0.318130 -0.578536
O2    O     O_R   0.487200 0.806530 0.359650 -0.601726
O3    O     O_R   0.707380 0.082980 0.479220 -0.588041
O4    O     O_R   0.657240 0.917000 0.520740 -0.608374
O5    O     O_R   0.512800 0.193470 0.640350 -0.592249
O6    O     O_R   0.462660 0.027490 0.681870 -0.592239
O7    O     O_R   0.342760 0.083000 0.479260 -0.588359
O8    O     O_R   0.292620 0.917020 0.520780 -0.560735
C39   C     C_2   0.083485 0.754296 0.394147 0.805362
O9    O     O_2   0.092087 0.744771 0.480578 -0.594879
O10   O     O_R   0.076644 0.649823 0.291215 -0.773468
H17   H     H_    0.080949 0.572614 0.299262 0.326087
H18   H     H_    0.058157 0.940825 0.640393 0.213313
H19   H     H_    0.275983 0.452187 0.224198 0.174818
C40   C     C_2   0.304177 0.215153 0.114053 0.810226
O11   O     O_2   0.329526 0.264213 0.211883 -0.604618
O12   O     O_R   0.219440 0.106988 0.079414 -0.771119
H20   H     H_    0.183793 0.080084 0.143437 0.350670
H21   H     H_    0.328355 0.663538 0.273308 0.191007
H22   H     H_    0.785621 0.349649 0.263959 0.145746
H23   H     H_    0.424219 0.332230 0.560900 0.116049
H24   H     H_    0.318482 0.484548 0.647741 0.133868
H25   H     H_    0.153511 0.097901 0.389504 0.207601
H26   H     H_    0.144922 0.193813 0.539876 0.174063
H27   H     H_    0.864946 0.802431 0.418322 0.128101
C41   C     C_2   0.896558 0.856287 0.281778 0.831483
O13   O     O_2   0.817322 0.771509 0.234075 -0.614021
O14   O     O_R   0.963633 0.930495 0.227714 -0.789126
H28   H     H_    0.936659 0.906004 0.150651 0.335908

loop_
_geom_bond_atom_site_label_1
_geom_bond_atom_site_label_2
_ccdc_geom_bond_type
C2    C35   S    
Cu2   O2    S    
C40   O12   S    
C40   O11   D    
C36   H2    S    
C35   H25   S    
C33   O7    A    
C7    C8    A    
C15   H19   S    
C11   C19   A    
C29   C30   A    
C7    H5    S    
C28   C29   A    
C41   O14   S    
C16   H21   S    
C1    O1    A    
C15   C16   A    
Cu1   N1    S    
Cu2   O4    S    
C34   C35   S    
C3    H15   S    
C24   H24   S    
C8    C9    A    
C37   C41   S    
C9    C10   A    
C23   O5    A    
C9    H6    S    
Cu2   O8    S    
C21   C22   A    
C4    H16   S    
C5    C40   S    
Cu1   O7    S    
C34   H1    S    
C32   N1    A    
C6    C18   A    
C35   H26   S    
C33   O8    A    
C29   H10   S    
Cu1   O3    S    
C30   H13   S    
C1    C19   S    
Cu2   N2    S    
C27   C31   A    
C39   O9    D    
C24   C25   A    
C1    O2    A    
Cu1   Cu2   S    
O14   H28   S    
C5    C18   A    
C20   C28   A    
C25   C26   A    
C39   O10   S    
C2    C4    S    
O12   H20   S    
C37   C38   S    
C12   O4    A    
C11   C16   A    
Cu1   O1    S    
C41   O13   D    
C26   N2    A    
C5    C14   A    
C2    C33   S    
C23   O6    A    
C26   C30   A    
C7    C19   A    
C22   C24   A    
C34   H8    S    
C21   H11   S    
C22   H12   S    
C20   C32   A    
C6    C17   A    
C34   C38   S    
C10   C13   A    
C4    C39   S    
C31   H23   S    
C3    H18   S    
C20   H22   S    
C25   C27   A    
Cu1   O5    S    
Cu2   O6    S    
C13   C17   A    
C31   N1    A    
C36   C38   S    
C2    C3    S    
C17   H4    S    
C21   N2    A    
C18   H3    S    
C12   O3    A    
C3    C36   S    
C6    C23   S    
C12   C38   S    
O10   H17   S    
C32   H9    S    
C8    H7    S    
C36   H14   S    
C10   C11   A    
C4    C37   S    
C27   C28   A    
C14   C15   A    
C37   H27   S    
C13   C14   A    
