data_mof_unit_16268.cif
_audit_creation_date              2012-12-10T16:52:38-0500
_audit_creation_method            fapswitch 2.2
_symmetry_space_group_name_H-M    P1
_symmetry_Int_Tables_number       1
_space_group_crystal_system       triclinic
_cell_length_a                    7.862373
_cell_length_b                    8.386516
_cell_length_c                    13.766482
_cell_angle_alpha                 93.108534
_cell_angle_beta                  93.060458
_cell_angle_gamma                 94.482113
_cell_volume                      902.110171083

loop_
_atom_site_label
_atom_site_type_symbol
_atom_type_description
_atom_site_fract_x
_atom_site_fract_y
_atom_site_fract_z
_atom_type_partial_charge
C1    C     C_R   0.043033 0.794490 0.487821 0.807283
C2    C     C_R   0.936896 0.488956 0.317950 0.919997
C3    C     C_R   0.100414 0.547543 0.785613 -0.064696
C4    C     C_R   0.906743 0.481157 0.212790 -0.071888
C5    C     C_R   0.081204 0.718562 0.930703 -0.184979
C6    C     C_R   0.964840 0.377351 0.052195 -0.186725
C7    C     C_R   0.014865 0.660628 0.838488 -0.194025
C8    C     C_R   0.013989 0.404338 0.150724 -0.151504
C9    C     C_R   0.246613 0.488904 0.825807 -0.275299
C10   C     C_R   0.759431 0.542490 0.175365 -0.198276
C11   C     C_R   0.326080 0.558504 0.912395 0.092645
C12   C     C_R   0.951863 0.203710 0.489659 0.845480
C13   C     C_R   0.709699 0.521028 0.076637 0.073042
C14   C     C_R   0.238012 0.670352 0.967343 0.158393
C15   C     C_R   0.810273 0.429980 0.015540 0.173967
C16   C     C_R   0.491187 0.520746 0.944735 0.067688
C17   C     C_R   0.555693 0.577244 0.039208 0.048746
C18   C     C_R   0.464965 0.688703 0.092787 -0.198292
C19   C     C_R   0.596029 0.432850 0.884511 -0.229616
C20   C     C_R   0.309396 0.735216 0.056736 -0.224309
C21   C     C_R   0.753645 0.389882 0.919388 -0.210107
C22   C     C_2   0.060633 0.953137 0.454495 0.072936
C23   C     C_2   0.923015 0.037851 0.455037 0.115715
C24   C     C_R   0.063629 0.513898 0.681917 0.847193
H1    H     H_    0.244912 0.822630 0.098909 0.178229
H2    H     H_    0.562529 0.399921 0.808742 0.155998
H3    H     H_    0.486310 0.376359 0.425289 0.257248
H4    H     H_    0.513841 0.625251 0.573876 0.197348
H5    H     H_    0.184379 0.799998 0.279328 0.341086
H6    H     H_    0.586493 0.107031 0.272868 0.397337
H7    H     H_    0.830034 0.322242 0.871312 0.148895
H8    H     H_    0.678777 0.597610 0.226032 0.197199
H9    H     H_    0.299864 0.392896 0.785297 0.150204
H10   H     H_    0.130436 0.358301 0.178968 0.197122
H11   H     H_    0.901005 0.707704 0.807396 0.159820
H12   H     H_    0.013851 0.805402 0.971547 0.151494
H13   H     H_    0.044726 0.311438 0.005348 0.146016
H14   H     H_    0.514691 0.747682 0.161141 0.213332
N1    N     N_2   0.440860 0.456490 0.474790 -0.125226
N2    N     N_2   0.559140 0.543510 0.525210 -0.146668
O1    O     O_R   0.891570 0.738930 0.506190 -0.595684
O2    O     O_2   0.382253 0.070914 0.449544 -0.229966
O3    O     O_3   0.289533 0.841416 0.318414 -0.500697
O4    O     O_2   0.825686 0.902285 0.278495 -0.363504
O5    O     O_2   0.626669 0.865703 0.407449 -0.205816
O6    O     O_3   0.659319 0.144360 0.331916 -0.526495
O7    O     O_R   0.108430 0.261070 0.493810 -0.575574
O8    O     O_R   0.174650 0.711050 0.490030 -0.556997
O9    O     O_R   0.825350 0.288950 0.509970 -0.570580
O10   O     O_R   0.909850 0.521900 0.644940 -0.626433
O11   O     O_R   0.090150 0.478100 0.355060 -0.597896
O12   O     O_R   0.192930 0.494020 0.628780 -0.623070
O13   O     O_R   0.807070 0.505980 0.371220 -0.585041
O14   O     O_2   0.190103 0.128835 0.312151 -0.315583
S1    S     S_3+6 0.234490 0.004618 0.381944 0.078174
S2    S     S_3+6 0.754550 0.982026 0.366187 0.066844
Zn1   Zn    Zn3+2 0.810990 0.518620 0.510790 1.024970
Zn2   Zn    Zn3+2 0.189010 0.481380 0.489210 1.050545

loop_
_geom_bond_atom_site_label_1
_geom_bond_atom_site_label_2
_ccdc_geom_bond_type
C24   O12   A    
C2    C4    S    
C10   C13   A    
C1    O8    A    
O8    Zn2   S    
C22   S1    S    
C3    C9    A    
C10   H8    S    
O2    S1    D    
C9    C11   A    
C11   C16   A    
O4    S2    D    
C18   C20   A    
C13   C17   A    
C4    C8    A    
C17   C18   A    
C18   H14   S    
C6    H13   S    
O1    Zn1   S    
C23   S2    S    
O11   Zn2   S    
C8    H10   S    
H5    O3    S    
O7    Zn2   S    
C9    H9    S    
C21   H7    S    
C12   C23   S    
C7    H11   S    
C3    C24   S    
O12   Zn2   S    
C12   O7    A    
N1    Zn2   S    
O3    S1    S    
C19   C21   A    
C12   O9    A    
C3    C7    A    
C13   C15   A    
C24   O10   A    
C11   C14   A    
C2    O11   A    
H4    N2    S    
C4    C10   A    
C5    H12   S    
C14   C20   A    
C15   C21   A    
O9    Zn1   S    
C20   H1    S    
O6    S2    S    
N1    N2    D    
C5    C7    A    
C19   H2    S    
O13   Zn1   S    
C22   C23   D    
C1    C22   S    
C6    C8    A    
N2    Zn1   S    
C6    C15   A    
O14   S1    D    
O10   Zn1   S    
C5    C14   A    
H6    O6    S    
C1    O1    A    
O5    S2    D    
H3    N1    S    
C16   C17   A    
C2    O13   A    
C16   C19   A    
