data_mof_unit_39789.cif
_audit_creation_date              2012-12-11T14:58:26-0500
_audit_creation_method            fapswitch 2.2
_symmetry_space_group_name_H-M    P1
_symmetry_Int_Tables_number       1
_space_group_crystal_system       triclinic
_cell_length_a                    10.840804
_cell_length_b                    10.918761
_cell_length_c                    18.792765
_cell_angle_alpha                 90.296153
_cell_angle_beta                  90.502694
_cell_angle_gamma                 60.284818
_cell_volume                      1931.87289294

loop_
_atom_site_label
_atom_site_type_symbol
_atom_type_description
_atom_site_fract_x
_atom_site_fract_y
_atom_site_fract_z
_atom_type_partial_charge
C1    C     C_R   0.356524 0.776637 0.398395 0.537856
C2    C     C_R   0.577339 0.060862 0.186559 0.016944
C3    C     C_R   0.323591 0.279431 0.176301 -0.006859
C4    C     C_R   0.441970 0.196113 0.288798 -0.144059
C5    C     C_R   0.443162 0.179149 0.216101 -0.034244
C6    C     C_R   0.088464 0.681559 0.291359 -0.118792
C7    C     C_R   0.988227 0.806565 0.323999 -0.055854
C8    C     C_R   0.635135 0.924753 0.215746 -0.109164
C9    C     C_R   0.770333 0.818725 0.196258 -0.164547
C10   C     C_R   0.211620 0.395215 0.210936 -0.158112
C11   C     C_R   0.219972 0.418870 0.283001 -0.028022
C12   C     C_R   0.380434 0.350200 0.390779 0.529035
C13   C     C_R   0.905125 0.802302 0.379399 0.229291
C14   C     C_R   0.921419 0.673067 0.401707 -0.078292
C15   C     C_R   0.021734 0.547764 0.369235 -0.109221
C16   C     C_R   0.107048 0.551266 0.314424 0.027807
C17   C     C_R   0.339427 0.319420 0.321874 -0.000971
C18   C     C_R   0.803713 0.255911 0.289919 -0.137411
C19   C     C_R   0.847875 0.232827 0.219980 -0.153708
C20   C     C_R   0.838926 0.344300 0.179513 0.024326
C21   C     C_R   0.778895 0.479789 0.208198 -0.146422
C22   C     C_R   0.742492 0.501400 0.279264 -0.156018
C23   C     C_R   0.715108 0.414081 0.394707 0.548557
C24   C     C_R   0.755846 0.389287 0.320592 0.020621
C25   C     C_R   0.405297 0.731642 0.271944 -0.148061
C26   C     C_R   0.391135 0.775691 0.201801 -0.122206
C27   C     C_R   0.311516 0.919273 0.185866 0.029965
C28   C     C_R   0.248262 0.018724 0.240618 -0.152771
C29   C     C_R   0.266513 0.974468 0.311442 -0.135729
C30   C     C_R   0.345184 0.830451 0.326862 0.032136
C31   C     C_R   0.388591 0.198073 0.693819 -0.144807
C32   C     C_R   0.380617 0.185949 0.766056 -0.133178
C33   C     C_R   0.297774 0.305732 0.808104 0.039749
C34   C     C_R   0.343845 0.770221 0.604606 0.554465
C35   C     C_R   0.214621 0.437067 0.776296 -0.149258
C36   C     C_R   0.225608 0.450047 0.703487 -0.145177
C37   C     C_R   0.318385 0.331086 0.662921 0.032502
C38   C     C_R   0.757088 0.473196 0.733188 0.224736
C39   C     C_R   0.755134 0.460711 0.805982 -0.121315
C40   C     C_R   0.811132 0.328343 0.836835 -0.062740
C41   C     C_R   0.843663 0.210191 0.794330 -0.142199
C42   C     C_R   0.827059 0.223863 0.719947 0.222991
C43   C     C_R   0.789039 0.355558 0.688933 0.041317
C44   C     C_R   0.204030 0.821530 0.714060 -0.105166
C45   C     C_R   0.367928 0.350309 0.595083 0.537435
C46   C     C_R   0.197354 0.831726 0.787312 -0.138241
C47   C     C_R   0.303231 0.842243 0.825164 0.023487
C48   C     C_R   0.417435 0.839309 0.788819 -0.124649
C49   C     C_R   0.421412 0.833841 0.715269 -0.106454
C50   C     C_R   0.317800 0.819738 0.677649 0.034563
C51   C     C_R   0.908765 0.316161 0.111377 0.532773
C52   C     C_R   0.303646 0.257779 0.101582 0.543896
C53   C     C_R   0.272702 0.962546 0.112445 0.534217
C54   C     C_R   0.877412 0.310522 0.906345 0.557761
C55   C     C_R   0.292514 0.284453 0.883622 0.560883
C56   C     C_R   0.757961 0.380194 0.612542 0.591051
C57   C     C_R   0.276427 0.892632 0.898000 0.553517
C58   C     C_R   0.845085 0.842825 0.143402 -0.106981
C59   C     C_R   0.787093 0.976637 0.111801 0.264756
C60   C     C_R   0.659926 0.087329 0.138191 -0.025521
Cr1   Cr    Cr6+3 0.601770 0.606860 0.505860 1.032261
Cr2   Cr    Cr6+3 0.291380 0.601660 0.495070 1.035950
Cr3   Cr    Cr6+3 0.606880 0.291510 0.499120 1.113426
Cr4   Cr    Cr6+3 0.062440 0.063090 0.008210 1.041266
Cr5   Cr    Cr6+3 0.062880 0.375170 0.998920 0.993263
Cr6   Cr    Cr6+3 0.374700 0.061720 0.992470 1.006550
H1    H     H_    0.532752 0.117998 0.318647 0.188820
H2    H     H_    0.857654 0.669669 0.444803 0.155132
H3    H     H_    0.034778 0.448057 0.387490 0.129237
H4    H     H_    0.812457 0.168129 0.320426 0.174240
H5    H     H_    0.894429 0.126842 0.198796 0.151036
H6    H     H_    0.764695 0.567194 0.175807 0.136002
H7    H     H_    0.702478 0.605776 0.301787 0.135368
H8    H     H_    0.458402 0.619850 0.283402 0.112516
H9    H     H_    0.435352 0.697746 0.159736 0.134948
H10   H     H_    0.181438 0.129531 0.228346 0.104443
H11   H     H_    0.818979 0.718696 0.223466 0.121647
H12   H     H_    0.216123 0.051187 0.353540 0.121638
H13   H     H_    0.458733 0.105150 0.663218 0.119910
H14   H     H_    0.442549 0.082263 0.789104 0.127917
H15   H     H_    0.146798 0.529385 0.807787 0.107786
H16   H     H_    0.169443 0.554263 0.680094 0.122817
H17   H     H_    0.727289 0.553246 0.838373 0.146304
H18   H     H_    0.891550 0.106494 0.818209 0.133190
H19   H     H_    0.122179 0.810362 0.686306 0.147709
H20   H     H_    0.976089 0.906234 0.306462 0.128195
H21   H     H_    0.106955 0.836159 0.813905 0.109386
H22   H     H_    0.500420 0.847867 0.816998 0.123851
H23   H     H_    0.507334 0.836668 0.687890 0.164815
H24   H     H_    0.948858 0.758494 0.128165 0.114631
H25   H     H_    0.622789 0.193332 0.118788 0.144810
H26   H     H_    0.153419 0.686012 0.249099 0.122320
H27   H     H_    0.578501 0.902508 0.256230 0.136895
H28   H     H_    0.117787 0.470180 0.181690 0.144433
O1    O     O_R   0.748800 0.497470 0.428000 -0.541245
O2    O     O_R   0.300070 0.471040 0.567100 -0.514871
O3    O     O_R   0.491670 0.258900 0.574910 -0.499632
O4    O     O_R   0.718780 0.304180 0.577850 -0.444305
O5    O     O_3   0.500010 0.500010 0.500020 -0.288643
O6    O     O_R   0.186690 0.923650 0.086970 -0.485871
O7    O     O_R   0.957250 0.194250 0.084630 -0.474992
O8    O     O_R   0.934970 0.407490 0.085330 -0.541347
O9    O     O_R   0.203780 0.365190 0.067090 -0.506575
O10   O     O_R   0.417600 0.174890 0.067840 -0.518930
O11   O     O_R   0.375320 0.946260 0.070860 -0.507452
O12   O     O_R   0.476420 0.724060 0.429470 -0.516957
O13   O     O_R   0.160600 0.919630 0.926660 -0.531465
O14   O     O_R   0.933060 0.190520 0.936020 -0.490890
O15   O     O_R   0.908880 0.403460 0.925020 -0.523877
O16   O     O_R   0.179600 0.361450 0.918490 -0.497351
O17   O     O_R   0.391510 0.170860 0.907530 -0.527701
O18   O     O_R   0.351130 0.942530 0.922260 -0.508667
O19   O     O_3   0.166667 0.166667 0.999870 -0.283287
O20   O     O_R   0.264580 0.744340 0.416750 -0.493765
O21   O     O_R   0.309380 0.472470 0.418200 -0.499083
O22   O     O_R   0.501710 0.260430 0.414300 -0.485101
O23   O     O_R   0.728090 0.305600 0.428960 -0.465328
O24   O     O_R   0.738760 0.495930 0.588610 -0.480963
O25   O     O_R   0.467110 0.722640 0.578360 -0.487273
O26   O     O_R   0.254530 0.742800 0.577360 -0.515340
Cl1   Cl    Cl    0.782242 0.958391 0.421787 -0.642052
O27   O     O_3   0.721179 0.603959 0.705868 -0.559097
C61   C     C_3   0.842041 0.620717 0.708405 -0.121740
H29   H     H_    0.931031 0.536722 0.677384 0.139414
H30   H     H_    0.876208 0.622639 0.764205 0.102216
H31   H     H_    0.814427 0.723358 0.683802 0.116999
O28   O     O_3   0.864407 0.107759 0.676265 -0.541636
C62   C     C_3   0.797975 0.031356 0.698558 -0.102339
H32   H     H_    0.795540 0.967496 0.653040 0.152632
H33   H     H_    0.686095 0.101495 0.715298 0.122727
H34   H     H_    0.860014 0.957098 0.741996 0.076071
O29   O     O_3   0.856373 0.004382 0.058197 -0.543388
C63   C     C_3   0.874600 0.916676 0.999091 -0.076415
H35   H     H_    0.777081 0.910474 0.986578 0.084920
H36   H     H_    0.966924 0.809526 0.007590 0.105673
H37   H     H_    0.897115 0.961942 0.951616 0.153723

loop_
_geom_bond_atom_site_label_1
_geom_bond_atom_site_label_2
_ccdc_geom_bond_type
C33   C55   S    
Cr3   O4    S    
C52   O9    A    
C40   C41   A    
Cr6   O19   S    
Cr2   O2    S    
Cr1   O25   S    
C41   C42   A    
C19   H5    S    
C35   C36   A    
C56   O4    A    
C62   H32   S    
C35   H15   S    
C61   H29   S    
C51   O8    A    
C26   C27   A    
C18   C24   A    
C28   C29   A    
C18   C19   A    
C20   C51   S    
C38   C39   A    
Cr3   O23   S    
C2    C60   A    
C61   H30   S    
C57   O18   A    
C47   C57   S    
C10   H28   S    
C15   C16   A    
C34   O25   A    
Cr2   O21   S    
C25   H8    S    
Cr3   O5    S    
C11   C17   A    
C29   H12   S    
C19   C20   A    
C36   H16   S    
O29   C63   S    
C12   C17   S    
C63   H37   S    
C23   C24   S    
C48   H22   S    
Cr6   O17   S    
Cr2   O26   S    
C1    O12   A    
C12   O21   A    
C59   C60   A    
C21   C22   A    
Cr1   O5    S    
C56   O24   A    
Cr5   O8    S    
C44   C46   A    
Cr4   O14   S    
C53   O6    A    
C34   O26   A    
Cr4   O7    S    
C15   H3    S    
C59   O29   S    
C34   C50   S    
C21   H6    S    
Cr6   O10   S    
C39   C40   A    
C8    C9    A    
C61   H31   S    
C58   C59   A    
C41   H18   S    
C31   C37   A    
C54   O15   A    
C29   C30   A    
C32   H14   S    
C13   Cl1   S    
C11   C16   S    
C47   C48   A    
C7    C13   A    
C27   C53   S    
C26   H9    S    
C9    H11   S    
C31   H13   S    
Cr1   O12   S    
C58   H24   S    
Cr5   O15   S    
C38   O27   S    
C42   O28   S    
Cr3   O22   S    
C48   C49   A    
C57   O13   A    
C40   C54   S    
C55   O16   A    
C52   O10   A    
C63   H35   S    
C22   C24   A    
C2    C5    S    
C1    O20   A    
C4    C17   A    
Cr6   O11   S    
C37   C45   S    
O28   C62   S    
C28   H10   S    
C62   H34   S    
Cr4   O13   S    
C46   H21   S    
C60   H25   S    
C44   C50   A    
C25   C30   A    
C46   C47   A    
C9    C58   A    
C14   H2    S    
Cr4   O19   S    
C55   O17   A    
Cr1   O24   S    
Cr5   O19   S    
C31   C32   A    
C2    C8    A    
C8    H27   S    
C49   H23   S    
C4    C5    A    
C3    C5    A    
C62   H33   S    
C23   O23   A    
C4    H1    S    
C3    C52   S    
Cr1   O1    S    
Cr2   O20   S    
C6    C7    A    
C51   O7    A    
C18   H4    S    
C54   O14   A    
C32   C33   A    
C25   C26   A    
C39   H17   S    
C38   C43   A    
Cr3   O3    S    
C3    C10   A    
C45   O3    A    
C6    H26   S    
C1    C30   S    
C33   C35   A    
C23   O1    A    
Cr5   O16   S    
C10   C11   A    
C6    C16   A    
Cr2   O5    S    
C7    H20   S    
C53   O11   A    
C43   C56   S    
Cr4   O6    S    
C20   C21   A    
C36   C37   A    
C49   C50   A    
C42   C43   A    
C27   C28   A    
C63   H36   S    
Cr5   O9    S    
C14   C15   A    
C22   H7    S    
Cr6   O18   S    
O27   C61   S    
C13   C14   A    
C45   O2    A    
C44   H19   S    
C12   O22   A    
