data_mof_unit_31757.cif
_audit_creation_date              2012-12-10T17:08:11-0500
_audit_creation_method            fapswitch 2.2
_symmetry_space_group_name_H-M    P1
_symmetry_Int_Tables_number       1
_space_group_crystal_system       triclinic
_cell_length_a                    18.432473
_cell_length_b                    18.238594
_cell_length_c                    34.291043
_cell_angle_alpha                 90.071923
_cell_angle_beta                  89.995632
_cell_angle_gamma                 89.580977
_cell_volume                      11527.7274307

loop_
_atom_site_label
_atom_site_type_symbol
_atom_type_description
_atom_site_fract_x
_atom_site_fract_y
_atom_site_fract_z
_atom_type_partial_charge
C1    C     C_R   1.000000 0.499993 0.894334 0.971486
C2    C     C_R   0.048955 0.545358 0.790886 -0.007264
C3    C     C_R   0.759049 0.812179 0.895245 -0.082680
C4    C     C_R   0.811044 0.756880 0.895116 -0.131450
C5    C     C_R   0.625586 0.331873 0.924826 -0.114404
C6    C     C_R   0.179879 0.233434 0.897498 -0.128779
C7    C     C_R   0.373860 0.668534 0.923999 -0.113344
C8    C     C_R   0.836974 0.113359 0.432298 -0.132918
C9    C     C_R   0.727551 0.672804 0.399672 -0.088678
C10   C     C_R   0.162068 0.887415 0.433224 -0.131866
C11   C     C_R   0.265065 0.318908 0.397133 -0.089100
C12   C     C_R   0.316701 0.263093 0.396878 -0.107849
C13   C     C_R   0.445400 0.961372 0.790865 -0.015740
C14   C     C_R   0.132790 0.822830 0.419011 -0.108318
C15   C     C_R   0.676188 0.728859 0.399214 -0.108194
C16   C     C_R   0.866161 0.178059 0.418276 -0.107846
C17   C     C_R   0.307795 0.742578 0.972322 0.036795
C18   C     C_R   0.208703 0.262858 0.965528 0.061054
C19   C     C_R   0.691946 0.257550 0.972615 0.038051
C20   C     C_R   0.788456 0.734149 0.964519 0.063498
C21   C     C_R   0.734693 0.789514 0.964367 0.028016
C22   C     C_R   0.733732 0.319381 0.982177 0.058484
C23   C     C_R   0.262205 0.207269 0.965403 0.028124
C24   C     C_R   0.950995 0.454736 0.790823 -0.007635
C25   C     C_R   0.266253 0.680591 0.981873 0.059287
C26   C     C_R   0.804514 0.246420 0.470236 0.036567
C27   C     C_R   0.707756 0.761568 0.466255 0.049699
C28   C     C_R   0.195105 0.753911 0.470499 0.037633
C29   C     C_R   0.290030 0.235966 0.465233 0.051962
C30   C     C_R   0.236694 0.291672 0.465175 0.026758
C31   C     C_R   0.235563 0.816870 0.479614 0.059745
C32   C     C_R   0.760956 0.705742 0.466319 0.027551
C33   C     C_R   0.764109 0.183415 0.479245 0.060029
C34   C     C_R   0.204106 0.689347 0.005924 -0.257096
C35   C     C_R   0.059279 0.531112 0.290955 -0.011491
C36   C     C_R   0.304788 0.196386 0.999225 -0.221565
C37   C     C_R   0.796112 0.310454 0.005902 -0.257462
C38   C     C_R   0.695369 0.803800 0.998992 -0.221405
C39   C     C_R   0.806466 0.699570 0.000361 -0.232454
C40   C     C_R   0.702259 0.191602 0.994124 -0.260463
C41   C     C_R   0.194521 0.301534 0.000718 -0.232547
C42   C     C_R   0.297625 0.808433 0.994112 -0.260244
C43   C     C_R   0.704150 0.189634 0.505152 -0.257688
C44   C     C_R   0.805212 0.696813 0.499495 -0.223294
C45   C     C_R   0.295825 0.810460 0.505276 -0.257928
C46   C     C_R   0.519244 0.064776 0.290946 -0.002276
C47   C     C_R   0.195067 0.303533 0.499183 -0.222486
C48   C     C_R   0.305327 0.198386 0.500503 -0.230639
C49   C     C_R   0.203361 0.690281 0.493980 -0.261479
C50   C     C_R   0.695202 0.802287 0.500834 -0.230111
C51   C     C_R   0.796565 0.309812 0.493967 -0.261882
C52   C     C_R   0.195072 0.754497 0.028031 0.230339
C53   C     C_R   0.294259 0.238943 0.033156 0.244219
C54   C     C_R   0.805414 0.245095 0.027684 0.233333
C55   C     C_R   0.710325 0.765772 0.033784 0.241856
C56   C     C_R   0.773535 0.722804 0.035934 0.223628
C57   C     C_R   0.940664 0.468811 0.290903 -0.011557
C58   C     C_R   0.764783 0.183072 0.017663 0.237089
C59   C     C_R   0.231833 0.283323 0.035913 0.233609
C60   C     C_R   0.235408 0.816698 0.018027 0.236615
C61   C     C_R   0.696743 0.252902 0.528832 0.235193
C62   C     C_R   0.797095 0.742029 0.532566 0.239260
C63   C     C_R   0.303474 0.747038 0.528753 0.236820
C64   C     C_R   0.206010 0.261431 0.533081 0.240103
C65   C     C_R   0.268343 0.216921 0.535662 0.241336
C66   C     C_R   0.263891 0.684007 0.519243 0.240799
C67   C     C_R   0.735172 0.787335 0.535434 0.248103
C68   C     C_R   0.479470 0.935392 0.290819 -0.002036
C69   C     C_R   0.736275 0.315954 0.519416 0.241285
C70   C     C_R   0.441296 0.967554 0.831801 0.332157
C71   C     C_R   0.957283 0.448229 0.831594 0.284043
C72   C     C_R   0.558743 0.032103 0.831832 0.330669
C73   C     C_R   0.042664 0.551825 0.831672 0.283188
C74   C     C_R   0.938006 0.474061 0.331973 0.330039
C75   C     C_R   0.479603 0.935007 0.332110 0.298255
C76   C     C_R   0.062018 0.525647 0.331997 0.327455
C77   C     C_R   0.519171 0.065026 0.332236 0.298013
C78   C     C_R   0.499953 0.999949 0.770499 -0.048235
C79   C     C_R   0.999982 0.500045 0.770473 -0.042612
C80   C     C_R   0.999957 0.500005 0.270539 -0.049373
C81   C     C_R   0.500001 0.999955 0.894260 1.082479
C82   C     C_R   0.499445 0.000084 0.270508 -0.048403
C83   C     C_R   0.603810 0.081724 0.769627 -0.069962
C84   C     C_R   0.102400 0.583241 0.769769 -0.076352
C85   C     C_R   0.396095 0.918123 0.769484 -0.069872
C86   C     C_R   0.897536 0.416890 0.769655 -0.076762
C87   C     C_R   0.114583 0.566489 0.269502 -0.067620
C88   C     C_R   0.538581 0.127849 0.269192 -0.070416
C89   C     C_R   0.885319 0.433570 0.269375 -0.067697
C90   C     C_R   0.460009 0.872383 0.268923 -0.069526
C91   C     C_R   0.112752 0.568896 0.229018 -0.191531
C92   C     C_R   0.499957 0.999815 0.394393 0.977003
C93   C     C_R   0.539130 0.127133 0.228744 -0.204109
C94   C     C_R   0.887133 0.431275 0.228897 -0.193774
C95   C     C_R   0.459828 0.873070 0.228460 -0.203624
C96   C     C_R   0.601339 0.084349 0.729139 -0.189642
C97   C     C_R   0.104630 0.579967 0.729260 -0.198853
C98   C     C_R   0.398519 0.915654 0.728985 -0.190841
C99   C     C_R   0.895338 0.420140 0.729152 -0.199102
C100  C     C_R   0.056296 0.535280 0.208747 0.106747
C101  C     C_R   0.519975 0.063790 0.208548 0.114943
C102  C     C_R   0.943594 0.464912 0.208679 0.108856
C103  C     C_R   0.999996 0.499958 0.394268 1.089262
C104  C     C_R   0.479315 0.936372 0.208418 0.115110
C105  C     C_R   0.550451 0.042995 0.708806 0.103053
C106  C     C_R   0.052942 0.539773 0.708883 0.107544
C107  C     C_R   0.449375 0.957114 0.708730 0.103863
C108  C     C_R   0.947057 0.460293 0.708833 0.107633
C109  C     C_R   0.999945 0.500073 0.229376 0.117403
C110  C     C_R   0.499584 0.000085 0.229231 0.111767
C111  C     C_R   0.499922 0.000025 0.729386 0.120554
C112  C     C_R   0.999993 0.500040 0.729420 0.118523
C113  C     C_R   0.055202 0.536360 0.168066 -0.172137
C114  C     C_R   0.500014 0.999853 0.851993 -0.336677
C115  C     C_R   0.520683 0.063226 0.167849 -0.195090
C116  C     C_R   0.944713 0.463875 0.167999 -0.177863
C117  C     C_R   0.478969 0.936885 0.167715 -0.192776
C118  C     C_R   0.549128 0.043992 0.668155 -0.174489
C119  C     C_R   0.053495 0.538364 0.668249 -0.193934
C120  C     C_R   0.450690 0.956225 0.668083 -0.176986
C121  C     C_R   0.946535 0.461653 0.668202 -0.195038
C122  C     C_R   0.999966 0.500118 0.147930 -0.022893
C123  C     C_R   0.499934 0.000032 0.147711 -0.015939
C124  C     C_R   0.499920 0.000119 0.647986 -0.035749
C125  C     C_R   0.999991 0.500007 0.851919 -0.339154
C126  C     C_R   0.000016 0.500002 0.648018 -0.030573
C127  C     C_R   0.000010 0.500041 0.105746 0.844162
C128  C     C_R   0.499992 0.000027 0.105582 0.836426
C129  C     C_R   0.499993 0.000041 0.605755 0.860803
C130  C     C_R   0.000002 0.499997 0.605682 0.849599
C131  C     C_R   0.859914 0.640185 0.000587 0.845313
C132  C     C_R   0.357164 0.862398 0.997562 0.874730
C133  C     C_R   0.140368 0.360212 0.000743 0.857619
C134  C     C_R   0.642769 0.137632 0.997598 0.878319
C135  C     C_R   0.143171 0.637066 0.002502 0.887979
C136  C     C_R   0.000013 0.499863 0.352082 -0.337207
C137  C     C_R   0.639885 0.860281 0.999558 0.923933
C138  C     C_R   0.856907 0.362873 0.002465 0.883357
C139  C     C_R   0.360107 0.139694 0.999602 0.925740
C140  C     C_R   0.359762 0.139965 0.500590 0.856168
C141  C     C_R   0.856905 0.362800 0.497484 0.870052
C142  C     C_R   0.640428 0.860347 0.500745 0.863758
C143  C     C_R   0.143077 0.637204 0.497496 0.869849
C144  C     C_R   0.643206 0.137157 0.502335 0.898924
C145  C     C_R   0.139882 0.360296 0.499590 0.926612
C146  C     C_R   0.356789 0.862899 0.502356 0.895025
C147  C     C_R   0.499697 0.999886 0.352224 -0.314793
C148  C     C_R   0.860347 0.639941 0.499802 0.926853
C149  C     C_R   0.289558 0.611125 0.967650 -0.059051
C150  C     C_R   0.272328 0.164389 0.931267 -0.099217
C151  C     C_R   0.710482 0.388870 0.968264 -0.060470
C152  C     C_R   0.721388 0.828891 0.929448 -0.100318
C153  C     C_R   0.826413 0.718701 0.929381 -0.113588
C154  C     C_R   0.642768 0.263880 0.940911 -0.037971
C155  C     C_R   0.167711 0.275123 0.931069 -0.114196
C156  C     C_R   0.356644 0.736496 0.940375 -0.039539
C157  C     C_R   0.786651 0.115677 0.462595 -0.063395
C158  C     C_R   0.554548 0.038430 0.790918 -0.015855
C159  C     C_R   0.769368 0.660831 0.432876 -0.097280
C160  C     C_R   0.212801 0.884789 0.463334 -0.063869
C161  C     C_R   0.225581 0.333536 0.430874 -0.098666
C162  C     C_R   0.329539 0.222311 0.430470 -0.109851
C163  C     C_R   0.149006 0.756581 0.437353 -0.039669
C164  C     C_R   0.665809 0.772508 0.432122 -0.108480
C165  C     C_R   0.850267 0.244086 0.436960 -0.040955
C166  C     C_R   0.342783 0.605461 0.938909 -0.120453
C167  C     C_R   0.231712 0.177879 0.897678 -0.080176
C168  C     C_R   0.656997 0.394751 0.939780 -0.119679
H1    H     H_    0.268659 0.560413 0.979288 0.153573
H2    H     H_    0.808287 0.616281 0.431882 0.167553
H3    H     H_    0.231784 0.936713 0.474405 0.159703
H4    H     H_    0.186341 0.377787 0.429649 0.170920
H5    H     H_    0.371278 0.180865 0.428762 0.129726
H6    H     H_    0.127111 0.707717 0.424208 0.200300
H7    H     H_    0.623906 0.813875 0.430617 0.124377
H8    H     H_    0.872144 0.293075 0.424002 0.201136
H9    H     H_    0.358698 0.552189 0.927617 0.148662
H10   H     H_    0.240461 0.144942 0.871725 0.181061
H11   H     H_    0.641157 0.448049 0.928704 0.148630
H12   H     H_    0.311539 0.120094 0.930129 0.161958
H13   H     H_    0.747932 0.842472 0.868726 0.177725
H14   H     H_    0.840489 0.744246 0.868538 0.159001
H15   H     H_    0.586947 0.335775 0.901127 0.158529
H16   H     H_    0.148229 0.243681 0.871390 0.160248
H17   H     H_    0.412300 0.664800 0.900134 0.158643
H18   H     H_    0.852228 0.061412 0.419222 0.151497
H19   H     H_    0.735103 0.638434 0.374213 0.193188
H20   H     H_    0.146608 0.939506 0.420424 0.151073
H21   H     H_    0.255509 0.351014 0.371107 0.190194
H22   H     H_    0.347465 0.251760 0.370618 0.191740
H23   H     H_    0.731677 0.439434 0.979915 0.152250
H24   H     H_    0.096315 0.824129 0.394243 0.160697
H25   H     H_    0.643626 0.738043 0.373411 0.194106
H26   H     H_    0.902351 0.177012 0.393389 0.160976
H27   H     H_    0.643754 0.115510 0.783834 0.224950
H28   H     H_    0.144319 0.613990 0.784224 0.216800
H29   H     H_    0.356160 0.884241 0.783628 0.225120
H30   H     H_    0.855589 0.386173 0.784063 0.216900
H31   H     H_    0.159330 0.594180 0.283468 0.227540
H32   H     H_    0.553830 0.179039 0.282643 0.230753
H33   H     H_    0.840538 0.405912 0.283287 0.227689
H34   H     H_    0.682187 0.873159 0.928138 0.165119
H35   H     H_    0.444438 0.821197 0.282238 0.230546
H36   H     H_    0.156069 0.596635 0.213533 0.177421
H37   H     H_    0.554438 0.176573 0.213192 0.173778
H38   H     H_    0.843807 0.403608 0.213343 0.176356
H39   H     H_    0.444480 0.823638 0.212812 0.173323
H40   H     H_    0.639868 0.118272 0.713686 0.181017
H41   H     H_    0.146442 0.609548 0.713837 0.173380
H42   H     H_    0.359994 0.881741 0.713475 0.180619
H43   H     H_    0.853530 0.390567 0.713689 0.173566
H44   H     H_    0.097991 0.563859 0.152004 0.183630
H45   H     H_    0.869562 0.678603 0.927896 0.137022
H46   H     H_    0.536422 0.111980 0.151768 0.159932
H47   H     H_    0.901955 0.436368 0.151878 0.181149
H48   H     H_    0.463273 0.888153 0.151521 0.159122
H49   H     H_    0.587401 0.077368 0.652126 0.194146
H50   H     H_    0.094434 0.568411 0.652319 0.172324
H51   H     H_    0.412437 0.922853 0.651996 0.193520
H52   H     H_    0.905607 0.431584 0.652238 0.172502
H53   H     H_    0.233503 0.796620 0.109112 0.347097
H54   H     H_    0.368605 0.363537 0.072780 0.351186
H55   H     H_    0.769369 0.201248 0.108795 0.348007
H56   H     H_    0.619356 0.216851 0.926810 0.208380
H57   H     H_    0.646481 0.645552 0.081591 0.352499
H58   H     H_    0.788450 0.809624 0.111552 0.383176
H59   H     H_    0.908867 0.113378 0.003901 0.358516
H60   H     H_    0.222775 0.215349 0.119636 0.379413
H61   H     H_    0.090861 0.886121 0.005256 0.358230
H62   H     H_    0.740775 0.288443 0.609854 0.347842
H63   H     H_    0.878272 0.867262 0.565227 0.352161
H64   H     H_    0.260102 0.711219 0.609859 0.347909
H65   H     H_    0.130615 0.137526 0.571596 0.352621
H66   H     H_    0.278601 0.282232 0.620520 0.379118
H67   H     H_    0.124931 0.315731 0.929734 0.132460
H68   H     H_    0.409358 0.613909 0.510896 0.358751
H69   H     H_    0.729469 0.736614 0.624118 0.381215
H70   H     H_    0.590685 0.386279 0.511652 0.359189
H71   H     H_    0.313060 0.948370 0.914304 0.385222
H72   H     H_    0.008874 0.333835 0.889539 0.329782
H73   H     H_    0.687728 0.049835 0.914289 0.386320
H74   H     H_    0.990698 0.665850 0.889769 0.330144
H75   H     H_    0.816450 0.450927 0.417108 0.378478
H76   H     H_    0.507425 0.843083 0.414510 0.323093
H77   H     H_    0.181978 0.548981 0.417391 0.379190
H78   H     H_    0.379805 0.783737 0.926358 0.208722
H79   H     H_    0.490340 0.156849 0.414745 0.324161
H80   H     H_    0.767896 0.063629 0.473524 0.161481
O1    O     O_3   0.000000 0.500000 0.999990 -0.550556
O2    O     O_R   0.000000 0.560750 0.412560 -0.618382
O3    O     O_3   0.609537 0.400709 0.537557 -0.414899
O4    O     O_2   0.295094 0.962197 0.834102 -0.272093
O5    O     O_2   0.362355 0.856531 0.859973 -0.321457
O6    O     O_3   0.353538 0.975057 0.902059 -0.612469
O7    O     O_2   0.839969 0.391475 0.865999 -0.240898
O8    O     O_2   0.917745 0.305615 0.831130 -0.277243
O9    O     O_3   0.960396 0.351027 0.897854 -0.549894
O10   O     O_2   0.704851 0.037271 0.834024 -0.270201
O11   O     O_2   0.637990 0.142582 0.860421 -0.319991
O12   O     O_3   0.646859 0.023792 0.901914 -0.610564
O13   O     O_R   0.439250 0.000000 0.412560 -0.602703
O14   O     O_2   0.159880 0.608718 0.866210 -0.240906
O15   O     O_2   0.082041 0.694508 0.831394 -0.276714
O16   O     O_3   0.039311 0.649034 0.898067 -0.549472
O17   O     O_2   0.792323 0.486234 0.336915 -0.280059
O18   O     O_2   0.847407 0.369235 0.356673 -0.321755
O19   O     O_3   0.854495 0.480183 0.404250 -0.616789
O20   O     O_2   0.379871 0.830988 0.346107 -0.237609
O21   O     O_2   0.507200 0.791863 0.345320 -0.333521
O22   O     O_3   0.457633 0.857674 0.406868 -0.534563
O23   O     O_2   0.207812 0.513309 0.336655 -0.275921
O24   O     O_R   1.000000 0.439250 0.412560 -0.617684
O25   O     O_2   0.152816 0.630098 0.357199 -0.322160
O26   O     O_3   0.145790 0.518180 0.404095 -0.616346
O27   O     O_2   0.617739 0.169984 0.346484 -0.237624
O28   O     O_2   0.490186 0.207788 0.345724 -0.332901
O29   O     O_3   0.540234 0.142475 0.407113 -0.535269
O30   O     O_R   1.000000 0.560690 0.087420 -0.591310
O31   O     O_R   0.439310 0.000000 0.087420 -0.611988
O32   O     O_R   1.000000 0.439310 0.087420 -0.590673
O33   O     O_R   0.560690 0.000000 0.087420 -0.608499
O34   O     O_R   0.500000 0.060690 0.587420 -0.591160
O35   O     O_R   0.939310 0.500000 0.587420 -0.619883
O36   O     O_R   0.500000 0.939310 0.587420 -0.591055
O37   O     O_3   0.500000 1.000000 0.999990 -0.541072
O38   O     O_R   0.060690 0.500000 0.587420 -0.617486
O39   O     O_R   0.853830 0.585440 0.977070 -0.677103
O40   O     O_R   0.414560 0.853830 0.977070 -0.659374
O41   O     O_R   0.146170 0.414560 0.977070 -0.676040
O42   O     O_R   0.585440 0.146170 0.977070 -0.657675
O43   O     O_R   0.146170 0.585440 0.977070 -0.628929
O44   O     O_R   0.585440 0.853830 0.977070 -0.651630
O45   O     O_R   0.853830 0.414560 0.977070 -0.628906
O46   O     O_R   0.414560 0.146170 0.977070 -0.645113
O47   O     O_R   0.353830 0.085440 0.477070 -0.678046
O48   O     O_3   0.500000 0.000000 0.499990 -0.546601
O49   O     O_R   0.914560 0.353830 0.477070 -0.657049
O50   O     O_R   0.646170 0.914560 0.477070 -0.676189
O51   O     O_R   0.085440 0.646170 0.477070 -0.656829
O52   O     O_R   0.646170 0.085440 0.477070 -0.635309
O53   O     O_R   0.085440 0.353830 0.477070 -0.643843
O54   O     O_R   0.353830 0.914560 0.477070 -0.634405
O55   O     O_R   0.914560 0.646170 0.477070 -0.639488
O56   O     O_R   0.085460 0.353830 0.022910 -0.558627
O57   O     O_R   0.646170 0.085460 0.022910 -0.575341
O58   O     O_R   0.914540 0.646170 0.022910 -0.557335
O59   O     O_3   0.000000 0.500000 0.499990 -0.538762
O60   O     O_R   0.353830 0.914540 0.022910 -0.575025
O61   O     O_R   0.914540 0.353830 0.022910 -0.570603
O62   O     O_R   0.353830 0.085460 0.022910 -0.577435
O63   O     O_R   0.085460 0.646170 0.022910 -0.570292
O64   O     O_R   0.646170 0.914540 0.022910 -0.573975
O65   O     O_R   0.585460 0.853830 0.522910 -0.562827
O66   O     O_R   0.146170 0.585460 0.522910 -0.573244
O67   O     O_R   0.414540 0.146170 0.522910 -0.560061
O68   O     O_R   0.853830 0.414540 0.522910 -0.572887
O69   O     O_R   0.414540 0.853830 0.522910 -0.572529
O70   O     O_R   0.060750 0.500000 0.912560 -0.591985
O71   O     O_R   0.853830 0.585460 0.522910 -0.581255
O72   O     O_R   0.585460 0.146170 0.522910 -0.571955
O73   O     O_R   0.146170 0.414540 0.522910 -0.578217
O74   O     O_2   0.068635 0.772945 0.066923 -0.145409
O75   O     O_2   0.151763 0.678220 0.091369 -0.319492
O76   O     O_3   0.182691 0.813503 0.105276 -0.432778
O77   O     O_2   0.359573 0.181884 0.096492 -0.239889
O78   O     O_2   0.438549 0.239932 0.048296 -0.341652
O79   O     O_3   0.362464 0.324973 0.093102 -0.424396
O80   O     O_2   0.932800 0.226666 0.065552 -0.151548
O81   O     O_R   0.500000 0.060750 0.912560 -0.614918
O82   O     O_2   0.849783 0.320206 0.091217 -0.321594
O83   O     O_3   0.819951 0.184548 0.104319 -0.431758
O84   O     O_2   0.648283 0.830277 0.096269 -0.233763
O85   O     O_2   0.568411 0.760285 0.053518 -0.341851
O86   O     O_3   0.653428 0.687730 0.099615 -0.426146
O87   O     O_2   0.814645 0.628532 0.093192 -0.278274
O88   O     O_2   0.895043 0.732729 0.080183 -0.206673
O89   O     O_3   0.779376 0.758076 0.118788 -0.406083
O90   O     O_2   0.772019 0.063962 0.064352 -0.176257
O91   O     O_2   0.781563 0.042501 0.994180 -0.314426
O92   O     O_R   0.939250 0.500000 0.912560 -0.592579
O93   O     O_3   0.892558 0.096301 0.029839 -0.413704
O94   O     O_2   0.199504 0.390826 0.088048 -0.289966
O95   O     O_2   0.117343 0.285041 0.085693 -0.221462
O96   O     O_3   0.238334 0.268374 0.121044 -0.401744
O97   O     O_2   0.228538 0.935197 0.065422 -0.175525
O98   O     O_2   0.217914 0.957667 0.995291 -0.313002
O99   O     O_3   0.107494 0.903222 0.031209 -0.412501
O100  O     O_2   0.573160 0.267742 0.570608 -0.155517
O101  O     O_2   0.657882 0.171411 0.591059 -0.321117
O102  O     O_3   0.689785 0.305452 0.607426 -0.442096
O103  O     O_R   0.500000 0.939250 0.912560 -0.615431
O104  O     O_2   0.861908 0.691854 0.597589 -0.232181
O105  O     O_2   0.941960 0.736808 0.546543 -0.336480
O106  O     O_3   0.872161 0.832721 0.587232 -0.418661
O107  O     O_2   0.427367 0.731874 0.570185 -0.158878
O108  O     O_2   0.342907 0.828201 0.591115 -0.323418
O109  O     O_3   0.311010 0.694115 0.607214 -0.442028
O110  O     O_2   0.142769 0.317808 0.597245 -0.232528
O111  O     O_2   0.062079 0.262818 0.549077 -0.336331
O112  O     O_3   0.137537 0.175205 0.592189 -0.419277
O113  O     O_2   0.301459 0.109037 0.586613 -0.284232
O114  O     O_R   0.560750 0.000000 0.412560 -0.602411
O115  O     O_2   0.382281 0.214767 0.585157 -0.228566
O116  O     O_3   0.261348 0.229835 0.620462 -0.402190
O117  O     O_2   0.267406 0.569226 0.568957 -0.183739
O118  O     O_2   0.283323 0.541652 0.499685 -0.306546
O119  O     O_3   0.390783 0.599089 0.536787 -0.415365
O120  O     O_2   0.709635 0.902961 0.582618 -0.287799
O121  O     O_2   0.625935 0.800342 0.587647 -0.238607
O122  O     O_3   0.749818 0.786400 0.620164 -0.406269
O123  O     O_2   0.733254 0.430536 0.569409 -0.183979
O124  O     O_2   0.716569 0.458351 0.500257 -0.307364
S1    S     S_3+6 0.147149 0.753437 0.073439 0.122245
S2    S     S_3+6 0.870324 0.749132 0.566536 0.079076
S3    S     S_3+6 0.348537 0.751703 0.574874 0.114404
S4    S     S_3+6 0.135048 0.255981 0.568457 0.078328
S5    S     S_3+6 0.304525 0.191015 0.582356 0.106387
S6    S     S_3+6 0.300227 0.595822 0.531475 0.124899
S7    S     S_3+6 0.704080 0.820791 0.581880 0.099825
S8    S     S_3+6 0.700034 0.404058 0.531972 0.124883
S9    S     S_3+6 0.360998 0.938870 0.856989 0.009595
S10   S     S_3+6 0.916856 0.372352 0.856461 0.045613
S11   S     S_3+6 0.639181 0.060428 0.857059 0.011094
S12   S     S_3+6 0.365770 0.244866 0.068311 0.069804
S13   S     S_3+6 0.082966 0.627757 0.856654 0.045761
S14   S     S_3+6 0.856008 0.451332 0.357529 0.003313
S15   S     S_3+6 0.455791 0.852311 0.357779 0.029282
S16   S     S_3+6 0.144168 0.547936 0.357549 0.004592
S17   S     S_3+6 0.542115 0.147909 0.358075 0.029037
S18   S     S_3+6 0.854374 0.245477 0.072723 0.120433
S19   S     S_3+6 0.643026 0.762581 0.071345 0.069370
S20   S     S_3+6 0.817031 0.708705 0.082440 0.117943
S21   S     S_3+6 0.801615 0.093764 0.026783 0.124244
S22   S     S_3+6 0.195571 0.308584 0.083064 0.107852
S23   S     S_3+6 0.198460 0.905895 0.027763 0.125805
S24   S     S_3+6 0.652041 0.247975 0.575040 0.115600
Zn1   Zn    Zn3+2 0.000000 0.586740 0.032740 1.129013
Zn2   Zn    Zn3+2 0.500000 0.913250 0.967240 1.040727
Zn3   Zn    Zn3+2 0.086750 0.500000 0.967240 1.034145
Zn4   Zn    Zn3+2 0.500000 0.086750 0.967240 1.045853
Zn5   Zn    Zn3+2 0.413250 0.000000 0.467240 1.014251
Zn6   Zn    Zn3+2 0.000000 0.413250 0.467240 1.044521
Zn7   Zn    Zn3+2 0.586750 0.000000 0.467240 1.017507
Zn8   Zn    Zn3+2 1.000000 0.586750 0.467240 1.046412
Zn9   Zn    Zn3+2 0.413260 1.000000 0.032740 1.119754
Zn10  Zn    Zn3+2 1.000000 0.413260 0.032740 1.127417
Zn11  Zn    Zn3+2 0.586740 1.000000 0.032740 1.122652
Zn12  Zn    Zn3+2 0.500000 0.086740 0.532740 1.129697
Zn13  Zn    Zn3+2 0.913260 0.500000 0.532740 1.119887
Zn14  Zn    Zn3+2 0.500000 0.913260 0.532740 1.126696
Zn15  Zn    Zn3+2 0.086740 0.500000 0.532740 1.121848
Zn16  Zn    Zn3+2 0.913250 0.500000 0.967240 1.029576

loop_
_geom_bond_atom_site_label_1
_geom_bond_atom_site_label_2
_ccdc_geom_bond_type
C146  O69   A    
O20   S15   D    
C87   C91   A    
O102  S24   S    
C145  O73   A    
O111  S4    D    
O70   Zn3   S    
C55   C56   A    
O69   Zn14  S    
C153  H45   S    
O98   S23   D    
C90   C95   A    
O67   Zn12  S    
O41   Zn3   S    
C68   C75   A    
O42   Zn4   S    
H76   O22   S    
C70   S9    S    
O104  S2    D    
C53   S12   S    
H75   O19   S    
O90   S21   D    
C134  O57   A    
C96   H40   S    
C148  O55   A    
C13   C70   A    
C35   C80   A    
O52   Zn7   S    
C63   S3    S    
C21   C152  A    
C89   C94   A    
O51   Zn8   S    
C144  O72   A    
C161  H4    S    
C2    C84   A    
C113  C122  A    
O4    S9    D    
O97   S23   D    
C74   C136  A    
C68   C90   A    
C127  O32   A    
O86   S19   S    
C77   C147  A    
C128  O31   A    
C6    C155  A    
C53   C59   A    
C27   C50   A    
C135  O63   A    
C25   C34   A    
C4    C153  A    
C100  C109  A    
C8    C16   A    
C92   C147  S    
O48   Zn14  S    
C43   C144  S    
O14   S13   D    
C8    C157  A    
O62   Zn9   S    
C115  C123  A    
C20   C153  A    
C93   C101  A    
C47   C64   A    
O57   Zn11  S    
O59   Zn6   S    
C101  C110  A    
O17   S14   D    
C45   C146  S    
C6    H16   S    
C133  O41   A    
O18   S14   D    
C144  O52   A    
C39   C56   A    
C118  H49   S    
O113  S5    D    
C166  H9    S    
C118  C124  A    
O5    S9    D    
C86   C99   A    
O75   S1    D    
C116  C122  A    
C86   H30   S    
C7    C166  A    
C101  C115  A    
C133  O56   A    
C105  C118  A    
O100  S24   D    
O19   S14   S    
O93   S21   S    
C107  C120  A    
O110  S4    D    
C43   C61   A    
C104  C117  A    
O55   Zn8   S    
C113  H44   S    
C46   C77   A    
C65   S5    S    
O27   S17   D    
C17   C25   A    
C74   S14   S    
C9    C15   A    
O101  S24   D    
C64   C65   A    
C104  C110  A    
O37   Zn4   S    
H64   O109  S    
C139  O62   A    
C77   S17   S    
C120  H51   S    
O37   Zn2   S    
O30   Zn1   S    
C75   S15   S    
O6    S9    S    
C127  O30   A    
C83   H27   S    
H58   O89   S    
C73   S13   S    
O54   Zn5   S    
C119  C126  A    
C167  H10   S    
C20   C21   A    
C94   C102  A    
C23   C36   A    
C13   C85   A    
C142  O65   A    
H74   O16   S    
C102  C109  A    
C51   C69   A    
O118  S6    D    
O43   Zn3   S    
O35   Zn13  S    
C159  H2    S    
O2    Zn8   S    
C94   H38   S    
H68   O119  S    
C130  O38   A    
C148  O71   A    
C41   C133  S    
C99   H43   S    
C99   C108  A    
C130  O35   A    
C91   C100  A    
C97   H41   S    
O48   Zn5   S    
O72   Zn12  S    
C149  H1    S    
C58   S21   S    
O11   S11   D    
O117  S6    D    
C14   C163  A    
C164  H7    S    
C25   C149  A    
C122  C127  S    
C52   C60   A    
C46   C82   A    
C35   C87   A    
C10   C160  A    
C78   C158  A    
C38   C137  S    
C7    C156  A    
C81   C114  S    
C10   H20   S    
C78   C111  A    
C36   C53   A    
H57   O86   S    
C50   C67   A    
O40   Zn2   S    
C91   H36   S    
C14   H24   S    
C141  O49   A    
O31   Zn9   S    
O3    S8    S    
O36   Zn14  S    
C57   C80   A    
O29   S17   S    
C157  H80   S    
C145  O53   A    
C51   C141  S    
O21   S15   D    
C35   C76   A    
C62   S2    S    
C49   C66   A    
C48   C140  S    
C60   S23   S    
O53   Zn6   S    
O109  S3    S    
H65   O112  S    
O71   Zn13  S    
C10   C14   A    
C138  O61   A    
C21   C38   A    
C8    H18   S    
C140  O67   A    
C40   C134  S    
H77   O26   S    
O64   Zn11  S    
C137  O44   A    
C103  C136  S    
C29   C30   A    
O76   S1    S    
C28   C49   A    
H61   O99   S    
C24   C79   A    
C16   C165  A    
O47   Zn5   S    
H63   O106  S    
O96   S22   S    
C2    C73   A    
C37   C138  S    
O61   Zn10  S    
C48   C65   A    
O79   S12   S    
C3    C4    A    
O89   S20   S    
O78   S12   D    
C22   C151  A    
H60   O96   S    
C81   O81   A    
O12   S11   S    
H72   O9    S    
C107  C111  A    
C29   C162  A    
C7    H17   S    
C92   O13   A    
C139  O46   A    
O1    Zn16  S    
O65   Zn14  S    
C30   C161  A    
C68   C82   A    
C137  O64   A    
C156  H78   S    
C26   C51   A    
H69   O122  S    
C84   H28   S    
C73   C125  A    
C83   C96   A    
O82   S18   D    
C129  O34   A    
C143  O66   A    
C16   H26   S    
C19   C40   A    
O94   S22   D    
C12   C162  A    
O85   S19   D    
C24   C86   A    
C50   C142  S    
C28   C163  A    
O25   S16   D    
O81   Zn4   S    
C96   C105  A    
C47   C145  S    
C26   C165  A    
H73   O12   S    
C106  C119  A    
O26   S16   S    
C87   H31   S    
C108  C121  A    
C140  O47   A    
O39   Zn16  S    
C143  O51   A    
C162  H5    S    
C165  H8    S    
O87   S20   D    
C3    C152  A    
C57   C89   A    
C79   C112  A    
C84   C97   A    
C92   O114  A    
C116  H47   S    
C39   C131  S    
C126  C130  S    
C5    C154  A    
C72   C114  A    
C11   C161  A    
O48   Zn12  S    
C5    C168  A    
O44   Zn2   S    
O68   Zn13  S    
C2    C79   A    
C13   C78   A    
O49   Zn6   S    
O60   Zn9   S    
C67   S7    S    
C80   C109  A    
C119  H50   S    
C31   C160  A    
O48   Zn7   S    
O58   Zn1   S    
C32   C159  A    
C105  C111  A    
C63   C66   A    
O45   Zn16  S    
C152  H34   S    
C132  O60   A    
C138  O45   A    
C55   S19   S    
O50   Zn7   S    
C33   C157  A    
O106  S2    S    
C95   H39   S    
O13   Zn5   S    
C149  C166  A    
C15   C164  A    
C40   C58   A    
C20   C39   A    
C75   C147  A    
C22   C37   A    
O114  Zn7   S    
C108  C112  A    
C11   H21   S    
H79   O29   S    
C129  O36   A    
O37   Zn11  S    
O7    S10   D    
C1    O70   A    
C1    O92   A    
C3    H13   S    
H66   O116  S    
O122  S7    S    
C146  O54   A    
C85   H29   S    
C23   C150  A    
C81   O103  A    
H53   O76   S    
O95   S22   D    
C54   S18   S    
C17   C42   A    
C150  H12   S    
C90   H35   S    
C27   C32   A    
C28   C31   A    
C134  O42   A    
C66   S6    S    
C168  H11   S    
C34   C52   A    
C52   S1    S    
C88   H32   S    
O73   Zn15  S    
O92   Zn16  S    
C83   C158  A    
C34   C135  S    
C150  C167  A    
C49   C143  S    
C160  H3    S    
C124  C129  S    
C98   C107  A    
C15   H25   S    
O103  Zn2   S    
C31   C45   A    
O16   S13   S    
C19   C154  A    
C71   C125  A    
C42   C132  S    
C59   S22   S    
C4    H14   S    
C17   C156  A    
C5    H15   S    
C18   C155  A    
C89   H33   S    
O63   Zn1   S    
O56   Zn10  S    
H70   O3    S    
O116  S5    S    
C93   H37   S    
C76   C136  A    
O83   S18   S    
C106  C112  A    
C70   C114  A    
C98   H42   S    
O59   Zn15  S    
C62   C67   A    
C82   C110  A    
O24   Zn6   S    
C1    C125  S    
C9    C159  A    
C151  C168  A    
O1    Zn1   S    
C72   C158  A    
H62   O102  S    
C85   C98   A    
C56   S20   S    
O28   S17   D    
O77   S12   D    
O74   S1    D    
C61   S24   S    
C64   S4    S    
O10   S11   D    
C151  H23   S    
C141  O68   A    
C44   C148  S    
O119  S6    S    
C76   S16   S    
C128  O33   A    
C36   C139  S    
O84   S19   D    
C46   C88   A    
O22   S15   S    
O23   S16   D    
C29   C48   A    
C18   C23   A    
C33   C43   A    
C30   C47   A    
C19   C22   A    
O9    S10   S    
C41   C59   A    
O120  S7    D    
O66   Zn15  S    
C18   C41   A    
C42   C60   A    
C44   C62   A    
O107  S3    D    
C45   C63   A    
C115  H46   S    
C57   C74   A    
O105  S2    D    
C117  H48   S    
C27   C164  A    
O80   S18   D    
O121  S7    D    
C155  H67   S    
C142  O50   A    
H71   O6    S    
C32   C44   A    
O108  S3    D    
O32   Zn10  S    
O99   S23   S    
C37   C54   A    
O38   Zn15  S    
O115  S5    D    
H55   O83   S    
O91   S21   D    
C95   C104  A    
C38   C55   A    
H54   O79   S    
C54   C58   A    
C61   C69   A    
C88   C93   A    
O59   Zn13  S    
O123  S8    D    
O124  S8    D    
C103  O2    A    
O46   Zn4   S    
C131  O58   A    
C100  C113  A    
C9    H19   S    
O8    S10   D    
C11   C12   A    
C71   S10   S    
C12   H22   S    
O1    Zn3   S    
O88   S20   D    
O33   Zn11  S    
C103  O24   A    
O37   Zn9   S    
O34   Zn12  S    
C117  C123  A    
C121  C126  A    
C131  O39   A    
C123  C128  S    
C132  O40   A    
O59   Zn8   S    
C121  H52   S    
C154  H56   S    
O15   S13   D    
C102  C116  A    
C72   S11   S    
O1    Zn10  S    
C24   C71   A    
H59   O93   S    
C69   S8    S    
C6    C167  A    
C163  H6    S    
C135  O43   A    
C120  C124  A    
C26   C33   A    
O112  S4    S    
C97   C106  A    
