data_mof_unit_6144.cif
_audit_creation_date              2012-10-26T20:14:28-0400
_audit_creation_method            fapswitch 2.2
_symmetry_space_group_name_H-M    P1
_symmetry_Int_Tables_number       1
_space_group_crystal_system       triclinic
_cell_length_a                    7.777812
_cell_length_b                    9.094701
_cell_length_c                    17.295159
_cell_angle_alpha                 90.011698
_cell_angle_beta                  84.915956
_cell_angle_gamma                 89.983021
_cell_volume                      1218.5922635

loop_
_atom_site_label
_atom_site_type_symbol
_atom_type_description
_atom_site_fract_x
_atom_site_fract_y
_atom_site_fract_z
_atom_type_partial_charge
Br1   Br    Br    0.110663 0.371725 0.923221 -0.287768
Br2   Br    Br    0.889340 0.628262 0.076778 -0.287770
Br3   Br    Br    0.259633 0.279296 0.105631 -0.335224
Br4   Br    Br    0.740362 0.720701 0.894371 -0.335224
Br5   Br    Br    0.853590 0.675005 0.266838 -0.354905
Br6   Br    Br    0.146414 0.324987 0.733160 -0.354905
C1    C     C_R   0.499988 0.779999 0.499998 0.558445
C2    C     C_R   0.416812 0.416704 0.228304 -0.110112
C3    C     C_R   0.572402 0.597354 0.851770 0.158473
C4    C     C_R   0.427596 0.402642 0.148231 0.158473
C5    C     C_R   0.436438 0.529252 0.897576 0.009970
C6    C     C_R   0.563561 0.470741 0.102425 0.009970
C7    C     C_R   0.305267 0.455451 0.861699 0.206498
C8    C     C_R   0.694734 0.544541 0.138300 0.206499
C9    C     C_R   0.317246 0.440879 0.780494 0.173192
C10   C     C_R   0.682755 0.559115 0.219505 0.173192
C11   C     C_2   0.434322 0.529103 0.982573 -0.029274
C12   C     C_R   0.500012 0.220000 0.500002 0.558445
C13   C     C_2   0.565677 0.470889 0.017427 -0.029274
C14   C     C_1   0.499983 0.934635 0.499998 -0.006031
C15   C     C_1   0.500017 0.065365 0.500002 -0.006031
C16   C     C_R   0.475787 0.497794 0.650584 0.564370
C17   C     C_R   0.524213 0.502205 0.349416 0.564370
C18   C     C_R   0.458331 0.504812 0.735480 -0.036388
C19   C     C_R   0.541669 0.495185 0.264520 -0.036388
C20   C     C_R   0.583186 0.583294 0.771696 -0.110112
Cu1   Cu    Cu3+1 0.330920 0.500000 0.500000 1.110836
Cu2   Cu    Cu3+1 0.669080 0.500000 0.500000 1.110835
H1    H     H_    0.688357 0.637000 0.737341 0.181452
H2    H     H_    0.311640 0.363001 0.262659 0.181453
H3    H     H_    0.680083 0.431215 0.983064 0.211741
H4    H     H_    0.319916 0.568777 0.016936 0.211742
N1    N     N_1   0.923170 0.500000 0.500010 -0.054726
N2    N     N_1   0.076830 0.500000 0.499990 -0.054726
O1    O     O_R   0.357240 0.711600 0.500000 -0.496168
O2    O     O_R   0.642760 0.288400 0.500000 -0.496168
O3    O     O_R   0.642760 0.711600 0.500000 -0.491869
O4    O     O_R   0.357240 0.288400 0.500000 -0.491869
O5    O     O_R   0.340660 0.500000 0.613590 -0.466827
O6    O     O_R   0.659340 0.500000 0.386410 -0.466827
O7    O     O_R   0.626230 0.500000 0.613600 -0.505685
O8    O     O_R   0.373770 0.500000 0.386400 -0.505685

loop_
_geom_bond_atom_site_label_1
_geom_bond_atom_site_label_2
_ccdc_geom_bond_type
C3    C20   A    
C12   C15   S    
C5    C7    A    
Br6   C9    S    
C13   H3    S    
C7    C9    A    
N1    N2    T    
C1    O3    A    
C2    H2    S    
Br3   C4    S    
C2    C19   A    
C3    C5    A    
Cu1   O8    S    
C12   O2    A    
C17   O8    A    
C4    C6    A    
Cu2   O3    S    
C16   O5    A    
C6    C13   S    
C9    C18   A    
C11   C13   D    
C6    C8    A    
Cu2   N1    S    
C8    C10   A    
C17   C19   S    
Cu1   N2    S    
C12   O4    A    
Br2   C8    S    
C16   C18   S    
C16   O7    A    
Br1   C7    S    
Cu2   O6    S    
Cu1   O4    S    
C17   O6    A    
Cu2   O7    S    
C10   C19   A    
C14   C15   T    
Cu2   O2    S    
C20   H1    S    
C2    C4    A    
C1    C14   S    
Cu1   O5    S    
Cu1   Cu2   S    
C11   H4    S    
C5    C11   S    
Br5   C10   S    
Cu1   O1    S    
Br4   C3    S    
C1    O1    A    
C18   C20   A    
