data_mof_unit_34291.cif
_audit_creation_date              2013-03-05T15:57:36-0500
_audit_creation_method            fapswitch 2.2
_symmetry_space_group_name_H-M    P1
_symmetry_Int_Tables_number       1
_space_group_crystal_system       triclinic
_cell_length_a                    15.107006
_cell_length_b                    13.858573
_cell_length_c                    11.733847
_cell_angle_alpha                 91.504003
_cell_angle_beta                  88.816937
_cell_angle_gamma                 89.478988
_cell_volume                      2455.13242905

loop_
_atom_site_label
_atom_site_type_symbol
_atom_site_description
_atom_site_fract_x
_atom_site_fract_y
_atom_site_fract_z
_atom_type_partial_charge
O1    O     O_R   0.370260 0.582280 0.500020 -0.556831
O2    O     O_R   0.629740 0.417720 0.499980 -0.548186
O3    O     O_R   0.629740 0.582280 0.499980 -0.561070
O4    O     O_R   0.370260 0.417720 0.500020 -0.547824
C1    C     C_R   0.329433 0.500423 0.500748 0.796776
C2    C     C_R   0.670970 0.500516 0.498097 0.780928
O5    O     O_R   0.500010 0.582270 0.337200 -0.550690
O6    O     O_R   0.499990 0.417730 0.662800 -0.539881
O7    O     O_R   0.499990 0.582270 0.662800 -0.553935
O8    O     O_R   0.500010 0.417730 0.337200 -0.563214
C3    C     C_R   0.499801 0.499062 0.284072 0.780198
C4    C     C_R   0.500202 0.500988 0.715938 0.800167
Cu1   Cu    Cu3+1 0.500000 0.597420 0.500000 1.027148
Cu2   Cu    Cu3+1 0.500000 0.402580 0.500000 1.039899
C5    C     C_1   0.499095 0.497769 0.162312 -0.104157
C6    C     C_1   0.500241 0.502520 0.837738 -0.106193
C7    C     C_1   0.499061 0.499078 0.059919 0.011588
C8    C     C_1   0.499864 0.501462 0.940157 0.006257
C9    C     C_R   0.815740 0.493599 0.393513 0.048416
C10   C     C_R   0.185367 0.527670 0.600608 0.030689
C11   C     C_R   0.767768 0.505573 0.497989 -0.051703
C12   C     C_R   0.233215 0.501776 0.499487 -0.062447
C13   C     C_R   0.811287 0.540220 0.597044 0.011239
C14   C     C_R   0.189896 0.481884 0.395763 0.064725
C15   C     C_R   0.905111 0.546040 0.593713 0.093002
C16   C     C_R   0.096225 0.480976 0.396093 0.090581
C17   C     C_R   0.953658 0.512511 0.495742 0.031595
C18   C     C_R   0.047709 0.510527 0.495854 0.021140
C19   C     C_R   0.908718 0.486322 0.395561 0.090365
C20   C     C_R   0.092597 0.539440 0.595468 0.084200
C21   C     C_R   0.952097 0.586308 0.685174 -0.209313
C22   C     C_R   0.049477 0.452421 0.298660 -0.194295
C23   C     C_R   0.043382 0.580952 0.687321 -0.200305
C24   C     C_R   0.957872 0.455167 0.298423 -0.202905
H1    H     H_    0.919648 0.621708 0.757706 0.171124
H2    H     H_    0.082298 0.427098 0.220835 0.145436
H3    H     H_    0.074162 0.610393 0.762633 0.156883
H4    H     H_    0.926103 0.430921 0.221179 0.156964
C25   C     C_R   0.440720 0.795736 0.568992 0.427017
C26   C     C_R   0.557790 0.202641 0.431067 0.450697
C27   C     C_R   0.559059 0.791937 0.431497 0.432614
C28   C     C_R   0.440962 0.208077 0.569405 0.432974
N1    N     N_R   0.500000 0.743810 0.500000 -0.304705
N2    N     N_R   0.500000 0.256190 0.500000 -0.302700
C29   C     C_R   0.559531 0.894410 0.430336 -0.088139
C30   C     C_R   0.439920 0.105071 0.571322 -0.088803
C31   C     C_R   0.439788 0.898555 0.571067 -0.086599
C32   C     C_R   0.558868 0.100090 0.430380 -0.080583
C33   C     C_R   0.499588 0.947924 0.500879 0.033410
C34   C     C_R   0.499484 0.051095 0.501019 0.026174
C35   C     C_R   0.618719 0.944689 0.359970 -0.128509
C36   C     C_R   0.380646 0.054554 0.641882 -0.118573
C37   C     C_R   0.380576 0.953354 0.641745 -0.122760
C38   C     C_R   0.618419 0.045411 0.359982 -0.110822
H5    H     H_    0.665795 0.906760 0.303893 0.201070
H6    H     H_    0.333800 0.092710 0.698062 0.198186
H7    H     H_    0.333727 0.918559 0.697872 0.197799
H8    H     H_    0.665608 0.079726 0.303960 0.205378
C39   C     C_3   0.770539 0.507760 0.279797 -0.452952
C40   C     C_3   0.737037 0.412826 0.229663 -0.277770
C41   C     C_3   0.725794 0.414305 0.101213 -0.837310
H9    H     H_    0.684092 0.476800 0.078389 0.264979
H10   H     H_    0.791607 0.417423 0.057698 0.241475
H11   H     H_    0.692713 0.347180 0.071861 0.287206
H12   H     H_    0.782741 0.352387 0.248653 0.270816
H13   H     H_    0.671493 0.401909 0.269500 0.285531
H14   H     H_    0.714173 0.559369 0.290311 0.249173
H15   H     H_    0.816261 0.543084 0.218643 0.216774
C42   C     C_3   0.232386 0.539001 0.714477 -0.330066
C43   C     C_3   0.206947 0.457331 0.794652 -0.350434
C44   C     C_3   0.239766 0.477426 0.914519 -0.837402
H16   H     H_    0.312800 0.484783 0.913313 0.273794
H17   H     H_    0.208728 0.545001 0.949991 0.245267
H18   H     H_    0.221439 0.416921 0.970281 0.249727
H19   H     H_    0.134120 0.447929 0.799914 0.222459
H20   H     H_    0.236509 0.388397 0.761445 0.292662
H21   H     H_    0.305458 0.537669 0.705021 0.212632
H22   H     H_    0.217123 0.610957 0.754106 0.231550
C45   C     C_3   0.758216 0.583616 0.699283 -0.372200
C46   C     C_3   0.771636 0.531404 0.812095 -0.390535
C47   C     C_3   0.763491 0.603340 0.913370 -0.808669
H23   H     H_    0.802245 0.669610 0.897778 0.251089
H24   H     H_    0.692933 0.623779 0.929345 0.272248
H25   H     H_    0.790769 0.571632 0.990766 0.244084
H26   H     H_    0.720754 0.474514 0.821567 0.224025
H27   H     H_    0.836842 0.494123 0.814249 0.230638
H28   H     H_    0.776969 0.660862 0.707007 0.214303
H29   H     H_    0.686054 0.586226 0.686879 0.202109
C48   C     C_3   0.243989 0.466955 0.284606 -0.385377
C49   C     C_3   0.237767 0.554060 0.206429 -0.421823
C50   C     C_3   0.267991 0.648342 0.263084 -0.695393
H30   H     H_    0.224872 0.668231 0.337962 0.265487
H31   H     H_    0.337544 0.641623 0.290212 0.264967
H32   H     H_    0.264149 0.707287 0.201051 0.233627
H33   H     H_    0.281478 0.539343 0.130782 0.223885
H34   H     H_    0.169155 0.563640 0.176377 0.227703
H35   H     H_    0.315012 0.453033 0.298881 0.188476
H36   H     H_    0.222879 0.400384 0.238651 0.174472
N3    N     N_R   0.378208 0.746144 0.638657 0.131679
O9    O     O_R   0.396378 0.732049 0.744830 -0.382508
O10   O     O_R   0.295972 0.743571 0.607994 -0.401759
N4    N     N_R   0.618226 0.249671 0.357873 0.109993
O11   O     O_R   0.601000 0.249235 0.249623 -0.407871
O12   O     O_R   0.700274 0.253984 0.389047 -0.413881
N5    N     N_R   0.621701 0.738802 0.361059 0.130605
O13   O     O_R   0.604326 0.723542 0.254005 -0.385410
O14   O     O_R   0.703798 0.735303 0.392281 -0.392515
N6    N     N_R   0.377974 0.261467 0.638890 0.133313
O15   O     O_R   0.394557 0.277063 0.746111 -0.382735
O16   O     O_R   0.296176 0.264924 0.606514 -0.399630

loop_
_geom_bond_atom_site_label_1
_geom_bond_atom_site_label_2
_geom_bond_distance
_ccdc_geom_bond_type
C15   C21   1.405071 A    
C16   C22   1.406098 A    
C17   C19   1.410496 A    
C42   H21   1.107107 S    
O3    C2    1.287522 A    
C14   C48   1.533149 S    
C45   H28   1.111732 S    
C47   H23   1.110805 S    
C49   H33   1.108777 S    
C31   C33   1.404486 A    
C10   C20   1.412160 A    
C32   C38   1.410658 A    
N5    O14   1.301304 A    
C27   N5    1.429674 S    
O1    C1    1.296307 A    
C22   H2    1.078993 S    
Cu2   N2    2.028757 S    
C9    C11   1.416350 A    
C14   C16   1.415182 A    
C42   C43   1.537082 S    
C29   C35   1.406348 A    
C30   C36   1.410204 A    
N6    O15   1.300786 A    
C5    C7    1.202086 T    
C28   C30   1.428509 A    
C41   H10   1.109986 S    
O7    Cu1   1.927241 S    
C46   H27   1.109242 S    
C39   H14   1.109878 S    
C3    C5    1.428618 S    
C1    C12   1.453913 S    
C4    C6    1.428794 S    
C21   C23   1.381147 A    
C43   C44   1.520650 S    
C26   N2    1.376482 A    
C35   H5    1.082011 S    
C41   H9    1.108119 S    
O3    Cu1   1.969277 S    
C31   C37   1.410202 A    
C32   C34   1.401000 A    
C40   H13   1.099626 S    
C39   C40   1.522138 S    
Cu1   Cu2   2.700203 S    
C27   N1    1.377072 A    
C42   H22   1.109454 S    
O2    C2    1.311032 A    
C28   N2    1.382965 A    
C45   H29   1.103200 S    
C47   H24   1.111312 S    
O8    Cu2   1.927241 S    
C50   H30   1.110237 S    
C44   H17   1.110680 S    
C37   H7    1.082034 S    
O4    C1    1.296355 A    
C25   N1    1.379484 A    
C9    C39   1.527794 S    
C2    C11   1.464624 S    
C19   C24   1.403695 A    
C23   H3    1.079410 S    
C48   H35   1.105365 S    
C40   C41   1.520890 S    
C22   C24   1.384115 A    
C41   H11   1.110177 S    
O5    C3    1.296452 A    
C46   H26   1.112167 S    
C39   H15   1.111658 S    
C50   H31   1.107991 S    
C25   N3    1.428915 S    
N3    O9    1.300575 A    
C29   C33   1.407064 A    
O6    C4    1.297112 A    
C7    C8    1.406329 S    
N4    O12   1.301017 A    
N3    O10   1.301046 A    
C10   C12   1.413036 A    
C40   H12   1.110657 S    
C11   C13   1.421882 A    
C43   H20   1.108802 S    
C12   C14   1.415665 A    
C10   C42   1.531219 S    
O1    Cu1   1.973074 S    
C9    C19   1.408059 A    
Cu1   N1    2.028757 S    
C47   H25   1.104887 S    
C36   C37   1.402450 A    
C25   C31   1.424432 A    
C38   H8    1.081535 S    
C26   C32   1.420971 A    
O6    Cu2   1.916285 S    
C20   C23   1.404265 A    
C24   H4    1.081518 S    
C46   C47   1.533204 S    
C44   H18   1.110589 S    
C49   H34   1.109673 S    
C15   C17   1.416432 A    
N5    O13   1.300849 A    
C30   C34   1.405150 A    
C16   C18   1.417427 A    
C48   H36   1.109034 S    
C35   C38   1.395826 A    
C18   C20   1.414125 A    
C44   H16   1.108784 S    
C50   H32   1.110227 S    
C49   C50   1.528217 S    
N6    O16   1.301112 A    
C21   H1    1.077875 S    
C13   C15   1.420204 A    
O4    Cu2   1.969278 S    
N4    O11   1.301697 A    
O2    Cu2   1.973072 S    
O7    C4    1.301756 A    
O8    C3    1.302297 A    
C26   N4    1.415564 S    
C45   C46   1.541299 S    
O5    Cu1   1.916285 S    
C43   H19   1.109703 S    
C6    C8    1.202141 T    
C33   C34   1.429743 A    
C17   C18   1.420870 A    
C27   C29   1.420635 A    
C13   C45   1.535352 S    
C48   C49   1.538554 S    
C28   N6    1.428706 S    
C36   H6    1.081963 S    
