data_mof_unit_50035.cif
_audit_creation_date              2012-12-11T15:11:44-0500
_audit_creation_method            fapswitch 2.2
_symmetry_space_group_name_H-M    P1
_symmetry_Int_Tables_number       1
_space_group_crystal_system       monoclinic
_cell_length_a                    19.795965
_cell_length_b                    7.139886
_cell_length_c                    14.04828
_cell_angle_alpha                 90.0
_cell_angle_beta                  103.084184
_cell_angle_gamma                 90.0
_cell_volume                      1934.04792124

loop_
_atom_site_label
_atom_site_type_symbol
_atom_type_description
_atom_site_fract_x
_atom_site_fract_y
_atom_site_fract_z
_atom_type_partial_charge
O1    O     O_R   0.449830 0.506740 0.599960 -0.539769
O2    O     O_R   0.550170 0.006740 0.400040 -0.539769
O3    O     O_R   0.588980 0.179860 0.596720 -0.546148
O4    O     O_R   0.411020 0.679860 0.403280 -0.546148
C1    C     C_R   0.616504 0.344870 0.617719 0.668536
C2    C     C_R   0.383496 0.844870 0.382280 0.668536
O5    O     O_R   0.452740 0.177340 0.612040 -0.542399
O6    O     O_R   0.547260 0.677340 0.387960 -0.542399
O7    O     O_R   0.412960 0.002070 0.415460 -0.544649
O8    O     O_R   0.587040 0.502070 0.584540 -0.544649
C3    C     C_R   0.436265 0.345808 0.636976 0.694996
C4    C     C_R   0.563735 0.845808 0.363024 0.694998
O9    O     O_3   0.487110 0.337570 0.435490 -0.377443
O10   O     O_3   0.512890 0.837570 0.564510 -0.377443
V1    V     V_3+5 0.502390 0.064650 0.511970 1.383322
V2    V     V_3+5 0.497610 0.564650 0.488030 1.383323
C5    C     C_R   0.605103 0.834069 0.116379 -0.173033
C6    C     C_R   0.394897 0.334065 0.883621 -0.173032
H1    H     H_    0.511439 0.836427 0.168800 0.101030
H2    H     H_    0.488561 0.336424 0.831200 0.101030
C7    C     C_R   0.602537 0.852042 0.286781 -0.031902
C8    C     C_R   0.397463 0.352042 0.713219 -0.031903
C9    C     C_R   0.933346 0.835649 0.309809 -0.203738
C10   C     C_R   0.066654 0.335652 0.690191 -0.203738
C11   C     C_R   0.899366 0.777042 0.380778 -0.165536
C12   C     C_R   0.100633 0.277045 0.619222 -0.165537
C13   C     C_R   0.827320 0.744297 0.357829 0.113080
C14   C     C_R   0.172679 0.244300 0.642171 0.113082
C15   C     C_R   0.787571 0.806916 0.265218 0.049245
C16   C     C_R   0.212428 0.306916 0.734781 0.049244
C17   C     C_R   0.823713 0.838071 0.189751 0.042060
C18   C     C_R   0.176287 0.338071 0.810248 0.042061
C19   C     C_R   0.713933 0.827409 0.241425 0.071529
C20   C     C_R   0.286067 0.327409 0.758575 0.071534
C21   C     C_R   0.677801 0.831195 0.141765 0.138126
C22   C     C_R   0.322198 0.331193 0.858235 0.138123
C23   C     C_R   0.714549 0.831914 0.068360 -0.229471
C24   C     C_R   0.285450 0.331912 0.931640 -0.229477
C25   C     C_R   0.786393 0.843155 0.091893 -0.207985
C26   C     C_R   0.213607 0.343153 0.908106 -0.207979
C27   C     C_R   0.675060 0.853259 0.312683 -0.231188
C28   C     C_R   0.324940 0.353260 0.687316 -0.231183
C29   C     C_R   0.567607 0.839487 0.188902 -0.177004
C30   C     C_R   0.432393 0.339484 0.811097 -0.177002
C31   C     C_R   0.896743 0.854095 0.213264 -0.066384
C32   C     C_R   0.103257 0.354096 0.786736 -0.066384
H3    H     H_    0.700101 0.880113 0.387855 0.101373
H4    H     H_    0.299899 0.380114 0.612145 0.101371
H5    H     H_    0.989379 0.848443 0.328448 0.104899
H6    H     H_    0.010621 0.348447 0.671552 0.104899
H7    H     H_    0.930883 0.741123 0.451948 0.120090
H8    H     H_    0.069116 0.241128 0.548051 0.120090
C33   C     C_3   0.239719 0.734841 0.151473 -0.062188
C34   C     C_3   0.760281 0.234840 0.848527 -0.062187
C35   C     C_3   0.314484 0.756863 0.214789 -0.357614
C36   C     C_3   0.685516 0.256860 0.785210 -0.357611
H9    H     H_    0.270343 0.609271 0.374709 0.141513
H10   H     H_    0.729657 0.109275 0.625288 0.141513
C37   C     C_3   0.183385 0.772659 0.289259 -0.393970
C38   C     C_3   0.816615 0.272660 0.710741 -0.393968
C39   C     C_3   0.220302 0.069534 0.211654 -0.009377
C40   C     C_3   0.779698 0.569534 0.788346 -0.009376
C41   C     C_3   0.187122 0.865062 0.190049 0.104042
C42   C     C_3   0.812877 0.365062 0.809951 0.104042
C43   C     C_3   0.312656 0.853955 0.312825 0.086124
C44   C     C_3   0.687344 0.353955 0.687175 0.086122
C45   C     C_3   0.256730 0.758921 0.358706 -0.342941
C46   C     C_3   0.743270 0.258923 0.641293 -0.342941
C47   C     C_3   0.289560 0.059138 0.289924 -0.333467
C48   C     C_3   0.710439 0.559138 0.710077 -0.333467
H11   H     H_    0.330113 0.138066 0.263073 0.120784
H12   H     H_    0.669886 0.638063 0.736929 0.120783
H13   H     H_    0.255675 0.827494 0.429301 0.141435
H14   H     H_    0.744326 0.327499 0.570699 0.141435
O11   O     O_R   0.912980 0.203550 0.915410 -0.546736
O12   O     O_R   0.087020 0.703550 0.084590 -0.546735
O13   O     O_R   0.047270 0.535570 0.887960 -0.542651
O14   O     O_R   0.952730 0.035570 0.112040 -0.542651
C49   C     C_R   0.063723 0.367648 0.862695 0.685801
C50   C     C_R   0.936277 0.867648 0.137304 0.685802
O15   O     O_R   0.911030 0.532970 0.903270 -0.547089
O16   O     O_R   0.088970 0.032970 0.096730 -0.547090
O17   O     O_R   0.949820 0.708150 0.099970 -0.537953
O18   O     O_R   0.050180 0.208150 0.900030 -0.537953
C51   C     C_R   0.884142 0.365936 0.880985 0.646096
C52   C     C_R   0.115858 0.865936 0.119015 0.646096
O19   O     O_3   0.012900 0.375230 0.064480 -0.377560
O20   O     O_3   0.987100 0.875230 0.935520 -0.377559
V3    V     V_3+5 0.997610 0.648190 0.988040 1.369664
V4    V     V_3+5 0.002390 0.148190 0.011960 1.369664
C53   C     C_3   0.237031 0.725822 0.041534 -0.409511
C54   C     C_3   0.246220 0.906908 0.989645 -0.295083
C55   C     C_3   0.252244 0.860373 0.885908 -0.729838
H15   H     H_    0.299997 0.777842 0.886976 0.231339
H16   H     H_    0.206322 0.779009 0.847339 0.228362
H17   H     H_    0.254863 0.990090 0.844852 0.233526
H18   H     H_    0.200081 0.997028 0.986085 0.197454
H19   H     H_    0.293867 0.980880 0.028175 0.191648
H20   H     H_    0.279289 0.630331 0.033279 0.198988
H21   H     H_    0.187068 0.662488 0.003406 0.192287
C56   C     C_3   0.762968 0.225823 0.958466 -0.409511
C57   C     C_3   0.753776 0.406909 0.010353 -0.295087
C58   C     C_3   0.747744 0.360373 0.114086 -0.729846
H22   H     H_    0.699987 0.277857 0.113011 0.231337
H23   H     H_    0.793661 0.278994 0.152657 0.228366
H24   H     H_    0.745128 0.490089 0.155145 0.233528
H25   H     H_    0.799916 0.497027 0.013919 0.197456
H26   H     H_    0.706131 0.480883 0.971818 0.191648
H27   H     H_    0.720710 0.130329 0.966720 0.198990
H28   H     H_    0.812932 0.162494 0.996595 0.192285
H29   H     H_    0.347328 0.840236 0.175910 0.133056
H30   H     H_    0.652671 0.340229 0.824088 0.133055
H31   H     H_    0.338813 0.615859 0.228198 0.131734
H32   H     H_    0.661188 0.115854 0.771799 0.131734
H33   H     H_    0.162153 0.630860 0.273974 0.152377
H34   H     H_    0.837847 0.130860 0.726025 0.152376
C59   C     C_3   0.175560 0.237267 0.235993 -0.343835
C60   C     C_3   0.126920 0.190733 0.303485 -0.276685
C61   C     C_3   0.089334 0.360534 0.332376 -0.796610
H35   H     H_    0.126088 0.449964 0.384523 0.217365
H36   H     H_    0.063667 0.442056 0.266827 0.249400
H37   H     H_    0.048640 0.312576 0.369710 0.211975
H38   H     H_    0.086527 0.089606 0.268309 0.199916
H39   H     H_    0.159116 0.130311 0.370297 0.180627
H40   H     H_    0.211630 0.348324 0.271775 0.147748
H41   H     H_    0.145811 0.304048 0.168006 0.193333
C62   C     C_3   0.824440 0.737266 0.764007 -0.343835
C63   C     C_3   0.873080 0.690733 0.696514 -0.276686
C64   C     C_3   0.910666 0.860534 0.667623 -0.796610
H42   H     H_    0.873911 0.949964 0.615475 0.217366
H43   H     H_    0.936333 0.942056 0.733171 0.249399
H44   H     H_    0.951359 0.812577 0.630289 0.211975
H45   H     H_    0.913473 0.589606 0.731690 0.199916
H46   H     H_    0.840883 0.630310 0.629702 0.180628
H47   H     H_    0.788369 0.848324 0.728225 0.147748
H48   H     H_    0.854189 0.804048 0.831993 0.193333
H49   H     H_    0.234781 0.115083 0.143518 0.091152
H50   H     H_    0.765220 0.615083 0.856482 0.091151
H51   H     H_    0.284542 0.127546 0.359279 0.142621
H52   H     H_    0.715457 0.627548 0.640723 0.142621
H53   H     H_    0.146434 0.838456 0.326776 0.126461
H54   H     H_    0.853567 0.338456 0.673224 0.126460
H55   H     H_    0.687500 0.828643 0.992106 0.106980
H56   H     H_    0.312499 0.328641 0.007894 0.106981
H57   H     H_    0.577326 0.831245 0.040456 0.114051
H58   H     H_    0.422673 0.331240 0.959544 0.114050
C65   C     C_3   0.800771 0.605676 0.423913 -0.351255
C66   C     C_3   0.778881 0.414517 0.375539 -0.314094
C67   C     C_3   0.700341 0.390159 0.342535 -0.712228
H59   H     H_    0.674556 0.423898 0.402893 0.219293
H60   H     H_    0.678574 0.478855 0.278541 0.239630
H61   H     H_    0.688438 0.242691 0.320347 0.216062
H62   H     H_    0.804176 0.389976 0.313952 0.202473
H63   H     H_    0.798037 0.301545 0.429489 0.173818
H64   H     H_    0.844919 0.570849 0.484932 0.135109
H65   H     H_    0.761514 0.663557 0.460363 0.157608
C68   C     C_3   0.199228 0.105681 0.576084 -0.351255
C69   C     C_3   0.221120 0.914521 0.624457 -0.314096
C70   C     C_3   0.299660 0.890170 0.657462 -0.712219
H66   H     H_    0.325447 0.923931 0.597108 0.219296
H67   H     H_    0.321424 0.978852 0.721463 0.239627
H68   H     H_    0.311565 0.742698 0.679640 0.216058
H69   H     H_    0.195824 0.889974 0.686042 0.202473
H70   H     H_    0.201967 0.801552 0.570505 0.173816
H71   H     H_    0.155080 0.070853 0.515066 0.135109
H72   H     H_    0.238484 0.163567 0.539633 0.157604
H73   H     H_    0.812573 0.848966 0.032203 0.101134
H74   H     H_    0.187427 0.348963 0.967797 0.101133
H75   H     H_    0.225318 0.587946 0.164602 0.116061
H76   H     H_    0.774683 0.087946 0.835399 0.116060

loop_
_geom_bond_atom_site_label_1
_geom_bond_atom_site_label_2
_ccdc_geom_bond_type
C47   H51   S    
C44   C46   S    
C6    C22   A    
C48   H52   S    
C55   H15   S    
C9    C31   A    
C13   C15   A    
C34   H76   S    
C34   C56   S    
C65   C66   S    
O1    C3    A    
O2    C4    A    
C63   C64   S    
C2    O7    A    
C5    C29   A    
C54   H19   S    
C44   C48   S    
O14   V4    S    
O5    C3    A    
O13   V3    S    
C68   C69   S    
O18   V4    S    
C21   C23   A    
C62   H47   S    
C63   H46   S    
C67   H60   S    
C49   O18   A    
O14   C50   A    
C9    H5    S    
C18   C32   A    
C56   H27   S    
C62   H48   S    
C15   C19   A    
C37   C45   S    
C40   C48   S    
C47   H11   S    
C39   C41   S    
C60   C61   S    
C14   C68   S    
C40   C42   S    
O11   V4    S    
C38   H54   S    
C7    C29   A    
O11   C51   A    
C2    C43   S    
C8    C30   A    
C32   C49   S    
C43   C45   S    
C20   C28   A    
C33   C53   S    
C70   H67   S    
C57   H26   S    
C45   H13   S    
C53   H21   S    
C58   H24   S    
C65   H64   S    
C59   H41   S    
O19   V4    S    
C33   H75   S    
O12   V3    S    
C64   H44   S    
O15   V3    S    
O5    V1    S    
O6    V2    S    
C24   C26   A    
C66   H63   S    
H9    C45   S    
C50   O17   A    
H2    C30   S    
H1    C29   S    
C54   H18   S    
C61   H36   S    
C10   H6    S    
O17   V3    S    
C34   C36   S    
C16   C20   A    
C39   C59   S    
C56   C57   S    
O13   C49   A    
C66   C67   S    
O4    C2    A    
C42   C51   S    
C67   H61   S    
C68   H71   S    
C53   C54   S    
C28   H4    S    
C35   H31   S    
O3    C1    A    
C56   H28   S    
O16   C52   A    
C4    C7    S    
O4    V2    S    
C5    H57   S    
C11   H7    S    
C63   H45   S    
C65   H65   S    
C12   H8    S    
C70   H66   S    
H10   C46   S    
C27   H3    S    
C70   H68   S    
C57   H25   S    
C58   H23   S    
O1    V2    S    
C60   H39   S    
C40   H50   S    
O2    V1    S    
C37   H53   S    
C69   H69   S    
C7    C27   A    
C37   H33   S    
O20   V4    S    
C55   H17   S    
O19   V3    S    
C41   C52   S    
C69   C70   S    
C37   C41   S    
C38   H34   S    
C66   H62   S    
C33   C35   S    
C62   C63   S    
O12   C52   A    
C6    C30   A    
O3    V1    S    
C59   H40   S    
C64   H42   S    
C61   H37   S    
C39   C47   S    
C43   C47   S    
C23   H55   S    
C35   H29   S    
C35   C43   S    
C24   H56   S    
C10   C12   A    
C1    C44   S    
C6    H58   S    
C68   H72   S    
C61   H35   S    
C69   H70   S    
C11   C13   A    
C3    C8    S    
C12   C14   A    
O16   V4    S    
C38   C42   S    
C19   C27   A    
C14   C16   A    
O7    V1    S    
C10   C32   A    
C1    O8    A    
C15   C17   A    
C13   C65   S    
O8    V2    S    
C67   H59   S    
C16   C18   A    
C33   C41   S    
C39   H49   S    
C8    C28   A    
C34   C42   S    
C36   C44   S    
C22   C24   A    
C54   C55   S    
C19   C21   A    
C17   C25   A    
C31   C50   S    
C20   C22   A    
C60   H38   S    
C18   C26   A    
C25   H73   S    
C57   C58   S    
C26   H74   S    
C40   C62   S    
C23   C25   A    
C9    C11   A    
O20   V3    S    
C38   C46   S    
C55   H16   S    
C17   C31   A    
O9    V2    S    
C58   H22   S    
C36   H32   S    
O10   V1    S    
C48   H12   S    
C5    C21   A    
C53   H20   S    
C59   C60   S    
C46   H14   S    
C36   H30   S    
O15   C51   A    
O6    C4    A    
C64   H43   S    
