data_mof_unit_29367.cif
_audit_creation_date              2013-03-05T15:49:57-0500
_audit_creation_method            fapswitch 2.2
_symmetry_space_group_name_H-M    P1
_symmetry_Int_Tables_number       1
_space_group_crystal_system       triclinic
_cell_length_a                    6.939947
_cell_length_b                    20.110758
_cell_length_c                    23.579977
_cell_angle_alpha                 93.263892
_cell_angle_beta                  90.389428
_cell_angle_gamma                 89.295735
_cell_volume                      3285.3528451

loop_
_atom_site_label
_atom_site_type_symbol
_atom_site_description
_atom_site_fract_x
_atom_site_fract_y
_atom_site_fract_z
_atom_type_partial_charge
O1    O     O_R   0.620100 0.812200 0.810870 -0.605328
O2    O     O_R   0.379900 0.187800 0.189130 -0.600345
O3    O     O_R   0.296960 0.671650 0.794750 -0.576937
O4    O     O_R   0.703040 0.328350 0.205250 -0.588781
O5    O     O_R   0.120160 0.687800 0.689130 -0.553159
O6    O     O_R   0.879840 0.312200 0.310870 -0.565334
C1    C     C_R   0.466505 0.647591 0.805642 1.099846
C2    C     C_R   0.534268 0.352434 0.194245 1.118751
O7    O     O_R   0.290810 0.810670 0.817290 -0.599095
O8    O     O_R   0.709190 0.189330 0.182710 -0.599109
O9    O     O_R   0.113980 0.827820 0.711840 -0.605048
O10   O     O_R   0.886020 0.172180 0.288160 -0.600932
C3    C     C_R   0.458296 0.833250 0.833333 1.000772
C4    C     C_R   0.540999 0.167535 0.166267 1.037437
O11   O     O_R   0.626290 0.672180 0.788160 -0.579801
O12   O     O_R   0.373710 0.327820 0.211840 -0.582625
O13   O     O_3   0.451520 0.755460 0.715370 -0.233163
O14   O     O_3   0.548480 0.244540 0.284630 -0.234850
V1    V     V_3+5 0.179200 0.748980 0.756420 1.294580
V2    V     V_3+5 0.820800 0.251020 0.243580 1.295938
O15   O     O_R   0.783880 0.828350 0.705250 -0.592650
O16   O     O_R   0.216120 0.171650 0.294750 -0.590283
C5    C     C_R   0.951210 0.853298 0.695955 1.037222
C6    C     C_R   0.048277 0.147540 0.305104 1.038888
O17   O     O_R   0.790030 0.689320 0.682700 -0.557726
O18   O     O_R   0.209970 0.310680 0.317300 -0.556181
C7    C     C_R   0.959901 0.668599 0.665426 1.057821
C8    C     C_R   0.040186 0.330601 0.334968 1.065964
V3    V     V_3+5 0.678400 0.751010 0.743570 1.301514
V4    V     V_3+5 0.321600 0.248990 0.256430 1.310035
O19   O     O_3   0.955950 0.744540 0.784620 -0.271290
O20   O     O_3   0.044050 0.255460 0.215380 -0.275071
C9    C     C_R   0.168656 0.427144 0.393113 -0.176893
C10   C     C_R   0.831124 0.570750 0.608044 -0.193664
C11   C     C_R   0.027942 0.378244 0.385377 -0.255188
C12   C     C_R   0.973083 0.619408 0.615854 -0.261705
C13   C     C_R   0.874110 0.376951 0.424217 0.319662
C14   C     C_R   0.128433 0.619385 0.577427 0.330817
C15   C     C_R   0.863382 0.425069 0.470438 -0.061632
C16   C     C_R   0.138221 0.571341 0.531284 -0.055130
C17   C     C_R   0.006127 0.474487 0.477583 0.012952
C18   C     C_R   0.994196 0.522512 0.523859 0.012243
C19   C     C_R   0.161239 0.475607 0.438672 0.063320
C20   C     C_R   0.839171 0.521613 0.562786 0.060715
C21   C     C_R   0.713187 0.423823 0.510015 -0.133107
C22   C     C_R   0.291974 0.571277 0.492827 -0.135997
C23   C     C_R   0.696894 0.471448 0.555888 0.126841
C24   C     C_R   0.305517 0.524930 0.446145 0.127003
H1    H     H_    0.282394 0.427363 0.362135 0.194791
H2    H     H_    0.716708 0.571005 0.638850 0.195656
H3    H     H_    0.608208 0.384906 0.504964 0.195414
H4    H     H_    0.402937 0.607867 0.499616 0.194211
C25   C     C_R   0.954762 0.914672 0.664564 -0.283179
C26   C     C_R   0.037898 0.086776 0.336999 -0.278119
C27   C     C_R   0.958012 0.035567 0.668589 0.447893
C28   C     C_R   0.971111 0.968572 0.334081 0.443789
C29   C     C_R   0.943801 0.975631 0.695384 -0.359397
C30   C     C_R   0.998541 0.027192 0.306508 -0.355238
C31   C     C_R   0.978895 0.912935 0.605220 0.290403
C32   C     C_R   0.063437 0.087246 0.396555 0.300420
C33   C     C_R   0.962890 0.973121 0.575738 -0.053737
C34   C     C_R   0.001367 0.031219 0.426413 -0.043972
C35   C     C_R   0.954647 0.035309 0.608121 -0.193099
C36   C     C_R   0.951859 0.971450 0.394139 -0.188801
C37   C     C_R   0.953502 0.973257 0.514958 0.058092
C38   C     C_R   0.982405 0.033000 0.487140 0.059536
C39   C     C_R   0.962933 0.093223 0.519971 -0.159581
C40   C     C_R   0.888282 0.917714 0.481805 -0.162972
C41   C     C_R   0.938669 0.094982 0.578867 0.357982
C42   C     C_R   0.878959 0.917066 0.422711 0.355943
H5    H     H_    0.001428 0.025614 0.260538 0.150482
H6    H     H_    0.937704 0.976409 0.741316 0.159294
H7    H     H_    0.943595 0.139573 0.499558 0.203867
H8    H     H_    0.823299 0.876591 0.501779 0.199488
C43   C     C_R   0.475162 0.584033 0.834592 -0.331717
C44   C     C_R   0.535188 0.415736 0.164578 -0.328477
C45   C     C_R   0.416672 0.465524 0.835868 -0.206324
C46   C     C_R   0.665784 0.526744 0.159719 -0.214496
C47   C     C_R   0.415062 0.523966 0.806250 0.353874
C48   C     C_R   0.617474 0.473061 0.192029 0.350602
C49   C     C_R   0.531124 0.584048 0.892243 -0.122536
C50   C     C_R   0.502396 0.414477 0.105320 -0.163447
C51   C     C_R   0.540044 0.524458 0.922044 0.148407
C52   C     C_R   0.569964 0.465827 0.071549 0.143630
C53   C     C_R   0.476972 0.465355 0.892771 0.063503
C54   C     C_R   0.645328 0.523293 0.100410 0.061202
C55   C     C_R   0.598254 0.521992 0.980701 -0.102587
C56   C     C_R   0.562233 0.462833 0.010348 -0.110113
C57   C     C_R   0.529405 0.402703 0.977026 0.343715
C58   C     C_R   0.696479 0.574979 0.010770 0.336623
C59   C     C_R   0.479365 0.405442 0.919697 -0.250804
C60   C     C_R   0.710954 0.575895 0.069967 -0.250578
H9    H     H_    0.448506 0.359573 0.895079 0.180605
H10   H     H_    0.783465 0.617021 0.092485 0.187312
H11   H     H_    0.428539 0.372267 0.086033 0.204167
H12   H     H_    0.558356 0.631635 0.913731 0.197946
H13   H     H_    0.371166 0.419368 0.814102 0.179980
H14   H     H_    0.726348 0.571014 0.180939 0.185548
C61   C     C_R   0.618424 0.054536 0.119291 0.085490
C62   C     C_R   0.373482 0.947031 0.880497 0.093792
C63   C     C_R   0.532459 0.118661 0.116304 -0.304392
C64   C     C_R   0.468515 0.883974 0.882199 -0.326436
C65   C     C_R   0.434154 0.135307 0.066206 0.302918
C66   C     C_R   0.585791 0.870245 0.929327 0.273494
C67   C     C_R   0.439647 0.091035 0.017363 -0.052839
C68   C     C_R   0.611968 0.918975 0.974241 -0.057798
C69   C     C_R   0.537004 0.029166 0.019038 -0.010662
C70   C     C_R   0.525210 0.982444 0.971412 -0.002537
C71   C     C_R   0.641962 0.013182 0.068374 0.044054
C72   C     C_R   0.422992 0.998945 0.921785 0.047598
C73   C     C_R   0.365573 0.110088 0.964991 -0.100912
C74   C     C_R   0.732573 0.906854 0.020665 -0.141717
C75   C     C_R   0.376052 0.067198 0.916005 0.119297
C76   C     C_R   0.765600 0.956190 0.064051 0.156285
H15   H     H_    0.314460 0.160582 0.960608 0.206693
H16   H     H_    0.814114 0.860742 0.021480 0.202663
N1    N     N_R   0.658669 0.476856 0.252197 0.223209
O21   O     O_R   0.562959 0.441582 0.286714 -0.460975
O22   O     O_R   0.787195 0.518033 0.273296 -0.408494
N2    N     N_R   0.348912 0.521268 0.748040 0.220616
O23   O     O_R   0.415009 0.561867 0.712038 -0.445687
O24   O     O_R   0.230512 0.475061 0.729701 -0.404676
N3    N     N_R   0.577806 0.338461 0.997306 0.242512
O25   O     O_R   0.733886 0.331019 0.027344 -0.351814
O26   O     O_R   0.491568 0.285539 0.976047 -0.390527
N4    N     N_R   0.810763 0.621800 0.982162 0.240509
O27   O     O_R   0.917092 0.601204 0.939245 -0.379842
O28   O     O_R   0.839727 0.681027 0.005577 -0.318028
C77   C     C_3   0.646783 0.026715 0.177836 -0.410243
C78   C     C_3   0.455324 0.018293 0.208426 -0.780889
H17   H     H_    0.381875 0.066622 0.218413 0.231010
H18   H     H_    0.357843 0.985805 0.181983 0.258084
H19   H     H_    0.482589 0.994550 0.249167 0.281695
H20   H     H_    0.711778 0.976352 0.175502 0.241590
H21   H     H_    0.742670 0.059682 0.204270 0.190300
C79   C     C_3   0.193730 0.953157 0.843262 -0.412019
C80   C     C_3   0.021407 0.921006 0.870287 -0.735271
H22   H     H_    0.054126 0.868868 0.879729 0.301472
H23   H     H_    0.982815 0.949125 0.910634 0.239787
H24   H     H_    0.895482 0.921710 0.841005 0.219121
H25   H     H_    0.146114 0.004768 0.837699 0.208458
H26   H     H_    0.219850 0.930829 0.799845 0.188551
N5    N     N_R   0.317672 0.194937 0.066171 0.248203
O29   O     O_R   0.136489 0.191422 0.051844 -0.367393
O30   O     O_R   0.385709 0.251505 0.086048 -0.401846
N6    N     N_R   0.658950 0.803861 0.934343 0.239161
O31   O     O_R   0.539163 0.755326 0.939219 -0.400803
O32   O     O_R   0.842336 0.790944 0.929495 -0.370709
C81   C     C_3   0.371556 0.098298 0.858625 -0.431328
C82   C     C_3   0.525103 0.151734 0.854428 -0.648514
H27   H     H_    0.492006 0.195913 0.883164 0.258852
H28   H     H_    0.669411 0.131352 0.865296 0.257576
H29   H     H_    0.529122 0.168252 0.810302 0.280217
H30   H     H_    0.404201 0.060700 0.823615 0.216968
H31   H     H_    0.226879 0.120590 0.851197 0.235766
C83   C     C_3   0.952424 0.951417 0.097824 -0.383876
C84   C     C_3   0.128364 0.947153 0.058934 -0.818834
H32   H     H_    0.131126 0.899851 0.032290 0.271436
H33   H     H_    0.127273 0.989731 0.030917 0.258946
H34   H     H_    0.261985 0.948970 0.085026 0.253572
H35   H     H_    0.974309 0.996318 0.126585 0.198936
H36   H     H_    0.949876 0.906861 0.123579 0.242110
N7    N     N_R   0.731056 0.326091 0.417321 0.235900
O33   O     O_R   0.555573 0.341460 0.402953 -0.390609
O34   O     O_R   0.777692 0.264047 0.423253 -0.339048
N8    N     N_R   0.274827 0.668894 0.584458 0.229507
O35   O     O_R   0.282409 0.715992 0.549055 -0.293463
O36   O     O_R   0.424603 0.657340 0.615951 -0.376182
C85   C     C_3   0.530781 0.469178 0.597972 -0.348087
C86   C     C_3   0.381954 0.414413 0.586470 -0.722048
H37   H     H_    0.314683 0.418477 0.543986 0.236838
H38   H     H_    0.449951 0.364463 0.589601 0.279212
H39   H     H_    0.265996 0.419958 0.618648 0.288792
H40   H     H_    0.592008 0.462849 0.641025 0.240555
H41   H     H_    0.451653 0.517481 0.598581 0.230927
C87   C     C_3   0.471166 0.527622 0.403924 -0.347963
C88   C     C_3   0.619433 0.582601 0.415308 -0.717293
H42   H     H_    0.549867 0.632491 0.413616 0.283471
H43   H     H_    0.690590 0.577662 0.457124 0.233219
H44   H     H_    0.732614 0.578196 0.382223 0.289300
H45   H     H_    0.550612 0.479359 0.402799 0.234062
H46   H     H_    0.408822 0.534480 0.361099 0.244802
N9    N     N_R   0.878408 0.156999 0.606892 0.265337
O37   O     O_R   0.955222 0.212516 0.593141 -0.310031
O38   O     O_R   0.722865 0.159415 0.637504 -0.319317
N10   N     N_R   0.775436 0.863961 0.393244 0.264473
O39   O     O_R   0.793469 0.803286 0.409206 -0.296978
O40   O     O_R   0.638142 0.877806 0.357768 -0.329845
N11   N     N_R   0.175969 0.139159 0.424697 0.230588
O41   O     O_R   0.145813 0.201420 0.414870 -0.370842
O42   O     O_R   0.318877 0.123608 0.457632 -0.347445
N12   N     N_R   0.043493 0.851862 0.576608 0.227692
O43   O     O_R   0.949448 0.796933 0.581597 -0.398040
O44   O     O_R   0.196749 0.851375 0.545083 -0.312614
N13   N     N_R   0.992958 0.094992 0.703697 0.252551
O45   O     O_R   0.904179 0.104824 0.751947 -0.401014
O46   O     O_R   0.140007 0.131857 0.693314 -0.332230
N14   N     N_R   0.977489 0.906416 0.300818 0.261011
O47   O     O_R   0.906220 0.902413 0.249574 -0.395641
O48   O     O_R   0.084062 0.857490 0.317588 -0.297919

loop_
_geom_bond_atom_site_label_1
_geom_bond_atom_site_label_2
_geom_bond_distance
_ccdc_geom_bond_type
C51   C55   1.441656 A    
C55   C56   1.439132 A    
C62   C72   1.429838 A    
C84   H32   1.109793 S    
N5    O30   1.298566 A    
O13   V3    1.708336 S    
C17   C18   1.417592 A    
C60   H10   1.084361 S    
C27   N13   1.436691 S    
N7    O33   1.300201 A    
O4    C2    1.292296 A    
V1    O19   1.695513 S    
C74   C76   1.403727 A    
C25   C31   1.408861 A    
N3    O25   1.301925 A    
C15   C17   1.414332 A    
C26   C32   1.413778 A    
C87   H46   1.111034 S    
C80   H23   1.111351 S    
O9    V1    1.997367 S    
N4    O27   1.301951 A    
C43   C47   1.412982 A    
C68   C70   1.409411 A    
C83   C84   1.530642 S    
C11   C13   1.412756 A    
C52   C54   1.411655 A    
C77   C78   1.531967 S    
O3    C1    1.296374 A    
N9    O38   1.301507 A    
V2    O20   1.695513 S    
C9    C11   1.398138 A    
C46   C48   1.401582 A    
C30   H5    1.082950 S    
N3    O26   1.301170 A    
C86   H37   1.109161 S    
C21   H3    1.076909 S    
C40   H8    1.079609 S    
N5    O29   1.301494 A    
C61   C71   1.430189 A    
C22   H4    1.076556 S    
C2    C44   1.487184 S    
C32   C34   1.434287 A    
C85   C86   1.530839 S    
N11   O42   1.301566 A    
O7    C3    1.299152 A    
C79   H26   1.109409 S    
C49   C51   1.423817 A    
C77   H21   1.108609 S    
O7    V1    2.001246 S    
O6    C8    1.294499 A    
C35   C41   1.420637 A    
C8    C11   1.485864 S    
O8    V2    2.001247 S    
C32   N11   1.440264 S    
C88   H43   1.108744 S    
C82   H29   1.110721 S    
C27   C35   1.425593 A    
C46   H14   1.084113 S    
C34   C36   1.429851 A    
C69   C70   1.425209 A    
C28   C36   1.421177 A    
N14   O48   1.301519 A    
O3    V1    2.005518 S    
N14   O47   1.301144 A    
C39   H7    1.079693 S    
C36   C42   1.417110 A    
C28   C30   1.393992 A    
C57   C59   1.397364 A    
C19   C24   1.421143 A    
O14   V2    2.137963 S    
C20   C23   1.422257 A    
C15   C21   1.405190 A    
C46   C54   1.402599 A    
C16   C18   1.412868 A    
C38   C39   1.405373 A    
C67   C73   1.405916 A    
N10   O39   1.301611 A    
C83   H36   1.111097 S    
C2    O12   1.304601 A    
C81   H30   1.109869 S    
O5    C7    1.294614 A    
N8    O36   1.299646 A    
C17   C19   1.420398 A    
C31   N12   1.435595 S    
C18   C20   1.419925 A    
C76   C83   1.521856 S    
C23   C85   1.528991 S    
N2    O24   1.301482 A    
O11   V3    1.989633 S    
N6    O32   1.300285 A    
C21   C23   1.407546 A    
O15   C5    1.295607 A    
O17   V3    1.997045 S    
C87   H45   1.109458 S    
C80   H24   1.110525 S    
C22   C24   1.404159 A    
C10   H2    1.079585 S    
C31   C33   1.432506 A    
C61   C77   1.529421 S    
C9    C19   1.409582 A    
C66   N6    1.433397 S    
C37   C40   1.404241 A    
C10   C20   1.413448 A    
C73   C75   1.403438 A    
O8    C4    1.300759 A    
C44   C50   1.413041 A    
C28   N14   1.437750 S    
C34   C38   1.437234 A    
C43   C49   1.411255 A    
C4    C63   1.492025 S    
C68   C74   1.403991 A    
C1    O11   1.298851 A    
C57   N3    1.438118 S    
O15   V3    1.992111 S    
C77   H20   1.102314 S    
C39   C41   1.398453 A    
N12   O44   1.301365 A    
C84   H33   1.110815 S    
C6    C26   1.473671 S    
C78   H18   1.110001 S    
N9    O37   1.301579 A    
C79   H25   1.100085 S    
V4    O20   2.155663 S    
C75   C81   1.522536 S    
C59   H9    1.084422 S    
C67   C69   1.410939 A    
C58   C60   1.397872 A    
C85   H40   1.111258 S    
C88   H44   1.110035 S    
C47   N2    1.442656 S    
O10   V2    1.997368 S    
C62   C64   1.424638 A    
C58   N4    1.438286 S    
C45   C47   1.400819 A    
C82   H28   1.111333 S    
C65   C67   1.415498 A    
C64   C66   1.410913 A    
C72   C75   1.420739 A    
C71   C76   1.422669 A    
C41   N9    1.436745 S    
O14   V4    1.708336 S    
C40   C42   1.393829 A    
C87   C88   1.530926 S    
C51   C53   1.412840 A    
C83   H35   1.109345 S    
O18   V4    1.997045 S    
C84   H34   1.109198 S    
C50   C52   1.425165 A    
C27   C29   1.397249 A    
N8    O35   1.299504 A    
O16   C6    1.297201 A    
C78   H19   1.110963 S    
O1    C3    1.300605 A    
C16   C22   1.404943 A    
O12   V4    1.989633 S    
N10   O40   1.301653 A    
C12   C14   1.412992 A    
C53   C59   1.393425 A    
C74   H16   1.081462 S    
N2    O23   1.300441 A    
N6    O31   1.300408 A    
C26   C30   1.390931 A    
C49   H12   1.075283 S    
C48   N1    1.443296 S    
N4    O28   1.301337 A    
C50   H11   1.074117 S    
O16   V4    1.992109 S    
N7    O34   1.300216 A    
V3    O19   2.155665 S    
C33   C35   1.428486 A    
C44   C48   1.414326 A    
C79   C80   1.526651 S    
C65   N5    1.437995 S    
C1    C43   1.483344 S    
C70   C72   1.417706 A    
C66   C68   1.413728 A    
O5    V1    1.995139 S    
C14   N8    1.433454 S    
C7    C12   1.490279 S    
C85   H41   1.109420 S    
O6    V2    1.995138 S    
C80   H22   1.104810 S    
O10   C6    1.294559 A    
O18   C8    1.303263 A    
C13   N7    1.435986 S    
O2    V4    1.992611 S    
N12   O43   1.301402 A    
N1    O22   1.301561 A    
C78   H17   1.106032 S    
C81   H31   1.111423 S    
C13   C15   1.417423 A    
C54   C60   1.394471 A    
N1    O21   1.300599 A    
C14   C16   1.414826 A    
O1    V3    1.992612 S    
C69   C71   1.418645 A    
C52   C56   1.441596 A    
C86   H38   1.110653 S    
C86   H39   1.110054 S    
C5    C25   1.475460 S    
O9    C5    1.296436 A    
O13   V1    2.137962 S    
C25   C29   1.390626 A    
C10   C12   1.400990 A    
C37   C38   1.418272 A    
C29   H6    1.083413 S    
N11   O41   1.300465 A    
O2    C4    1.295635 A    
C42   N10   1.437750 S    
C45   C53   1.402963 A    
N13   O45   1.301556 A    
O4    V2    2.005516 S    
C33   C37   1.434385 A    
C56   C57   1.423988 A    
C63   C65   1.414729 A    
C88   H42   1.110723 S    
C55   C58   1.424149 A    
C82   H27   1.108964 S    
C73   H15   1.081803 S    
C45   H13   1.084221 S    
C24   C87   1.529344 S    
C3    C64   1.496711 S    
C81   C82   1.530324 S    
C9    H1    1.079312 S    
C61   C63   1.419454 A    
C62   C79   1.528356 S    
N13   O46   1.301432 A    
O17   C7    1.305556 A    
