data_mof_unit_67251.cif
_audit_creation_date              2013-03-05T16:01:27-0500
_audit_creation_method            fapswitch 2.2
_symmetry_space_group_name_H-M    P1
_symmetry_Int_Tables_number       1
_space_group_crystal_system       triclinic
_cell_length_a                    20.394747
_cell_length_b                    21.948487
_cell_length_c                    9.078548
_cell_angle_alpha                 90.822913
_cell_angle_beta                  93.157489
_cell_angle_gamma                 89.520168
_cell_volume                      4057.16041496

loop_
_atom_site_label
_atom_site_type_symbol
_atom_site_description
_atom_site_fract_x
_atom_site_fract_y
_atom_site_fract_z
_atom_type_partial_charge
P1    P     P_3+3 0.136530 0.426510 0.931350 0.584913
P2    P     P_3+3 0.136530 0.573490 0.431350 0.609249
P3    P     P_3+3 0.636530 0.926510 0.931350 0.565691
P4    P     P_3+3 0.636530 0.073490 0.431350 0.636105
O1    O     O_2   0.130070 0.404060 0.104920 -0.338929
O2    O     O_2   0.130070 0.595940 0.604920 -0.351272
O3    O     O_2   0.630070 0.904060 0.104920 -0.330441
O4    O     O_2   0.630070 0.095940 0.604920 -0.357962
O5    O     O_3   0.075780 0.466370 0.861070 -0.292063
O6    O     O_3   0.075780 0.533630 0.361070 -0.309809
O7    O     O_3   0.575780 0.966370 0.861070 -0.302028
O8    O     O_3   0.575780 0.033630 0.361070 -0.300053
O9    O     O_3   0.022320 0.344950 0.359800 -0.307418
O10   O     O_3   0.022320 0.655050 0.859800 -0.276385
O11   O     O_3   0.522320 0.844950 0.359800 -0.292862
O12   O     O_3   0.522320 0.155050 0.859800 -0.252245
O13   O     O_2   0.131386 0.292016 0.273025 -0.358857
O14   O     O_2   0.138071 0.696947 0.778054 -0.402794
O15   O     O_2   0.629833 0.792559 0.273032 -0.347548
O16   O     O_2   0.636138 0.199053 0.773503 -0.408103
O17   O     O_3   0.210604 0.463219 0.984760 -0.625369
O18   O     O_3   0.216729 0.544234 0.472487 -0.605504
O19   O     O_3   0.710969 0.963189 0.984606 -0.589556
O20   O     O_3   0.716003 0.043220 0.465025 -0.565992
O21   O     O_3   0.045021 0.218279 0.359529 -0.477334
O22   O     O_3   0.059094 0.777717 0.874707 -0.507040
O23   O     O_3   0.543589 0.717989 0.357244 -0.487914
O24   O     O_3   0.558069 0.278014 0.884579 -0.495548
H1    H     H_    0.021390 0.238483 0.144151 0.036960
H2    H     H_    0.073106 0.804638 0.664283 0.082618
H3    H     H_    0.475864 0.764705 0.218388 0.101667
H4    H     H_    0.564740 0.299449 0.666547 0.054501
C1    C     C_3   0.958089 0.167488 0.220955 0.101883
C2    C     C_3   0.976565 0.827017 0.735999 0.183858
C3    C     C_3   0.453174 0.672227 0.223453 0.080023
C4    C     C_3   0.478596 0.338196 0.761669 0.259526
H5    H     H_    0.915422 0.174672 0.142207 0.142658
H6    H     H_    0.961340 0.843559 0.626583 0.079850
H7    H     H_    0.406193 0.682827 0.161690 0.151516
H8    H     H_    0.464994 0.357468 0.653446 0.056600
P5    P     P_3+3 0.863410 0.426100 0.379280 0.530627
P6    P     P_3+3 0.863410 0.573900 0.879280 0.581868
P7    P     P_3+3 0.363410 0.926100 0.379280 0.528834
P8    P     P_3+3 0.363410 0.073900 0.879280 0.565739
P9    P     P_3+3 0.914529 0.294051 0.895703 0.615913
P10   P     P_3+3 0.915533 0.707248 0.392796 0.667241
P11   P     P_3+3 0.415266 0.793630 0.895955 0.612333
P12   P     P_3+3 0.413439 0.206125 0.401226 0.661888
O25   O     O_2   0.869860 0.403670 0.205810 -0.305387
O26   O     O_2   0.869860 0.596330 0.705810 -0.365181
O27   O     O_2   0.369860 0.903670 0.205810 -0.307146
O28   O     O_2   0.369860 0.096330 0.705810 -0.386856
O29   O     O_3   0.977590 0.344880 0.951200 -0.296636
O30   O     O_3   0.977590 0.655120 0.451200 -0.330585
O31   O     O_3   0.477590 0.844880 0.951200 -0.287377
O32   O     O_3   0.477590 0.155120 0.451200 -0.334534
O33   O     O_2   0.866758 0.296590 0.022752 -0.350869
O34   O     O_2   0.870354 0.705293 0.523561 -0.232987
O35   O     O_2   0.367157 0.797419 0.022377 -0.350293
O36   O     O_2   0.367875 0.201134 0.531029 -0.250853
O37   O     O_3   0.788644 0.465922 0.397338 -0.636033
O38   O     O_3   0.787535 0.535262 0.879345 -0.589598
O39   O     O_3   0.288502 0.965659 0.396683 -0.636622
O40   O     O_3   0.288110 0.035028 0.882007 -0.591426
O41   O     O_3   0.952389 0.224146 0.928115 -0.560059
O42   O     O_3   0.952736 0.779032 0.413521 -0.516042
O43   O     O_3   0.454198 0.724117 0.932451 -0.551885
O44   O     O_3   0.451456 0.276425 0.434113 -0.534405
C5    C     C_3   0.011139 0.219551 0.854213 0.129349
C6    C     C_3   0.014590 0.777273 0.350176 0.103056
C7    C     C_3   0.508961 0.717163 0.846190 0.157873
C8    C     C_3   0.504023 0.280220 0.339662 0.131320
H9    H     H_    0.045616 0.256771 0.887428 0.038480
H10   H     H_    0.046574 0.742539 0.406250 0.023394
H11   H     H_    0.544455 0.754714 0.867784 0.049465
H12   H     H_    0.539571 0.242524 0.361824 0.020774
H13   H     H_    0.000173 0.221366 0.733789 0.213569
H14   H     H_    0.009933 0.765737 0.231855 0.125955
H15   H     H_    0.492851 0.716056 0.727309 0.173284
H16   H     H_    0.485441 0.277035 0.222615 0.195259
C9    C     C_3   0.043719 0.159012 0.898861 0.188720
C10   C     C_3   0.050142 0.838518 0.371406 0.151865
C11   C     C_3   0.543012 0.657412 0.890886 0.198307
C12   C     C_3   0.541395 0.339902 0.368931 0.172407
H17   H     H_    0.078500 0.166474 0.995568 0.079384
H18   H     H_    0.103565 0.829952 0.392155 0.098209
H19   H     H_    0.576282 0.665611 0.989958 0.083727
H20   H     H_    0.592661 0.330027 0.409981 0.093122
C13   C     C_3   0.774193 0.484831 0.785723 0.714362
C14   C     C_3   0.768176 0.511243 0.297839 0.619983
C15   C     C_3   0.274093 0.985632 0.786020 0.701310
C16   C     C_3   0.267999 0.010228 0.295352 0.625046
H21   H     H_    0.804230 0.484233 0.687470 -0.009370
H22   H     H_    0.794419 0.509143 0.194169 0.087059
H23   H     H_    0.304076 0.985410 0.687648 -0.007340
H24   H     H_    0.293927 0.007183 0.191378 0.089690
C17   C     C_3   0.699514 0.488472 0.743663 0.160293
C18   C     C_3   0.693311 0.502586 0.272975 0.210587
C19   C     C_3   0.199730 0.991245 0.744500 0.176824
C20   C     C_3   0.193066 0.001879 0.271585 0.194538
H25   H     H_    0.673118 0.496789 0.845286 0.193930
H26   H     H_    0.670593 0.505064 0.381150 0.173420
H27   H     H_    0.173802 0.000721 0.846371 0.202881
H28   H     H_    0.170732 0.004374 0.380225 0.172778
Ba1   Ba    Ba6+2 0.999980 0.452130 0.155200 1.815262
Ba2   Ba    Ba6+2 0.999980 0.547870 0.655200 1.863183
Ba3   Ba    Ba6+2 0.499980 0.952130 0.155200 1.827485
Ba4   Ba    Ba6+2 0.499980 0.047870 0.655200 1.863279
C21   C     C_3   0.227285 0.513284 0.902985 0.667232
C22   C     C_3   0.232215 0.489445 0.405272 0.600915
C23   C     C_3   0.728942 0.012553 0.901526 0.606838
C24   C     C_3   0.726488 0.988326 0.394012 0.678984
C25   C     C_3   0.289774 0.496192 0.823331 0.215848
C26   C     C_3   0.306186 0.487297 0.373482 0.117958
C27   C     C_3   0.794497 0.999368 0.832586 -0.005747
C28   C     C_3   0.798776 0.984281 0.352073 0.127234
H29   H     H_    0.289595 0.520197 0.718958 0.151179
H30   H     H_    0.313811 0.455270 0.284939 0.161433
H31   H     H_    0.819494 0.041464 0.809515 0.156319
H32   H     H_    0.805894 0.949409 0.269310 0.141985
H33   H     H_    0.284244 0.447840 0.791211 0.107989
H34   H     H_    0.316973 0.531688 0.328898 0.192534
H35   H     H_    0.783804 0.975950 0.727133 0.158441
H36   H     H_    0.807881 0.026915 0.295569 0.202353
O45   O     O_3   0.924190 0.533610 0.949240 -0.304969
O46   O     O_3   0.924190 0.466390 0.449240 -0.396625
O47   O     O_3   0.424190 0.033610 0.949240 -0.311722
O48   O     O_3   0.424190 0.966390 0.449240 -0.390388
P13   P     P_3+3 0.088553 0.704402 0.900239 0.576526
P14   P     P_3+3 0.082510 0.288074 0.396483 0.639569
P15   P     P_3+3 0.588550 0.204297 0.899709 0.640123
P16   P     P_3+3 0.581482 0.787786 0.396625 0.642728
C29   C     C_3   0.996953 0.226071 0.244572 0.356926
C30   C     C_3   0.034721 0.784564 0.729082 0.223572
C31   C     C_3   0.478646 0.728664 0.303355 0.272319
C32   C     C_3   0.527544 0.286659 0.744721 0.269371
H37   H     H_    0.960465 0.261954 0.270904 0.104091
H38   H     H_    0.019478 0.741574 0.670928 0.138755
H39   H     H_    0.446883 0.741053 0.395089 0.076145
H40   H     H_    0.501368 0.245700 0.698904 0.133996
C33   C     C_R   0.226260 0.289687 0.001250 -0.183703
C34   C     C_R   0.251772 0.693879 0.464861 -0.084456
C35   C     C_R   0.724012 0.787801 0.000503 -0.051924
C36   C     C_R   0.731646 0.208848 0.500800 0.052418
C37   C     C_R   0.146737 0.347228 0.827749 0.039386
C38   C     C_R   0.147037 0.652274 0.330508 0.112003
C39   C     C_R   0.645958 0.846967 0.827820 -0.016509
C40   C     C_R   0.645270 0.153509 0.334368 0.090387
C41   C     C_R   0.106946 0.338353 0.695065 0.224762
C42   C     C_R   0.105814 0.661676 0.200382 0.102870
C43   C     C_R   0.606558 0.838628 0.694511 0.227919
C44   C     C_R   0.607210 0.160960 0.199815 0.100565
C45   C     C_R   0.125817 0.294159 0.586295 0.250972
C46   C     C_R   0.124477 0.704588 0.094265 0.240654
C47   C     C_R   0.625855 0.794847 0.585061 0.234182
C48   C     C_R   0.628027 0.201552 0.090657 0.299002
C49   C     C_R   0.178539 0.253842 0.617391 -0.168836
C50   C     C_R   0.170572 0.749801 0.131284 -0.213282
C51   C     C_R   0.679962 0.755807 0.614226 -0.153952
C52   C     C_R   0.678236 0.243271 0.122679 -0.164086
C53   C     C_R   0.212460 0.252997 0.755800 0.123615
C54   C     C_R   0.206744 0.750048 0.265524 0.032158
C55   C     C_R   0.712556 0.753421 0.753715 0.088743
C56   C     C_R   0.711356 0.246253 0.260315 0.059133
C57   C     C_R   0.196505 0.298736 0.861444 -0.122401
C58   C     C_R   0.200203 0.698654 0.358449 -0.113467
C59   C     C_R   0.695590 0.798180 0.860637 -0.118660
C60   C     C_R   0.696598 0.201113 0.365941 -0.080139
C61   C     C_R   0.792420 0.698644 0.930758 -0.049908
C62   C     C_R   0.796817 0.298830 0.426987 -0.041512
C63   C     C_R   0.293863 0.199659 0.931664 -0.041473
C64   C     C_R   0.297728 0.797710 0.425933 -0.038969
C65   C     C_R   0.775835 0.744729 0.036176 -0.063388
C66   C     C_R   0.785673 0.250356 0.527130 -0.037583
C67   C     C_R   0.278492 0.246751 0.036098 -0.056921
C68   C     C_R   0.294309 0.743593 0.514008 -0.037899
C69   C     C_R   0.839684 0.649780 0.977083 0.277307
C70   C     C_R   0.843046 0.348495 0.473906 0.204087
C71   C     C_R   0.340991 0.150651 0.977386 0.248019
C72   C     C_R   0.342768 0.847987 0.474353 0.165164
C73   C     C_R   0.863901 0.651512 0.122976 -0.279904
C74   C     C_R   0.865174 0.346738 0.622007 -0.198994
C75   C     C_R   0.365689 0.152953 0.123277 -0.232316
C76   C     C_R   0.365194 0.845257 0.621867 -0.166579
C77   C     C_R   0.859613 0.702340 0.215974 0.206266
C78   C     C_R   0.867128 0.293889 0.707695 0.200731
C79   C     C_R   0.361438 0.203867 0.217349 0.215820
C80   C     C_R   0.367892 0.792099 0.706806 0.177662
C81   C     C_R   0.812252 0.748061 0.175097 0.386880
C82   C     C_R   0.828385 0.244070 0.654838 0.398365
C83   C     C_R   0.316080 0.250877 0.173607 0.379539
C84   C     C_R   0.332514 0.740260 0.651035 0.266726
C85   C     C_R   0.759935 0.705010 0.788157 0.133853
C86   C     C_R   0.758476 0.294776 0.291695 -0.032600
C87   C     C_R   0.260047 0.204888 0.790552 0.112790
C88   C     C_R   0.254385 0.797927 0.297743 -0.033640
H41   H     H_    0.191076 0.220595 0.533906 0.199181
H42   H     H_    0.180054 0.784048 0.050743 0.205259
H43   H     H_    0.693895 0.723970 0.528942 0.197794
H44   H     H_    0.690327 0.274999 0.038646 0.177791
H45   H     H_    0.890343 0.612338 0.161186 0.221814
H46   H     H_    0.882943 0.387775 0.670188 0.147135
H47   H     H_    0.391592 0.113569 0.161068 0.217386
H48   H     H_    0.382562 0.886288 0.671109 0.147626
H49   H     H_    0.200696 0.311009 0.085161 0.250649
H50   H     H_    0.263144 0.648122 0.490810 0.227253
H51   H     H_    0.696101 0.806728 0.082854 0.212905
H52   H     H_    0.711972 0.186046 0.590322 0.178743
H53   H     H_    0.688635 0.527473 0.672652 0.170620
H54   H     H_    0.683225 0.456267 0.228297 0.142946
H55   H     H_    0.189929 0.030173 0.672545 0.166467
H56   H     H_    0.182563 0.955607 0.226719 0.139170
S1    S     S_3+6 0.659879 0.425497 0.650890 -0.043635
O49   O     O_2   0.703174 0.395218 0.543059 -0.285653
O50   O     O_2   0.640313 0.380098 0.762074 -0.310174
O51   O     O_3   0.591807 0.451944 0.560200 -0.476680
H57   H     H_    0.556154 0.447061 0.628784 0.376040
S2    S     S_3+6 0.651601 0.556922 0.156113 0.011824
O52   O     O_2   0.603385 0.525470 0.050341 -0.274026
O53   O     O_2   0.614882 0.600961 0.250208 -0.265366
O54   O     O_3   0.706084 0.594722 0.061622 -0.502422
H58   H     H_    0.691935 0.637935 0.066864 0.377232
S3    S     S_3+6 0.158424 0.928681 0.655347 -0.038236
O55   O     O_2   0.200142 0.897230 0.545977 -0.290255
O56   O     O_2   0.139884 0.884531 0.770247 -0.298042
O57   O     O_3   0.089797 0.955762 0.568055 -0.477186
H59   H     H_    0.053940 0.947470 0.634129 0.376981
S4    S     S_3+6 0.151182 0.056509 0.155753 0.027003
O58   O     O_2   0.100518 0.025492 0.055297 -0.228946
O59   O     O_2   0.117322 0.102019 0.251404 -0.271932
O60   O     O_3   0.204687 0.092431 0.054581 -0.505546
H60   H     H_    0.192323 0.136076 0.060771 0.379933
S5    S     S_3+6 0.232842 0.576177 0.029370 -0.043543
O61   O     O_2   0.212622 0.633319 0.954441 -0.331262
O62   O     O_2   0.183408 0.562618 0.137524 -0.436752
O63   O     O_3   0.303957 0.589626 0.122911 -0.443115
H61   H     H_    0.296487 0.628138 0.177848 0.373350
S6    S     S_3+6 0.198659 0.431259 0.507032 -0.028757
O64   O     O_2   0.244392 0.384368 0.571809 -0.264135
O65   O     O_2   0.160618 0.459285 0.626242 -0.378194
O66   O     O_3   0.146585 0.398563 0.386231 -0.457165
H62   H     H_    0.116006 0.431230 0.353651 0.386638
S7    S     S_3+6 0.736849 0.077038 0.020347 -0.060663
O67   O     O_2   0.710738 0.130560 0.937891 -0.319943
O68   O     O_2   0.693650 0.067158 0.142884 -0.414484
O69   O     O_3   0.812593 0.092542 0.093171 -0.459799
H63   H     H_    0.842840 0.091688 0.012195 0.377112
S8    S     S_3+6 0.693896 0.931220 0.500395 -0.024182
O70   O     O_2   0.658667 0.960802 0.622347 -0.385336
O71   O     O_2   0.644161 0.901492 0.398435 -0.220860
O72   O     O_3   0.746254 0.879303 0.570322 -0.469410
H64   H     H_    0.745527 0.883798 0.678508 0.356828
H65   H     H_    0.187691 0.526029 0.820902 0.050109
H66   H     H_    0.206720 0.485818 0.295617 0.083221
H67   H     H_    0.690826 0.025031 0.816052 0.069899
H68   H     H_    0.697431 0.985111 0.288130 0.064465
S9    S     S_3+6 0.368450 0.502166 0.924043 0.143336
O73   O     O_2   0.389215 0.567048 0.944655 -0.160202
O74   O     O_2   0.363841 0.473110 0.070599 -0.216593
O75   O     O_3   0.428421 0.466501 0.836943 -0.423555
H69   H     H_    0.469760 0.480083 0.889350 0.381914
S10   S     S_3+6 0.372545 0.473442 0.506084 0.102478
O76   O     O_2   0.432677 0.457934 0.424774 -0.168111
O77   O     O_2   0.387149 0.529877 0.595807 -0.115692
O78   O     O_3   0.359805 0.415257 0.615875 -0.479868
H70   H     H_    0.367194 0.379042 0.553575 0.425499
S11   S     S_3+6 0.854492 0.956696 0.939092 0.093212
O79   O     O_2   0.872981 0.986103 0.084923 -0.241636
O80   O     O_2   0.828490 0.894301 0.962755 -0.177182
O81   O     O_3   0.922961 0.952480 0.845523 -0.435877
H71   H     H_    0.940229 0.994550 0.846723 0.378242
S12   S     S_3+6 0.865926 0.977390 0.485101 0.077133
O82   O     O_2   0.927553 0.971551 0.402812 -0.147652
O83   O     O_2   0.870741 0.033277 0.580137 -0.211383
O84   O     O_3   0.862048 0.916816 0.592136 -0.459016
H72   H     H_    0.872560 0.882264 0.527585 0.422318
S13   S     S_3+6 0.928104 0.144330 0.389985 0.103702
O85   O     O_2   0.934940 0.195982 0.499337 -0.304577
O86   O     O_2   0.857211 0.126995 0.370056 -0.186479
O87   O     O_3   0.974458 0.084975 0.447712 -0.360405
H73   H     H_    0.973203 0.086213 0.556216 0.438278
S14   S     S_3+6 0.910303 0.788489 0.811943 0.063761
O88   O     O_2   0.846494 0.810692 0.742373 -0.197525
O89   O     O_2   0.916017 0.721163 0.786516 -0.288774
O90   O     O_3   0.911712 0.801454 0.993278 -0.440521
H74   H     H_    0.948960 0.776600 0.032082 0.359362
S15   S     S_3+6 0.439119 0.611826 0.342158 0.088210
O91   O     O_2   0.493218 0.603592 0.457892 -0.097394
O92   O     O_2   0.376024 0.624322 0.413943 -0.306141
O93   O     O_3   0.434022 0.548471 0.238407 -0.382587
H75   H     H_    0.476322 0.545780 0.190068 0.395471
S16   S     S_3+6 0.407285 0.310291 0.842810 0.033156
O94   O     O_2   0.359902 0.288880 0.722032 -0.276295
O95   O     O_2   0.425969 0.258159 0.941204 -0.295752
O96   O     O_3   0.370671 0.363714 0.943046 -0.406659
H76   H     H_    0.323607 0.361857 0.911190 0.354031
S17   S     S_3+6 0.085655 0.122031 0.756042 -0.044060
O97   O     O_2   0.157682 0.123146 0.794279 -0.345571
O98   O     O_2   0.062940 0.057234 0.745102 -0.266487
O99   O     O_3   0.072229 0.155303 0.593103 -0.507223
H77   H     H_    0.102366 0.133847 0.527614 0.422118
S18   S     S_3+6 0.040603 0.889141 0.219088 0.064653
O100  O     O_2   0.972827 0.886588 0.148013 -0.121003
O101  O     O_2   0.052604 0.952910 0.274909 -0.159301
O102  O     O_3   0.095296 0.871443 0.093760 -0.541960
H78   H     H_    0.088772 0.903080 0.017713 0.413845
S19   S     S_3+6 0.588356 0.623179 0.750139 -0.010509
O103  O     O_2   0.658864 0.618563 0.801940 -0.342824
O104  O     O_2   0.561632 0.560623 0.717857 -0.204106
O105  O     O_3   0.584196 0.663719 0.596519 -0.520882
H79   H     H_    0.614299 0.642237 0.530860 0.418508
S20   S     S_3+6 0.544025 0.387026 0.210905 0.042774
O106  O     O_2   0.481345 0.382596 0.117572 -0.168722
O107  O     O_2   0.552636 0.451747 0.262806 -0.191988
O108  O     O_3   0.607482 0.366161 0.111068 -0.550366
H80   H     H_    0.608563 0.397166 0.033060 0.405726
S21   S     S_3+6 0.030442 0.377564 0.656562 -0.000781
O109  O     O_2   0.041097 0.423490 0.540382 -0.228680
O110  O     O_2   0.987724 0.326589 0.600642 -0.419969
O111  O     O_3   0.984564 0.416004 0.774099 -0.456249
H81   H     H_    0.959081 0.446567 0.716948 0.357039
S22   S     S_3+6 0.031869 0.620971 0.150697 0.001422
O112  O     O_2   0.992149 0.587965 0.255744 -0.222447
O113  O     O_2   0.987125 0.670842 0.096842 -0.427411
O114  O     O_3   0.046776 0.568417 0.019549 -0.414430
H82   H     H_    0.089420 0.578238 0.980067 0.349147
S23   S     S_3+6 0.530178 0.878066 0.655924 0.006927
O115  O     O_2   0.540553 0.923798 0.538747 -0.173307
O116  O     O_2   0.487654 0.826875 0.600972 -0.464521
O117  O     O_3   0.484270 0.916371 0.773779 -0.456613
H83   H     H_    0.458064 0.946376 0.716318 0.354607
S24   S     S_3+6 0.532909 0.121945 0.152024 -0.015598
O118  O     O_2   0.492499 0.088018 0.254221 -0.249140
O119  O     O_2   0.489299 0.172940 0.100375 -0.379923
O120  O     O_3   0.550059 0.071393 0.019052 -0.444708
H84   H     H_    0.580962 0.042401 0.068326 0.364141
S25   S     S_3+6 0.807337 0.813337 0.289976 0.033063
O121  O     O_2   0.802118 0.792989 0.444835 -0.203753
O122  O     O_2   0.868938 0.848914 0.277439 -0.223138
O123  O     O_3   0.744646 0.860659 0.254741 -0.500272
H85   H     H_    0.754370 0.880821 0.162167 0.359400
S26   S     S_3+6 0.834782 0.173014 0.743781 0.013230
O124  O     O_2   0.903159 0.147819 0.750403 -0.245095
O125  O     O_2   0.814573 0.185001 0.897401 -0.272332
O126  O     O_3   0.790105 0.118959 0.653986 -0.490978
H86   H     H_    0.751980 0.111221 0.712161 0.358084
S27   S     S_3+6 0.312373 0.316838 0.287240 0.018616
O127  O     O_2   0.299630 0.296234 0.439231 -0.204225
O128  O     O_2   0.377017 0.348661 0.287796 -0.241613
O129  O     O_3   0.255464 0.368679 0.238554 -0.512558
H87   H     H_    0.270555 0.385825 0.146109 0.352015
S28   S     S_3+6 0.335806 0.672658 0.756942 0.059683
O130  O     O_2   0.399689 0.641809 0.727837 -0.174773
O131  O     O_2   0.332792 0.686924 0.918320 -0.210304
O132  O     O_3   0.276218 0.622875 0.718314 -0.517651
H88   H     H_    0.235728 0.647524 0.714373 0.384507
H89   H     H_    0.770872 0.672371 0.703170 0.192093
H90   H     H_    0.764855 0.329188 0.209755 0.182001
H91   H     H_    0.269925 0.171293 0.706905 0.192872
H92   H     H_    0.256236 0.835991 0.223801 0.178798
H93   H     H_    0.989811 0.130653 0.179092 0.140693
H94   H     H_    0.991072 0.866701 0.806428 0.179162
H95   H     H_    0.489764 0.656231 0.147265 0.109843
H96   H     H_    0.501512 0.374719 0.832005 0.148475
H97   H     H_    0.005978 0.126534 0.931977 0.152957
H98   H     H_    0.032650 0.862918 0.468201 0.118259
H99   H     H_    0.505807 0.623469 0.918859 0.175069
H100  H     H_    0.517826 0.366981 0.454465 0.146735
S29   S     S_3+6 0.789908 0.420052 0.895648 -0.039162
O133  O     O_2   0.862453 0.418727 0.929414 -0.265136
O134  O     O_2   0.754771 0.426741 0.035266 -0.375997
O135  O     O_3   0.764293 0.355292 0.812581 -0.538635
H101  H     H_    0.756302 0.326994 0.893186 0.377945
S30   S     S_3+6 0.783966 0.581803 0.390754 -0.053239
O136  O     O_2   0.753717 0.635986 0.314449 -0.317711
O137  O     O_2   0.759426 0.581154 0.542317 -0.361441
O138  O     O_3   0.865179 0.587511 0.401335 -0.535905
H102  H     H_    0.880058 0.558619 0.476780 0.403076
S31   S     S_3+6 0.288929 0.919670 0.893155 -0.030068
O139  O     O_2   0.361339 0.918065 0.928787 -0.264948
O140  O     O_2   0.253153 0.925432 0.032120 -0.371473
O141  O     O_3   0.263777 0.855182 0.807477 -0.523787
H103  H     H_    0.254624 0.826586 0.886955 0.381105
S32   S     S_3+6 0.284836 0.081127 0.384915 -0.050621
O142  O     O_2   0.255794 0.135026 0.305275 -0.317904
O143  O     O_2   0.260033 0.082316 0.536366 -0.358134
O144  O     O_3   0.366237 0.085014 0.395594 -0.541022
H104  H     H_    0.380159 0.058924 0.477662 0.406406

loop_
_geom_bond_atom_site_label_1
_geom_bond_atom_site_label_2
_geom_bond_distance
_ccdc_geom_bond_type
C19   H27   1.106669 S    
C29   H37   1.111562 S    
C76   H48   1.054841 S    
C49   C53   1.400921 A    
S22   O113  1.489766 D    
S3    O55   1.499949 D    
P5    O37   1.765505 S    
C32   H40   1.113129 S    
S25   O121  1.490851 D    
S3    O57   1.678608 S    
P7    O39   1.764429 S    
O1    Ba1   2.904038 S    
P8    O40   1.764565 S    
C31   H39   1.112272 S    
P9    O33   1.550405 D    
S14   O88   1.495873 D    
P5    Ba1   3.592640 S    
C62   C70   1.489391 A    
C46   C50   1.397400 A    
P13   C46   1.870099 S    
S22   O114  1.683783 S    
P4    C40   1.989605 S    
C20   H28   1.109399 S    
P16   C47   1.895717 S    
O135  H101  0.987784 S    
C83   S27   1.769118 S    
C41   C45   1.439513 A    
C38   C42   1.428188 A    
O11   P16   1.756165 S    
C44   C48   1.426223 A    
S12   O82   1.500745 D    
C6    H10   1.109993 S    
O9    P14   1.765612 S    
S15   O92   1.495699 D    
C43   C47   1.440471 A    
P4    O8    1.619442 S    
O21   C29   1.403247 S    
S29   O135  1.673379 S    
C74   H46   1.053852 S    
C82   S26   1.767036 S    
P8    C71   1.956778 S    
P5    O25   1.655085 D    
S4    O58   1.500996 D    
S8    O71   1.483822 D    
S18   O101  1.499122 D    
S1    O50   1.500310 D    
C23   H67   1.103416 S    
S6    O65   1.488949 D    
P7    C72   1.989028 S    
C27   H35   1.092266 S    
O117  H83   0.982221 S    
C56   C60   1.433811 A    
O123  H85   0.985908 S    
C63   C87   1.426739 A    
S26   O124  1.494308 D    
C61   C85   1.429560 A    
C18   H26   1.109171 S    
C78   C82   1.416993 A    
S21   O111  1.672379 S    
O132  H88   0.982692 S    
O44   C8    1.412957 S    
S28   O130  1.497896 D    
O2    Ba2   2.924872 S    
O87   H73   0.986775 S    
P6    Ba2   3.575890 S    
C8    C12   1.533563 S    
C39   C59   1.489211 A    
C14   S30   1.776122 S    
C2    S14   1.776308 S    
C3    S15   1.755711 S    
C64   C88   1.422173 A    
C35   C65   1.438767 A    
O144  H104  0.974601 S    
S25   O123  1.660761 S    
O99   H77   0.990136 S    
C62   C66   1.436929 A    
C44   S24   1.776650 S    
C23   S7    1.770215 S    
C1    C29   1.522467 S    
C73   H45   1.063316 S    
C12   H20   1.111142 S    
S26   O126  1.676580 S    
S32   O143  1.490783 D    
Ba1   O45   2.969015 S    
S16   O95   1.495635 D    
C26   S10   1.788141 S    
Ba3   O47   2.969015 S    
O42   C6    1.414951 S    
C22   H66   1.099597 S    
S12   O84   1.662957 S    
C16   S32   1.772687 S    
C50   H42   1.082052 S    
C34   H50   1.055835 S    
O129  H87   0.990039 S    
C6    C10   1.537291 S    
P3    O7    1.618135 S    
P11   O35   1.551395 D    
O120  H84   0.986234 S    
O27   Ba3   2.929248 S    
C36   C66   1.443176 A    
O40   C15   1.402553 S    
S19   O104  1.500502 D    
S4    O60   1.673804 S    
C53   C57   1.426469 A    
C72   C76   1.393071 A    
P1    Ba1   3.572993 S    
C21   S5    1.782604 S    
P3    C39   1.983817 S    
C5    H13   1.104995 S    
O20   C24   1.378978 S    
C7    H15   1.110709 S    
C19   H55   1.093393 S    
Ba2   O45   3.178027 S    
C17   H53   1.092939 S    
P15   C48   1.872271 S    
C9    H97   1.109883 S    
S11   O81   1.675224 S    
C11   H99   1.109674 S    
C2    C30   1.505647 S    
S28   O132  1.660752 S    
C16   H24   1.107997 S    
O63   H61   0.990230 S    
S21   O110  1.489895 D    
O66   H62   0.984276 S    
O12   P15   1.755979 S    
S30   O136  1.496339 D    
O32   Ba4   3.032124 S    
S2    O53   1.503139 D    
H2    C30   1.103180 S    
Ba3   Ba4   4.974603 S    
S5    O61   1.480107 D    
C22   C26   1.551721 S    
C49   H41   1.083808 S    
C85   H89   1.076411 S    
P8    O28   1.669136 D    
C87   H91   1.076679 S    
S13   O85   1.498441 D    
P10   O34   1.543637 D    
O23   P16   1.745146 S    
S17   O98   1.499673 D    
C63   C71   1.484818 A    
O21   P14   1.737943 S    
C61   C69   1.485680 A    
C7    C11   1.528343 S    
C19   S3    1.778415 S    
C47   C51   1.407312 A    
C48   C52   1.395274 A    
S24   O118  1.486233 D    
C3    C31   1.507942 S    
S23   O116  1.488618 D    
S31   O141  1.675749 S    
P2    Ba2   3.589480 S    
C28   H32   1.079378 S    
S30   O138  1.659498 S    
C39   C43   1.425791 A    
P2    O18   1.774567 S    
O54   H58   0.990325 S    
O22   C30   1.396265 S    
C34   C58   1.392681 A    
C41   S21   1.795375 S    
S7    O69   1.681984 S    
Ba4   O48   2.952212 S    
C35   C59   1.387538 A    
C12   H100  1.100176 S    
P6    O26   1.669136 D    
C25   H29   1.090604 S    
C10   H98   1.097319 S    
C27   H31   1.087497 S    
P9    O41   1.733477 S    
O3    Ba3   2.904038 S    
C24   C28   1.544374 S    
O37   C14   1.398925 S    
C84   S28   1.778411 S    
S2    O54   1.673254 S    
O15   P16   1.539269 D    
O69   H63   0.985245 S    
O13   P14   1.544237 D    
C40   C44   1.421483 A    
O75   H69   0.990951 S    
O17   C21   1.389924 S    
S11   O79   1.495360 D    
C22   S6    1.752422 S    
C77   C81   1.425745 A    
S10   O76   1.500092 D    
O19   C23   1.392031 S    
C33   C57   1.392492 A    
S20   O108  1.677355 S    
C80   C84   1.424240 A    
S19   O105  1.662918 S    
O23   C31   1.405432 S    
C8    H16   1.109779 S    
S27   O129  1.665224 S    
C69   C73   1.387969 A    
C13   H21   1.109428 S    
S5    O63   1.666194 S    
C33   H49   1.049075 S    
C15   H23   1.109737 S    
C2    H94   1.105665 S    
O29   Ba1   2.996554 S    
C25   H33   1.101588 S    
S14   O90   1.665362 S    
S12   O83   1.490280 D    
O57   H59   0.990672 S    
S13   O87   1.676291 S    
O7    Ba4   2.968884 S    
C61   C65   1.433734 A    
C15   C19   1.546795 S    
C9    H17   1.109060 S    
C10   S18   1.787592 S    
S29   O134  1.494891 D    
C11   H19   1.109930 S    
P8    O47   1.622659 S    
O141  H103  0.989544 S    
O84   H72   0.981264 S    
S24   O120  1.676979 S    
S10   O78   1.662096 S    
S4    O59   1.502741 D    
S31   O139  1.494528 D    
C37   C57   1.487842 A    
S1    O49   1.498814 D    
P4    Ba4   3.589480 S    
S6    O66   1.645458 S    
P1    O1    1.670162 D    
C52   C56   1.388263 A    
P10   O42   1.757619 S    
P3    O3    1.670162 D    
P4    O20   1.759313 S    
S26   O125  1.495022 D    
C24   H68   1.102795 S    
S7    O67   1.481472 D    
O38   C13   1.405055 S    
C53   C87   1.454338 A    
P12   O32   1.759412 S    
O93   H75   0.990181 S    
C74   C78   1.404981 A    
O11   Ba3   3.034154 S    
C20   S4    1.787005 S    
C54   C58   1.429753 A    
P1    C37   1.981020 S    
C35   H51   1.043816 S    
O18   C22   1.382760 S    
S28   O131  1.498232 D    
C5    H9    1.109908 S    
C8    H12   1.108741 S    
C64   C72   1.487707 A    
C51   H43   1.083452 S    
S22   O112  1.485021 D    
O108  H80   0.990419 S    
C17   S1    1.784245 S    
C25   S9    1.807286 S    
C4    C32   1.514191 S    
S25   O122  1.495260 D    
C27   S11   1.784884 S    
C14   H22   1.108258 S    
C3    H95   1.097297 S    
O30   Ba2   3.032124 S    
S19   O103  1.491218 D    
P1    O5    1.618135 S    
P12   C79   1.928044 S    
O9    Ba1   3.034154 S    
S27   O127  1.495142 D    
C62   C86   1.421329 A    
C34   C68   1.449665 A    
C10   H18   1.110380 S    
C1    H5    1.107067 S    
C3    H7    1.107902 S    
O90   H74   0.983807 S    
C75   C79   1.401710 A    
C4    H96   1.107916 S    
S15   O91   1.492776 D    
P10   O30   1.763886 S    
S3    O56   1.499571 D    
O72   H64   0.986620 S    
S15   O93   1.669012 S    
P7    Ba3   3.592640 S    
P12   O44   1.747095 S    
O22   P13   1.727220 S    
C66   C82   1.418953 A    
H3    C31   1.111742 S    
O12   Ba4   2.998494 S    
C40   C60   1.498770 A    
O16   P15   1.544292 D    
C43   S23   1.795697 S    
O96   H76   0.988100 S    
S8    O70   1.490876 D    
H4    C32   1.107504 S    
S1    O51   1.678251 S    
S6    O64   1.488590 D    
C28   H36   1.095660 S    
O24   C32   1.397706 S    
S14   O89   1.496921 D    
P5    O46   1.624031 S    
P7    O48   1.624031 S    
O8    Ba3   2.952093 S    
O25   Ba1   2.929248 S    
Ba1   Ba2   4.974603 S    
Ba2   O46   2.952212 S    
S9    O75   1.675342 S    
S23   O115  1.497652 D    
S11   O80   1.495329 D    
P7    O27   1.655085 D    
O41   C5    1.407331 S    
C21   H65   1.105245 S    
S20   O107  1.498867 D    
O43   C7    1.405002 S    
P10   C77   1.919539 S    
C45   C49   1.405958 A    
O114  H82   0.985408 S    
C13   S29   1.765800 S    
C5    C9    1.530459 S    
O10   Ba2   2.998494 S    
O102  H78   0.989252 S    
O105  H79   0.990922 S    
C56   C86   1.455055 A    
C54   C88   1.452907 A    
O26   Ba2   2.908245 S    
O81   H71   0.990724 S    
O14   P13   1.546805 D    
C28   S12   1.782277 S    
C37   C41   1.426800 A    
C88   H92   1.081405 S    
C36   H52   1.059695 S    
O10   P13   1.758192 S    
P1    O17   1.759277 S    
C6    H14   1.099257 S    
S17   O97   1.491029 D    
P3    O19   1.764973 S    
P4    O4    1.656098 D    
S32   O142  1.496241 D    
C52   H44   1.080105 S    
C1    S13   1.765830 S    
S20   O106  1.497334 D    
C18   H54   1.105833 S    
S18   O102  1.676167 S    
Ba1   O46   3.167910 S    
C36   C60   1.392266 A    
S16   O94   1.494349 D    
S31   O140  1.495087 D    
S24   O119  1.488689 D    
Ba3   O48   3.167910 S    
S9    O73   1.495327 D    
C67   C83   1.430679 A    
P9    C78   1.914680 S    
C68   C84   1.433498 A    
C55   C85   1.455870 A    
P6    C69   1.946185 S    
P6    O45   1.622659 S    
S7    O68   1.476107 D    
O39   C16   1.398102 S    
O78   H70   0.984318 S    
C86   H90   1.081313 S    
C79   C83   1.425966 A    
S8    O72   1.663574 S    
C21   C25   1.540643 S    
C38   C58   1.502360 A    
O31   Ba3   2.996554 S    
P2    O2    1.656098 D    
O4    Ba4   2.924872 S    
P11   O43   1.741638 S    
P12   O36   1.546050 D    
C71   C75   1.391232 A    
P8    Ba4   3.575890 S    
P5    C70   1.976094 S    
C4    H8    1.095968 S    
O51   H57   0.990441 S    
C73   C77   1.394433 A    
C81   S25   1.765392 S    
S10   O77   1.495660 D    
P3    Ba3   3.572993 S    
O5    Ba2   2.968884 S    
C63   C67   1.436901 A    
C20   H56   1.106954 S    
C76   C80   1.406777 A    
C13   C17   1.551346 S    
S9    O74   1.491632 D    
C55   C59   1.425128 A    
C9    S17   1.775327 S    
S27   O128  1.496873 D    
C11   S19   1.772967 S    
H1    C29   1.101472 S    
C70   C74   1.395453 A    
S5    O62   1.480400 D    
O138  H102  0.974511 S    
C26   H30   1.077112 S    
S13   O86   1.498802 D    
S17   O99   1.667182 S    
C51   C55   1.398884 A    
P2    O6    1.619442 S    
S32   O144  1.660482 S    
C12   S20   1.784078 S    
C16   C20   1.543668 S    
P11   O31   1.752148 S    
S29   O133  1.494473 D    
C4    S16   1.782925 S    
P6    O38   1.770851 S    
S18   O100  1.494066 D    
C2    H6    1.090626 S    
S16   O96   1.670364 S    
C30   H38   1.112751 S    
S23   O117  1.673204 S    
P2    C38   1.986816 S    
C24   S8    1.750718 S    
O24   P15   1.733007 S    
C75   H47   1.060613 S    
O111  H81   0.981717 S    
C18   S2    1.786450 S    
P11   C80   1.923406 S    
C15   S31   1.770399 S    
C7    H11   1.109716 S    
S2    O52   1.501314 D    
C65   C81   1.429216 A    
S30   O137  1.490149 D    
P14   C45   1.896091 S    
Ba4   O47   3.178027 S    
S21   O109  1.495088 D    
C42   S22   1.792217 S    
C50   C54   1.389364 A    
P9    O29   1.757566 S    
C26   H34   1.089150 S    
C64   C68   1.445630 A    
C1    H93   1.107304 S    
O28   Ba4   2.908245 S    
C42   C46   1.425676 A    
O60   H60   0.990141 S    
C33   C67   1.441378 A    
O6    Ba1   2.952093 S    
C23   C27   1.530836 S    
O126  H86   0.981014 S    
C14   C18   1.544025 S    
C17   H25   1.105686 S    
