data_mof_unit_42282.cif
_audit_creation_date              2012-12-11T14:49:41-0500
_audit_creation_method            fapswitch 2.2
_symmetry_space_group_name_H-M    P1
_symmetry_Int_Tables_number       1
_space_group_crystal_system       triclinic
_cell_length_a                    16.979507
_cell_length_b                    7.020177
_cell_length_c                    16.777396
_cell_angle_alpha                 90.037963
_cell_angle_beta                  100.871885
_cell_angle_gamma                 90.04856
_cell_volume                      1963.95529308

loop_
_atom_site_label
_atom_site_type_symbol
_atom_type_description
_atom_site_fract_x
_atom_site_fract_y
_atom_site_fract_z
_atom_type_partial_charge
O1    O     O_R   0.579510 0.506290 0.439030 -0.534350
O2    O     O_R   0.420490 0.006290 0.560970 -0.533480
O3    O     O_R   0.412540 0.170090 0.405290 -0.542060
O4    O     O_R   0.587460 0.670090 0.594710 -0.546940
C1    C     C_R   0.383573 0.345576 0.383603 0.713237
C2    C     C_R   0.615947 0.845444 0.616830 0.713072
O5    O     O_R   0.578390 0.176230 0.429330 -0.538090
O6    O     O_R   0.421610 0.676230 0.570670 -0.528751
O7    O     O_R   0.587530 0.011250 0.585190 -0.543271
O8    O     O_R   0.412470 0.511250 0.414810 -0.529656
C3    C     C_R   0.603051 0.344421 0.411695 0.679213
C4    C     C_R   0.396806 0.844474 0.588199 0.735009
O9    O     O_3   0.502800 0.340940 0.551110 -0.368654
O10   O     O_3   0.497200 0.840940 0.448890 -0.367169
V1    V     V_3+5 0.499480 0.064020 0.490520 1.436827
V2    V     V_3+5 0.500520 0.564020 0.509480 1.451998
C5    C     C_R   0.169407 0.926258 0.865005 -0.098996
C6    C     C_R   0.830288 0.425838 0.134738 -0.092850
C7    C     C_R   0.337906 0.845641 0.644101 -0.154514
C8    C     C_R   0.661685 0.345355 0.355590 -0.144507
C9    C     C_R   0.229760 0.677717 0.691251 -0.196178
C10   C     C_R   0.771039 0.180024 0.309647 -0.191289
C11   C     C_R   0.283081 0.694149 0.638120 -0.178342
C12   C     C_R   0.717902 0.196907 0.362954 -0.199901
C13   C     C_R   0.338446 0.985085 0.705980 0.290109
C14   C     C_R   0.659201 0.480687 0.291934 0.284476
C15   C     C_R   0.282481 0.971292 0.760000 0.103313
C16   C     C_R   0.716084 0.468825 0.238760 0.100287
C17   C     C_R   0.228860 0.812811 0.752304 0.062492
C18   C     C_R   0.770961 0.312951 0.247640 0.065781
C19   C     C_R   0.173865 0.790579 0.805075 -0.215572
C20   C     C_R   0.826297 0.291320 0.195178 -0.225566
C21   C     C_R   0.222299 0.081567 0.873481 -0.159042
C22   C     C_R   0.776767 0.579751 0.125675 -0.170473
C23   C     C_R   0.278544 0.106883 0.822789 0.132388
C24   C     C_R   0.719970 0.604009 0.175901 0.135641
H1    H     H_    0.132473 0.671319 0.797531 0.135963
H2    H     H_    0.868387 0.173652 0.203430 0.124860
H3    H     H_    0.219023 0.186225 0.920318 0.162404
H4    H     H_    0.780014 0.684181 0.078814 0.160267
H5    H     H_    0.188986 0.557374 0.684636 0.135471
H6    H     H_    0.812765 0.061708 0.317183 0.131209
H7    H     H_    0.281658 0.585816 0.591819 0.163614
H8    H     H_    0.720399 0.091083 0.410363 0.141308
C25   C     C_3   0.812084 0.700992 0.768898 0.643561
C26   C     C_3   0.265237 0.375656 0.158329 0.642146
C27   C     C_3   0.743614 0.688834 0.692051 -0.415025
C28   C     C_3   0.338799 0.366540 0.231294 -0.526358
H9    H     H_    0.708943 0.554734 0.693907 0.160909
H10   H     H_    0.379133 0.490733 0.228973 0.137118
H11   H     H_    0.768264 0.680730 0.635215 0.130593
H12   H     H_    0.376178 0.238447 0.226484 0.155872
H13   H     H_    0.869575 0.041608 0.718842 0.159858
H14   H     H_    0.162308 0.103120 0.208506 0.234135
H15   H     H_    0.758722 0.034170 0.617012 0.153203
H16   H     H_    0.278363 0.064684 0.300816 0.184618
C29   C     C_3   0.814527 0.057082 0.744897 -0.499429
C30   C     C_3   0.174139 0.234035 0.245810 -0.485833
C31   C     C_3   0.729643 0.927282 0.843295 0.409948
C32   C     C_3   0.193747 0.593654 0.248616 0.395327
C33   C     C_3   0.811771 0.904741 0.811654 0.005481
C34   C     C_3   0.185032 0.410690 0.191541 -0.007237
C35   C     C_3   0.687131 0.863338 0.687670 -0.080177
C36   C     C_3   0.310918 0.366410 0.314320 -0.063812
C37   C     C_3   0.739350 0.041950 0.676718 -0.363473
C38   C     C_3   0.249577 0.201299 0.312872 -0.353825
C39   C     C_3   0.658091 0.876684 0.770913 0.154076
C40   C     C_3   0.267459 0.563088 0.321035 0.181443
H17   H     H_    0.635876 0.731937 0.782592 0.145030
H18   H     H_    0.312278 0.676362 0.316855 0.118540
H19   H     H_    0.818867 0.202750 0.770484 0.202726
H20   H     H_    0.120234 0.248393 0.273583 0.149943
H21   H     H_    0.703928 0.175110 0.675976 0.168318
H22   H     H_    0.231675 0.183563 0.372750 0.151488
O11   O     O_R   0.087500 0.266000 0.085220 -0.536653
O12   O     O_R   0.912500 0.766000 0.914780 -0.517299
O13   O     O_R   0.921600 0.589950 0.070670 -0.546237
O14   O     O_R   0.078400 0.089950 0.929330 -0.541918
C41   C     C_R   0.894578 0.422958 0.085574 0.691155
C42   C     C_R   0.105335 0.923006 0.914362 0.744484
O15   O     O_R   0.087460 0.596020 0.094710 -0.512143
O16   O     O_R   0.912540 0.096020 0.905290 -0.559939
O17   O     O_R   0.079520 0.760970 0.939020 -0.528996
O18   O     O_R   0.920480 0.260970 0.060980 -0.545483
C43   C     C_R   0.114419 0.426167 0.119633 0.772588
C44   C     C_R   0.884183 0.925381 0.881654 0.745326
O19   O     O_3   0.997180 0.425140 0.948910 -0.376723
O20   O     O_3   0.002820 0.925140 0.051090 -0.372809
V3    V     V_3+5 0.000520 0.702080 0.009480 1.505937
V4    V     V_3+5 0.999480 0.202080 0.990520 1.443975
C45   C     C_3   0.720165 0.129810 0.878050 -0.714058
H23   H     H_    0.771534 0.165754 0.927032 0.206110
H24   H     H_    0.713965 0.241365 0.830707 0.213629
H25   H     H_    0.665460 0.136432 0.905304 0.219484
C46   C     C_3   0.115885 0.636118 0.281655 -0.650974
H26   H     H_    0.063179 0.653852 0.232122 0.183229
H27   H     H_    0.100989 0.524932 0.323116 0.156992
H28   H     H_    0.123070 0.772399 0.316063 0.224254
O21   O     O_3   0.729633 0.797472 0.907528 -0.640607
H29   H     H_    0.676296 0.803117 0.923646 0.295567
O22   O     O_3   0.205681 0.757135 0.203136 -0.641012
H30   H     H_    0.262712 0.769012 0.198452 0.286507
O23   O     O_3   0.591445 0.997801 0.767893 -0.665222
H31   H     H_    0.603024 0.120405 0.743316 0.298092
O24   O     O_3   0.247828 0.590830 0.398346 -0.650118
H32   H     H_    0.217908 0.478418 0.412059 0.284968
C47   C     C_3   0.331321 0.281734 0.837824 -0.666768
H33   H     H_    0.395125 0.239019 0.855856 0.238574
H34   H     H_    0.322552 0.372235 0.782679 0.238768
H35   H     H_    0.316959 0.371714 0.887681 0.183479
C48   C     C_3   0.667216 0.778612 0.161070 -0.682374
H36   H     H_    0.603586 0.735730 0.141375 0.232786
H37   H     H_    0.674773 0.866957 0.216883 0.240550
H38   H     H_    0.682712 0.870711 0.112432 0.181119
O25   O     O_3   0.393734 0.131273 0.715616 -0.648095
H39   H     H_    0.444365 0.084210 0.701964 0.318908
O26   O     O_3   0.600534 0.619147 0.279152 -0.653336
H40   H     H_    0.550885 0.567806 0.293874 0.282278
O27   O     O_3   0.887485 0.664370 0.747333 -0.670143
H41   H     H_    0.892701 0.741157 0.699103 0.261715
O28   O     O_3   0.258956 0.205648 0.112110 -0.645943
H42   H     H_    0.271457 0.095015 0.148902 0.290171
O29   O     O_3   0.796217 0.557439 0.822740 -0.641432
H43   H     H_    0.846127 0.485921 0.843915 0.326097
O30   O     O_3   0.276748 0.525258 0.105949 -0.648633
H44   H     H_    0.324292 0.492670 0.082064 0.301725

loop_
_geom_bond_atom_site_label_1
_geom_bond_atom_site_label_2
_ccdc_geom_bond_type
C30   C34   S    
C35   C37   S    
O22   H30   S    
C15   C17   A    
C31   O21   S    
C26   O30   S    
C46   H26   S    
O1    C3    A    
C14   O26   S    
O2    C4    A    
C2    O7    A    
C46   H28   S    
C39   O23   S    
O29   H43   S    
C27   H9    S    
C25   O29   S    
O5    C3    A    
O13   V3    S    
C21   H3    S    
O18   V4    S    
C26   C34   S    
C22   H4    S    
C36   C40   S    
C28   H10   S    
C13   O25   S    
C27   C35   S    
C41   O18   A    
O14   C42   A    
C28   C36   S    
O25   H39   S    
C38   H22   S    
C37   H21   S    
C32   C34   S    
O11   V4    S    
C31   C39   S    
O11   C43   A    
C8    C12   A    
C6    C41   S    
C47   H33   S    
H16   C38   S    
C26   O28   S    
C20   H2    S    
O12   V3    S    
O15   V3    S    
C25   O27   S    
O13   C41   A    
O6    V2    S    
C47   H34   S    
C5    C21   A    
C42   O17   A    
H15   C37   S    
C30   C38   S    
C26   C28   S    
C25   C27   S    
O17   V3    S    
C34   C43   S    
C35   C39   S    
C3    C8    S    
C31   C33   S    
O4    C2    A    
C45   H23   S    
H13   C29   S    
C27   H11   S    
O5    V1    S    
C15   C23   A    
O16   C44   A    
C9    C17   A    
C5    C42   S    
O14   V4    S    
C19   H1    S    
C1    C36   S    
C39   H17   S    
C36   C38   S    
C2    C35   S    
O4    V2    S    
C7    C11   A    
C45   H24   S    
O21   H29   S    
C28   H12   S    
O6    C4    A    
C24   C48   S    
C48   H37   S    
O1    V2    S    
C31   C45   S    
C29   H19   S    
O2    V1    S    
C6    C22   A    
C32   C40   S    
O28   H42   S    
C9    H5    S    
O20   V4    S    
C9    C11   A    
O30   H44   S    
C5    C19   A    
C47   H35   S    
C10   C12   A    
O19   V4    S    
C6    C20   A    
C40   O24   S    
C32   O22   S    
O12   C44   A    
O3    V1    S    
H14   C30   S    
C10   C18   A    
C48   H36   S    
C11   H7    S    
C29   C37   S    
O3    C1    A    
O27   H41   S    
C46   H27   S    
C29   C33   S    
C13   C15   A    
O24   H32   S    
C14   C16   A    
O16   V4    S    
O19   V3    S    
O7    V1    S    
C16   C18   A    
C17   C19   A    
O8    V2    S    
O26   H40   S    
C45   H25   S    
C18   C20   A    
C30   H20   S    
C10   H6    S    
C8    C14   A    
C12   H8    S    
C4    C7    S    
C25   C33   S    
C21   C23   A    
C48   H38   S    
C22   C24   A    
C7    C13   A    
C23   C47   S    
C33   C44   S    
C32   C46   S    
C1    O8    A    
O20   V3    S    
C16   C24   A    
C40   H18   S    
O9    V2    S    
O23   H31   S    
O10   V1    S    
O15   C43   A    
