data_mof_unit_12389.cif
_audit_creation_date              2012-12-11T14:24:43-0500
_audit_creation_method            fapswitch 2.2
_symmetry_space_group_name_H-M    P1
_symmetry_Int_Tables_number       1
_space_group_crystal_system       triclinic
_cell_length_a                    19.180795
_cell_length_b                    10.973345
_cell_length_c                    18.741888
_cell_angle_alpha                 89.880678
_cell_angle_beta                  90.472735
_cell_angle_gamma                 90.778203
_cell_volume                      3944.23960696

loop_
_atom_site_label
_atom_site_type_symbol
_atom_type_description
_atom_site_fract_x
_atom_site_fract_y
_atom_site_fract_z
_atom_type_partial_charge
C1    C     C_R   0.729108 0.373789 0.144787 0.536101
C2    C     C_R   0.242381 0.901168 0.068619 -0.034472
C3    C     C_R   0.623167 0.522562 0.440548 -0.092760
C4    C     C_R   0.910369 0.124874 0.543110 -0.147629
C5    C     C_R   0.064902 0.031341 0.483602 -0.154146
C6    C     C_R   0.410369 0.624874 0.543110 -0.147629
C7    C     C_R   0.564902 0.531341 0.483602 -0.154146
C8    C     C_R   0.875447 0.181859 0.488980 -0.121388
C9    C     C_R   0.066741 0.983684 0.552318 -0.114509
C10   C     C_R   0.375447 0.681859 0.488980 -0.121388
C11   C     C_R   0.566741 0.483684 0.552318 -0.114509
C12   C     C_R   0.815320 0.128293 0.460651 -0.071198
C13   C     C_R   0.257727 0.401287 0.931593 -0.037067
C14   C     C_R   0.125717 0.926877 0.577596 -0.073457
C15   C     C_R   0.315320 0.628293 0.460651 -0.071197
C16   C     C_R   0.625717 0.426877 0.577596 -0.073457
C17   C     C_R   0.755392 0.931585 0.429181 0.013466
C18   C     C_R   0.252843 0.929186 0.570306 0.002989
C19   C     C_R   0.255392 0.431585 0.429181 0.013466
C20   C     C_R   0.752844 0.429186 0.570306 0.002989
C21   C     C_R   0.730552 0.384648 0.352499 0.526457
C22   C     C_R   0.291814 0.327073 0.639700 0.574413
C23   C     C_R   0.230552 0.884648 0.352499 0.526457
C24   C     C_R   0.742381 0.401168 0.068619 -0.034472
C25   C     C_R   0.791814 0.827073 0.639700 0.574413
C26   C     C_R   0.563297 0.151935 0.360931 0.556047
C27   C     C_R   0.469763 0.158092 0.648651 0.526580
C28   C     C_R   0.063297 0.651935 0.360931 0.556047
C29   C     C_R   0.969763 0.658092 0.648651 0.526580
C30   C     C_R   0.741544 0.975000 0.357852 0.524205
C31   C     C_R   0.258648 0.971658 0.643252 0.522592
C32   C     C_R   0.241544 0.475000 0.357852 0.524205
C33   C     C_R   0.758648 0.471658 0.643252 0.522592
C34   C     C_3   0.537922 0.124591 0.964015 -0.106705
C35   C     C_R   0.700902 0.850777 0.969731 0.012127
C36   C     C_3   0.536189 0.236193 0.013882 -0.129520
C37   C     C_3   0.962826 0.769479 0.985834 -0.122656
C38   C     C_3   0.928906 0.689753 0.044673 -0.136102
C39   C     C_3   0.504042 0.045328 0.022551 -0.090339
C40   C     C_3   0.462826 0.269479 0.985834 -0.122656
C41   C     C_3   0.036189 0.736193 0.013882 -0.129520
C42   C     C_3   0.930922 0.578534 0.994542 -0.126363
C43   C     C_3   0.501973 0.157608 0.071834 0.040199
C44   C     C_3   0.465008 0.157987 0.937117 0.047364
C45   C     C_3   0.001973 0.657608 0.071834 0.040199
C46   C     C_R   0.298774 0.851262 0.030864 0.005957
C47   C     C_3   0.965008 0.657986 0.937117 0.047364
C48   C     C_3   0.909491 0.929916 0.141306 -0.261328
C49   C     C_3   0.094184 0.894195 0.862387 -0.269160
C50   C     C_3   0.409491 0.429916 0.141306 -0.261328
C51   C     C_3   0.594184 0.394195 0.862387 -0.269160
C52   C     C_R   0.200902 0.350777 0.969731 0.012127
C53   C     C_R   0.798775 0.351262 0.030864 0.005957
C54   C     C_R   0.705179 0.842529 0.045211 -0.005332
C55   C     C_R   0.294577 0.842496 0.955359 -0.020298
C56   C     C_R   0.205179 0.342529 0.045211 -0.005332
C57   C     C_R   0.270893 0.373921 0.855380 0.539809
C58   C     C_R   0.794577 0.342496 0.955359 -0.020298
C59   C     C_R   0.818694 0.944659 0.044313 0.132875
C60   C     C_R   0.182113 0.940098 0.955674 0.131938
C61   C     C_R   0.318694 0.444659 0.044313 0.132875
C62   C     C_R   0.682113 0.440098 0.955674 0.131939
C63   C     C_R   0.814739 0.949350 0.970304 -0.129696
C64   C     C_R   0.185663 0.947135 0.029518 -0.139228
C65   C     C_R   0.314739 0.449350 0.970304 -0.129696
C66   C     C_R   0.685663 0.447135 0.029518 -0.139229
C67   C     C_R   0.639842 0.807699 0.935513 -0.064516
C68   C     C_R   0.229108 0.873789 0.144787 0.536101
C69   C     C_R   0.360492 0.813569 0.065109 -0.066980
C70   C     C_R   0.139842 0.307699 0.935513 -0.064516
C71   C     C_R   0.860492 0.313569 0.065109 -0.066980
C72   C     C_R   0.090331 0.241357 0.973359 -0.118048
C73   C     C_R   0.911633 0.254440 0.026846 -0.121174
C74   C     C_R   0.590331 0.741357 0.973359 -0.118047
C75   C     C_R   0.411633 0.754440 0.026846 -0.121174
C76   C     C_R   0.599736 0.718140 0.045747 -0.140162
C77   C     C_R   0.401615 0.728414 0.954792 -0.127310
C78   C     C_R   0.099736 0.218139 0.045747 -0.140162
C79   C     C_R   0.770893 0.873922 0.855380 0.539808
C80   C     C_R   0.901615 0.228413 0.954792 -0.127310
C81   C     C_R   0.655897 0.770402 0.081951 -0.082147
C82   C     C_R   0.344135 0.773662 0.918860 -0.081418
C83   C     C_R   0.155897 0.270402 0.081951 -0.082147
C84   C     C_R   0.844135 0.273662 0.918860 -0.081418
C85   C     C_R   0.531211 0.154463 0.144945 0.549528
C86   C     C_R   0.440265 0.151093 0.862913 0.561332
C87   C     C_R   0.031211 0.654463 0.144945 0.549528
C88   C     C_R   0.940265 0.651093 0.862913 0.561332
C89   C     C_R   0.758917 0.905344 0.082190 -0.000912
C90   C     C_3   0.428906 0.189753 0.044673 -0.136102
C91   C     C_R   0.241557 0.904102 0.918188 0.005379
C92   C     C_R   0.258917 0.405344 0.082190 -0.000912
C93   C     C_R   0.741556 0.404102 0.918188 0.005379
C94   C     C_R   0.507369 0.167102 0.581261 -0.007435
C95   C     C_R   0.544094 0.152483 0.436689 0.003759
C96   C     C_R   0.007369 0.667102 0.581261 -0.007435
C97   C     C_R   0.044094 0.652483 0.436689 0.003759
C98   C     C_R   0.550061 0.071566 0.558717 0.027098
C99   C     C_R   0.560793 0.055179 0.484682 0.014569
C100  C     C_R   0.050061 0.571566 0.558717 0.027098
C101  C     C_3   0.430922 0.078534 0.994542 -0.126363
C102  C     C_R   0.060793 0.555179 0.484682 0.014569
C103  C     C_R   0.505200 0.249547 0.461536 -0.128547
C104  C     C_R   0.483547 0.251196 0.531435 -0.155922
C105  C     C_R   0.005200 0.749547 0.461536 -0.128547
C106  C     C_R   0.983547 0.751196 0.531435 -0.155922
C107  C     C_R   0.575154 0.983975 0.607642 -0.080040
C108  C     C_R   0.582152 0.938598 0.462273 -0.114006
C109  C     C_R   0.075154 0.483975 0.607642 -0.080040
C110  C     C_R   0.082152 0.438598 0.462273 -0.114006
C111  C     C_R   0.094082 0.369745 0.583962 -0.101651
C112  C     C_3   0.004042 0.545328 0.022551 -0.090339
C113  C     C_R   0.093776 0.345847 0.511546 -0.141253
C114  C     C_R   0.594082 0.869745 0.583962 -0.101651
C115  C     C_R   0.593776 0.845847 0.511546 -0.141254
C116  C     C_R   0.791943 0.847859 0.562970 -0.001082
C117  C     C_R   0.243011 0.938926 0.422652 -0.004790
C118  C     C_R   0.291943 0.347859 0.562970 -0.001082
C119  C     C_R   0.743011 0.438926 0.422652 -0.004790
C120  C     C_R   0.827347 0.952339 0.534419 0.036612
C121  C     C_R   0.184169 0.964431 0.465796 0.037932
C122  C     C_R   0.327347 0.452339 0.534419 0.036612
C123  C     C_3   0.037922 0.624591 0.964015 -0.106704
C124  C     C_R   0.684169 0.464432 0.465796 0.037932
C125  C     C_R   0.798098 0.004998 0.474645 0.027855
C126  C     C_R   0.187284 0.932430 0.537660 0.015634
C127  C     C_R   0.298098 0.504998 0.474645 0.027855
C128  C     C_R   0.687284 0.432430 0.537660 0.015634
C129  C     C_R   0.736791 0.812912 0.449006 -0.159286
C130  C     C_R   0.313555 0.934740 0.528167 -0.151837
C131  C     C_R   0.236791 0.312912 0.449006 -0.159286
C132  C     C_R   0.813555 0.434740 0.528167 -0.151837
C133  C     C_R   0.743421 0.965237 0.150565 0.548275
C134  C     C_R   0.757727 0.901287 0.931593 -0.037067
C135  C     C_R   0.256598 0.965471 0.849594 0.538488
C136  C     C_R   0.243422 0.465237 0.150565 0.548275
C137  C     C_R   0.756598 0.465471 0.849594 0.538488
C138  C     C_R   0.750889 0.774294 0.518257 -0.159958
C139  C     C_R   0.308320 0.935238 0.454139 -0.186821
C140  C     C_R   0.250889 0.274294 0.518257 -0.159958
C141  C     C_R   0.808320 0.435238 0.454139 -0.186821
C142  C     C_R   0.886771 0.012174 0.565975 -0.090648
C143  C     C_R   0.123167 0.022562 0.440548 -0.092760
C144  C     C_R   0.386771 0.512174 0.565975 -0.090648
Cr1   Cr    Cr6+3 0.772820 0.169820 0.252640 1.001535
Cr2   Cr    Cr6+3 0.383280 0.011130 0.749340 0.993766
Cr3   Cr    Cr6+3 0.116720 0.511130 0.250660 0.987725
Cr4   Cr    Cr6+3 0.883280 0.511130 0.749340 0.993766
Cr5   Cr    Cr6+3 0.227180 0.169820 0.747360 0.991504
Cr6   Cr    Cr6+3 0.272820 0.669820 0.252640 1.001535
Cr7   Cr    Cr6+3 0.727180 0.669820 0.747360 0.991504
Cr8   Cr    Cr6+3 0.615040 0.323610 0.249150 0.988589
Cr9   Cr    Cr6+3 0.384960 0.323610 0.750850 0.971019
Cr10  Cr    Cr6+3 0.115040 0.823610 0.249150 0.988589
Cr11  Cr    Cr6+3 0.884960 0.823610 0.750850 0.971019
Cr12  Cr    Cr6+3 0.616720 0.011130 0.250660 0.987725
H1    H     H_    0.520366 0.952524 0.038463 0.145513
H2    H     H_    0.586464 0.912517 0.407529 0.168006
H3    H     H_    0.075477 0.500190 0.664602 0.131299
H4    H     H_    0.086464 0.412517 0.407529 0.168006
H5    H     H_    0.106931 0.298654 0.621708 0.142295
H6    H     H_    0.106056 0.256181 0.493156 0.120193
H7    H     H_    0.606931 0.798654 0.621708 0.142295
H8    H     H_    0.606056 0.756181 0.493156 0.120193
H9    H     H_    0.707235 0.754554 0.412991 0.111844
H10   H     H_    0.365054 0.940485 0.552217 0.159349
H11   H     H_    0.207235 0.254554 0.412991 0.111844
H12   H     H_    0.449514 0.361984 0.967604 0.107005
H13   H     H_    0.865054 0.440485 0.552217 0.159349
H14   H     H_    0.917458 0.972548 0.607918 0.144251
H15   H     H_    0.121039 0.067996 0.389318 0.130935
H16   H     H_    0.417458 0.472548 0.607918 0.144251
H17   H     H_    0.621039 0.567995 0.389318 0.130935
H18   H     H_    0.728000 0.690136 0.537674 0.143007
H19   H     H_    0.354413 0.931644 0.421312 0.124979
H20   H     H_    0.228000 0.190136 0.537674 0.143007
H21   H     H_    0.854413 0.431644 0.421312 0.124979
H22   H     H_    0.955636 0.168295 0.567477 0.112349
H23   H     H_    0.079484 0.800128 0.024715 0.131510
H24   H     H_    0.019254 0.076885 0.463475 0.119562
H25   H     H_    0.455636 0.668295 0.567477 0.112349
H26   H     H_    0.519254 0.576885 0.463475 0.119562
H27   H     H_    0.896376 0.266319 0.469148 0.117101
H28   H     H_    0.024134 0.992826 0.587920 0.096903
H29   H     H_    0.396376 0.766319 0.469148 0.117101
H30   H     H_    0.524134 0.492826 0.587920 0.096903
H31   H     H_    0.783215 0.181593 0.426727 0.170674
H32   H     H_    0.125207 0.890613 0.631432 0.120477
H33   H     H_    0.283214 0.681593 0.426727 0.170674
H34   H     H_    0.886729 0.517246 0.982318 0.134313
H35   H     H_    0.625207 0.390613 0.631432 0.120477
H36   H     H_    0.582419 0.098656 0.929978 0.116909
H37   H     H_    0.579484 0.300128 0.024715 0.131510
H38   H     H_    0.949514 0.861984 0.967604 0.107005
H39   H     H_    0.882364 0.708897 0.077050 0.114773
H40   H     H_    0.382364 0.208897 0.077050 0.114773
H41   H     H_    0.386729 0.017246 0.982318 0.134313
H42   H     H_    0.020366 0.452524 0.038463 0.145513
H43   H     H_    0.082419 0.598656 0.929978 0.116909
H44   H     H_    0.629037 0.825282 0.879843 0.134640
H45   H     H_    0.486706 0.319922 0.425739 0.149136
H46   H     H_    0.371329 0.832941 0.120593 0.135226
H47   H     H_    0.129037 0.325282 0.879843 0.134640
H48   H     H_    0.871329 0.332941 0.120593 0.135226
H49   H     H_    0.859175 0.986949 0.942465 0.133517
H50   H     H_    0.140201 0.980354 0.056591 0.136770
H51   H     H_    0.359175 0.486949 0.942465 0.133517
H52   H     H_    0.640201 0.480354 0.056591 0.136770
H53   H     H_    0.046228 0.203819 0.945249 0.103234
H54   H     H_    0.957550 0.224399 0.054452 0.101968
H55   H     H_    0.546228 0.703819 0.945249 0.103234
H56   H     H_    0.444982 0.314934 0.545630 0.122695
H57   H     H_    0.457550 0.724399 0.054452 0.101968
H58   H     H_    0.063948 0.159053 0.074150 0.087751
H59   H     H_    0.937572 0.172323 0.926167 0.087109
H60   H     H_    0.563948 0.659053 0.074150 0.087751
H61   H     H_    0.437572 0.672323 0.926167 0.087109
H62   H     H_    0.661939 0.750520 0.138246 0.123408
H63   H     H_    0.337868 0.752363 0.862777 0.130896
H64   H     H_    0.161939 0.250520 0.138246 0.123408
H65   H     H_    0.837869 0.252363 0.862777 0.130896
H66   H     H_    0.919999 0.020073 0.044733 0.225168
H67   H     H_    0.986706 0.819922 0.425739 0.149136
H68   H     H_    0.960790 0.890852 0.128823 0.139026
H69   H     H_    0.874434 0.856949 0.161929 0.135589
H70   H     H_    0.918402 0.998549 0.183933 0.162358
H71   H     H_    0.078940 0.000107 0.952586 0.224209
H72   H     H_    0.041674 0.859733 0.874905 0.154035
H73   H     H_    0.128268 0.814518 0.853868 0.132846
H74   H     H_    0.090303 0.947873 0.812323 0.165727
H75   H     H_    0.419999 0.520073 0.044733 0.225168
H76   H     H_    0.460790 0.390852 0.128823 0.139026
H77   H     H_    0.374434 0.356949 0.161929 0.135589
H78   H     H_    0.944982 0.814934 0.545630 0.122695
H79   H     H_    0.418402 0.498549 0.183933 0.162358
H80   H     H_    0.578940 0.500108 0.952586 0.224209
H81   H     H_    0.541673 0.359735 0.874905 0.154035
H82   H     H_    0.628267 0.314517 0.853869 0.132846
H83   H     H_    0.590304 0.447873 0.812323 0.165728
H84   H     H_    0.575477 0.000190 0.664602 0.131299
N1    N     N_2   0.881345 0.989725 0.078388 -0.490804
N2    N     N_2   0.118675 0.972176 0.920034 -0.494587
N3    N     N_2   0.381345 0.489725 0.078388 -0.490804
N4    N     N_2   0.618675 0.472176 0.920034 -0.494587
O1    O     O_R   0.788190 0.043000 0.172520 -0.479004
O2    O     O_R   0.454170 0.051610 0.669840 -0.521492
O3    O     O_R   0.045830 0.551610 0.330160 -0.538542
O4    O     O_R   0.954170 0.551610 0.669840 -0.521492
O5    O     O_R   0.681920 0.959720 0.327070 -0.541466
O6    O     O_R   0.318080 0.959720 0.672930 -0.505626
O7    O     O_R   0.181920 0.459720 0.327070 -0.541466
O8    O     O_R   0.818080 0.459720 0.672930 -0.505626
O9    O     O_3   0.668190 0.168190 0.250820 -0.260875
O10   O     O_3   0.331810 0.168190 0.749180 -0.282506
O11   O     O_3   0.168190 0.668190 0.250820 -0.260875
O12   O     O_R   0.211810 0.043000 0.827480 -0.479019
O13   O     O_3   0.831810 0.668190 0.749180 -0.282506
O14   O     O_R   0.766240 0.292300 0.176860 -0.497268
O15   O     O_R   0.233760 0.292300 0.823140 -0.498754
O16   O     O_R   0.266240 0.792300 0.176860 -0.497268
O17   O     O_R   0.733760 0.792300 0.823140 -0.498754
O18   O     O_R   0.670310 0.409160 0.168720 -0.533681
O19   O     O_R   0.329690 0.409160 0.831280 -0.531276
O20   O     O_R   0.170310 0.909160 0.168720 -0.533681
O21   O     O_R   0.829690 0.909160 0.831280 -0.531276
O22   O     O_R   0.556160 0.251900 0.173380 -0.512921
O23   O     O_R   0.288190 0.543000 0.172520 -0.479004
O24   O     O_R   0.443840 0.251900 0.826620 -0.527440
O25   O     O_R   0.056160 0.751900 0.173380 -0.512921
O26   O     O_R   0.943840 0.751900 0.826620 -0.527440
O27   O     O_R   0.545410 0.050140 0.168240 -0.515879
O28   O     O_R   0.454590 0.050140 0.831760 -0.517445
O29   O     O_R   0.045410 0.550140 0.168240 -0.515879
O30   O     O_R   0.954590 0.550140 0.831760 -0.517445
O31   O     O_R   0.681530 0.958350 0.176970 -0.511646
O32   O     O_R   0.318470 0.958350 0.823030 -0.526395
O33   O     O_R   0.181530 0.458350 0.176970 -0.511646
O34   O     O_R   0.711810 0.543000 0.827480 -0.479019
O35   O     O_R   0.818470 0.458350 0.823030 -0.526395
O36   O     O_R   0.788610 0.044480 0.334450 -0.533094
O37   O     O_R   0.211390 0.044480 0.665550 -0.543459
O38   O     O_R   0.288610 0.544480 0.334450 -0.533094
O39   O     O_R   0.711390 0.544480 0.665550 -0.543459
O40   O     O_R   0.766630 0.293670 0.326970 -0.522128
O41   O     O_R   0.233370 0.293670 0.673030 -0.504394
O42   O     O_R   0.266630 0.793670 0.326970 -0.522128
O43   O     O_R   0.733370 0.793670 0.673030 -0.504394
O44   O     O_R   0.670730 0.410640 0.330640 -0.535186
O45   O     O_R   0.556550 0.253260 0.323480 -0.499943
O46   O     O_R   0.329270 0.410640 0.669360 -0.531979
O47   O     O_R   0.170730 0.910640 0.330640 -0.535186
O48   O     O_R   0.829270 0.910640 0.669360 -0.531979
O49   O     O_R   0.443450 0.253260 0.676520 -0.536169
O50   O     O_R   0.056550 0.753260 0.323480 -0.499943
O51   O     O_R   0.943450 0.753260 0.676520 -0.536169
O52   O     O_R   0.545830 0.051610 0.330160 -0.538542

loop_
_geom_bond_atom_site_label_1
_geom_bond_atom_site_label_2
_ccdc_geom_bond_type
C33   O39   A    
C51   N4    S    
C111  H5    S    
C86   O24   A    
C78   H58   S    
C114  C115  A    
Cr5   O12   S    
C136  O23   A    
C45   C87   S    
Cr2   O32   S    
C84   H65   S    
C4    C142  A    
C95   C99   A    
C5    C143  A    
C10   H29   S    
C38   H39   S    
C38   C45   S    
C131  C140  A    
C46   C55   A    
C138  H18   S    
C142  H14   S    
C97   C105  A    
C94   C104  A    
C100  C109  A    
C15   C127  A    
Cr2   O10   S    
C17   C30   S    
C117  C139  A    
C20   C132  A    
C118  C140  A    
C19   C32   S    
C35   C134  A    
C112  H42   S    
Cr3   O33   S    
Cr10  O11   S    
Cr4   O8    S    
C43   C85   S    
C67   H44   S    
C71   C73   A    
Cr12  O5    S    
Cr8   O22   S    
C28   O3    A    
C50   H77   S    
C103  H45   S    
C37   C38   S    
C48   H70   S    
C42   H34   S    
C47   C123  S    
Cr9   O46   S    
C140  H20   S    
C34   C44   S    
C111  C113  A    
C67   C74   A    
C49   H72   S    
C62   N4    S    
Cr11  O21   S    
C20   C33   S    
C119  C141  A    
Cr4   O30   S    
C18   C130  A    
C69   C75   A    
C53   C71   A    
C56   C83   A    
C1    O14   A    
C22   C118  S    
Cr2   O2    S    
Cr10  O50   S    
C59   C63   A    
Cr7   O34   S    
Cr7   O43   S    
C44   C101  S    
Cr8   O44   S    
C107  H84   S    
C30   O36   A    
C14   C126  A    
Cr4   O35   S    
Cr1   O1    S    
C74   H55   S    
C60   C64   A    
C34   H36   S    
C21   C119  S    
C9    H28   S    
C77   H61   S    
C77   C82   A    
Cr3   O11   S    
C75   H57   S    
C86   O28   A    
C61   C65   A    
C98   C99   A    
C62   C93   A    
Cr5   O37   S    
C18   C31   S    
C54   C81   A    
C28   C97   S    
C61   N3    S    
C53   C58   A    
C28   O50   A    
Cr12  O27   S    
C99   C108  A    
C74   C76   A    
C108  C115  A    
C123  H43   S    
C31   O37   A    
C2    C68   S    
C109  C111  A    
C93   C137  S    
C101  H41   S    
C13   C57   S    
Cr10  O47   S    
C118  C122  A    
C49   H74   S    
C42   C112  S    
C72   C78   A    
C82   H63   S    
C50   H76   S    
C135  O12   A    
C37   C47   S    
C15   H33   S    
C131  H11   S    
C69   H46   S    
C26   O52   A    
C27   O49   A    
C95   C103  A    
C71   H48   S    
C89   C133  S    
C62   C66   A    
C34   C39   S    
Cr9   O24   S    
C50   N3    S    
C25   C116  S    
C48   H68   S    
C12   H31   S    
C57   O15   A    
C116  C120  A    
C33   O8    A    
C5    C9    A    
C16   H35   S    
C72   H53   S    
C35   C67   A    
C8    C12   A    
C75   C77   A    
Cr3   O29   S    
C8    H27   S    
C29   O4    A    
C104  H56   S    
C6    C144  A    
C109  H3    S    
C68   O20   A    
Cr11  O26   S    
C110  H4    S    
Cr12  O9    S    
Cr7   O13   S    
Cr8   O18   S    
C132  C141  A    
C79   C134  S    
C137  O35   A    
C41   C45   S    
C106  H78   S    
C85   O22   A    
C41   H23   S    
C4    H22   S    
C27   C94   S    
C23   C117  S    
C29   C96   S    
C65   H51   S    
C60   N2    S    
C30   O5    A    
C18   C126  A    
Cr6   O11   S    
C96   C100  A    
C51   H82   S    
C34   C36   S    
C37   C41   S    
Cr9   O19   S    
C21   O44   A    
Cr10  O20   S    
C1    O18   A    
C23   O42   A    
C40   C44   S    
C90   H40   S    
C1    C24   S    
Cr6   O42   S    
C133  O1    A    
C133  O31   A    
Cr11  O48   S    
C11   H30   S    
Cr4   O13   S    
C80   C84   A    
C29   O51   A    
H71   N2    S    
C32   O7    A    
Cr3   O7    S    
C141  H21   S    
C58   C93   A    
C3    C7    A    
Cr8   O9    S    
Cr11  O13   S    
C94   C98   A    
Cr5   O15   S    
C55   C91   A    
C78   C83   A    
C122  C144  A    
C97   C102  A    
C61   C92   A    
C24   C66   A    
C124  C128  A    
C35   C54   A    
Cr1   O9    S    
C92   C136  S    
C32   O38   A    
C130  C139  A    
H66   N1    S    
C80   H59   S    
C43   C90   S    
C25   O48   A    
C63   C134  A    
C112  C123  S    
C12   C125  A    
C24   C53   A    
C105  H67   S    
C64   H50   S    
C98   C107  A    
Cr11  O51   S    
C25   O43   A    
C9    C14   A    
C5    H24   S    
C22   O41   A    
C13   C52   A    
C66   H52   S    
C11   C16   A    
C130  H10   S    
C88   O26   A    
C79   O17   A    
C102  C110  A    
C132  H13   S    
C3    C124  A    
C68   O16   A    
C70   H47   S    
C57   O19   A    
Cr1   O14   S    
C120  C125  A    
C6    C10   A    
C38   C42   S    
C105  C106  A    
C144  H16   S    
C23   O47   A    
C129  H9    S    
C37   H38   S    
C85   O27   A    
C143  H15   S    
C48   H69   S    
H80   N4    S    
C136  O33   A    
C49   H73   S    
Cr7   O17   S    
C91   C135  S    
C63   H49   S    
C103  C104  A    
C36   C43   S    
C51   H83   S    
C40   C90   S    
Cr9   O10   S    
C121  C143  A    
C26   O45   A    
C139  H19   S    
Cr8   O45   S    
Cr4   O4    S    
C4    C8    A    
C49   N2    S    
C45   C112  S    
C107  C114  A    
C13   C65   A    
C119  C124  A    
C2    C46   A    
C7    C11   A    
Cr2   O6    S    
C21   O40   A    
C20   C128  A    
C10   C15   A    
C59   C89   A    
C108  H2    S    
C122  C127  A    
C14   H32   S    
C135  O32   A    
Cr6   O38   S    
C115  H8    S    
C88   O30   A    
C36   H37   S    
C46   C69   A    
C117  C121  A    
Cr6   O16   S    
C113  H6    S    
C3    H17   S    
C129  C138  A    
Cr12  O31   S    
Cr10  O25   S    
Cr3   O3    S    
C39   H1    S    
C44   C86   S    
C2    C64   A    
C39   C101  S    
C116  C138  A    
C19   C131  A    
C137  O34   A    
Cr12  O52   S    
C6    H25   S    
C17   C129  A    
Cr7   O39   S    
C73   H54   S    
C36   C40   S    
C120  C142  A    
C54   C89   A    
C27   O2    A    
C39   C43   S    
Cr9   O49   S    
Cr5   O10   S    
C31   O6    A    
H75   N3    S    
C90   C101  S    
C58   C84   A    
C100  C102  A    
C51   H81   S    
C55   C82   A    
C16   C128  A    
C110  C113  A    
Cr1   O36   S    
C60   C91   A    
C26   C95   S    
C96   C106  A    
C7    H26   S    
Cr5   O41   S    
C48   N1    S    
C76   C81   A    
C87   O29   A    
C59   N1    S    
C47   C88   S    
C41   C123  S    
Cr2   O28   S    
C76   H60   S    
C121  C126  A    
C87   O25   A    
C83   H64   S    
C17   C125  A    
C114  H7    S    
C81   H62   S    
C19   C127  A    
C79   O21   A    
C73   C80   A    
C42   C47   S    
C50   H79   S    
C22   O46   A    
C40   H12   S    
C52   C70   A    
C56   C92   A    
C70   C72   A    
Cr1   O40   S    
Cr6   O23   S    
C52   C56   A    
