data_mof_unit_9939.cif
_audit_creation_date              2012-10-26T20:16:38-0400
_audit_creation_method            fapswitch 2.2
_symmetry_space_group_name_H-M    P1
_symmetry_Int_Tables_number       1
_space_group_crystal_system       triclinic
_cell_length_a                    10.914885
_cell_length_b                    10.900152
_cell_length_c                    9.808456
_cell_angle_alpha                 98.602588
_cell_angle_beta                  98.896755
_cell_angle_gamma                 93.297961
_cell_volume                      1136.04675995

loop_
_atom_site_label
_atom_site_type_symbol
_atom_type_description
_atom_site_fract_x
_atom_site_fract_y
_atom_site_fract_z
_atom_type_partial_charge
C1    C     C_R   0.502072 0.262073 0.499409 0.549517
C2    C     C_R   0.662104 0.942276 0.852259 -0.079258
C3    C     C_R   0.456941 0.078212 0.229114 0.045668
C4    C     C_R   0.543065 0.921788 0.770885 0.045668
C5    C     C_R   0.555310 0.133276 0.175818 -0.032392
C6    C     C_R   0.444697 0.866727 0.824184 -0.032392
C7    C     C_R   0.533263 0.171533 0.044952 -0.090455
C8    C     C_R   0.466745 0.828471 0.955050 -0.090459
C9    C     C_R   0.413974 0.152145 0.965348 -0.136252
C10   C     C_R   0.586035 0.847858 0.034651 -0.136252
C11   C     C_R   0.472035 0.915218 0.375733 -0.148385
C12   C     C_R   0.497929 0.737927 0.500590 0.549520
C13   C     C_R   0.527968 0.084782 0.624267 -0.148387
C14   C     C_R   0.495870 0.872119 0.503485 0.000193
C15   C     C_R   0.504132 0.127881 0.496514 0.000192
C16   C     C_R   0.261875 0.499799 0.498960 0.548406
C17   C     C_R   0.738125 0.500200 0.501040 0.548405
C18   C     C_R   0.521796 0.958337 0.630165 -0.028332
C19   C     C_R   0.478208 0.041663 0.369835 -0.028331
C20   C     C_2   0.511509 0.509751 0.078964 -0.042527
C21   C     C_2   0.488490 0.490250 0.921036 -0.042527
C22   C     C_R   0.160530 0.489995 0.029444 -0.153866
C23   C     C_R   0.872396 0.499491 0.504595 0.004160
C24   C     C_R   0.839465 0.509984 0.970550 -0.153861
C25   C     C_R   0.134300 0.522883 0.164582 -0.041297
C26   C     C_R   0.865697 0.477101 0.835413 -0.041298
C27   C     C_R   0.072582 0.435386 0.227766 0.006574
C28   C     C_R   0.927417 0.564601 0.772235 0.006575
C29   C     C_R   0.030309 0.317554 0.149750 -0.067171
C30   C     C_R   0.969689 0.682431 0.850256 -0.067170
C31   C     C_R   0.052057 0.286786 0.012428 0.240946
C32   C     C_R   0.947939 0.713194 0.987579 0.240943
C33   C     C_R   0.120288 0.371733 0.953712 -0.107403
C34   C     C_R   0.127603 0.500505 0.495405 0.004161
C35   C     C_R   0.879706 0.628243 0.046288 -0.107404
C36   C     C_R   0.914029 0.469697 0.376937 -0.153321
C37   C     C_R   0.085971 0.530297 0.623063 -0.153321
C38   C     C_R   0.959978 0.529890 0.630511 -0.022212
C39   C     C_R   0.040021 0.470103 0.369489 -0.022210
C40   C     C_R   0.317044 0.093920 0.015961 -0.104895
C41   C     C_R   0.682966 0.906080 0.984035 -0.104889
C42   C     C_R   0.337904 0.057722 0.147737 -0.079259
Cl1   Cl    Cl    0.985769 0.145478 0.910957 -0.672324
Cl2   Cl    Cl    0.014227 0.854498 0.089057 -0.672317
Cu1   Cu    Cu3+1 0.521120 0.521140 0.639640 0.940763
Cu2   Cu    Cu3+1 0.478880 0.478860 0.360360 0.940763
H1    H     H_    0.138128 0.347991 0.847813 0.136172
H2    H     H_    0.584596 0.578841 0.134945 0.143699
H3    H     H_    0.622046 0.617318 0.904954 0.226259
H4    H     H_    0.377955 0.382681 0.095046 0.226259
H5    H     H_    0.210244 0.557025 0.982605 0.115450
H6    H     H_    0.789749 0.442952 0.017384 0.115451
H7    H     H_    0.162778 0.616083 0.220489 0.156626
H8    H     H_    0.837219 0.383903 0.779501 0.156617
H9    H     H_    0.977540 0.251069 0.194425 0.148762
H10   H     H_    0.022460 0.748919 0.805587 0.148764
H11   H     H_    0.847676 0.446189 0.280714 0.124437
H12   H     H_    0.861863 0.651982 0.152186 0.136173
H13   H     H_    0.152324 0.553804 0.719286 0.124438
H14   H     H_    0.396289 0.181714 0.864233 0.108192
H15   H     H_    0.603721 0.818290 0.135767 0.108195
H16   H     H_    0.226084 0.075889 0.952367 0.199461
H17   H     H_    0.773926 0.924109 0.047627 0.199473
H18   H     H_    0.261603 0.014040 0.186551 0.177695
H19   H     H_    0.738403 0.985956 0.813442 0.177698
H20   H     H_    0.648059 0.148449 0.236737 0.111645
H21   H     H_    0.351947 0.851556 0.763268 0.111646
H22   H     H_    0.608584 0.215858 0.005143 0.113757
H23   H     H_    0.391425 0.784149 0.994862 0.113759
H24   H     H_    0.449492 0.849972 0.278936 0.130784
H25   H     H_    0.550512 0.150028 0.721064 0.130784
H26   H     H_    0.415402 0.421160 0.865054 0.143698
N1    N     N_2   0.447120 0.447110 0.150550 -0.351094
N2    N     N_2   0.552880 0.552890 0.849450 -0.351094
O1    O     O_R   0.517830 0.337490 0.617920 -0.512127
O2    O     O_R   0.482170 0.662510 0.382080 -0.512126
O3    O     O_R   0.482150 0.301790 0.382070 -0.483216
O4    O     O_R   0.517850 0.698210 0.617930 -0.483215
O5    O     O_R   0.337480 0.517860 0.617920 -0.512690
O6    O     O_R   0.662520 0.482140 0.382080 -0.512690
O7    O     O_R   0.301810 0.482160 0.382070 -0.489963
O8    O     O_R   0.698190 0.517840 0.617930 -0.489962

loop_
_geom_bond_atom_site_label_1
_geom_bond_atom_site_label_2
_ccdc_geom_bond_type
C24   H6    S    
Cu2   O6    S    
C3    C42   A    
C27   C29   A    
C34   C37   A    
C1    O3    A    
C14   C18   A    
Cu1   O8    S    
C2    H19   S    
Cu2   O2    S    
C11   H24   S    
Cu1   Cu2   S    
C15   C19   A    
C11   C19   A    
C8    H23   S    
C17   C23   S    
C31   Cl1   S    
C13   C18   A    
C35   H12   S    
C25   H7    S    
C11   C14   A    
C2    C41   A    
C40   H16   S    
C17   O8    A    
C16   C34   S    
C7    H22   S    
C27   C39   S    
C22   C25   A    
C12   O4    A    
C31   C33   A    
C3    C19   S    
Cu1   O4    S    
C1    C15   S    
C4    C18   S    
C40   C42   A    
C10   C41   A    
C26   H8    S    
C24   C35   A    
C21   H26   S    
C34   C39   A    
C1    O1    A    
C32   C35   A    
C4    C6    A    
C36   H11   S    
H4    N1    S    
C5    C7    A    
C6    C8    A    
C13   H25   S    
C30   H10   S    
C21   N2    D    
C17   O6    A    
Cu1   N2    S    
C2    C4    A    
C37   C38   A    
Cu2   O7    S    
C28   C38   S    
C32   Cl2   S    
Cu1   O5    S    
C37   H13   S    
C20   H2    S    
C6    H21   S    
C12   C14   S    
C13   C15   A    
C12   O2    A    
C33   H1    S    
C10   H15   S    
C41   H17   S    
C42   H18   S    
C7    C9    A    
C22   C33   A    
C36   C39   A    
C24   C26   A    
C5    H20   S    
C3    C5    A    
Cu2   O3    S    
C25   C27   A    
C23   C38   A    
C29   H9    S    
C26   C28   A    
Cu1   O1    S    
C9    H14   S    
C16   O5    A    
C28   C30   A    
C29   C31   A    
C30   C32   A    
C16   O7    A    
C20   N1    D    
C9    C40   A    
C20   C21   S    
C8    C10   A    
C23   C36   A    
H3    N2    S    
Cu2   N1    S    
C22   H5    S    
