data_mof_unit_6168.cif
_audit_creation_date              2012-12-10T18:00:18-0500
_audit_creation_method            fapswitch 2.2
_symmetry_space_group_name_H-M    P1
_symmetry_Int_Tables_number       1
_space_group_crystal_system       triclinic
_cell_length_a                    10.911528
_cell_length_b                    9.649859
_cell_length_c                    10.745867
_cell_angle_alpha                 89.124568
_cell_angle_beta                  94.01242
_cell_angle_gamma                 87.837591
_cell_volume                      1127.72353275

loop_
_atom_site_label
_atom_site_type_symbol
_atom_type_description
_atom_site_fract_x
_atom_site_fract_y
_atom_site_fract_z
_atom_type_partial_charge
C1    C     C_R   0.871800 0.488679 0.481589 -0.157096
C2    C     C_R   0.127771 0.507727 0.517705 -0.179144
C3    C     C_R   0.262691 0.502831 0.507757 0.855607
C4    C     C_R   0.737179 0.496661 0.492094 0.858023
C5    C     C_R   0.501196 0.501133 0.260065 0.884898
C6    C     C_R   0.499145 0.498915 0.740149 0.869798
C7    C     C_3   0.554036 0.616340 0.040939 -0.059329
C8    C     C_3   0.446532 0.385063 0.960070 -0.143059
C9    C     C_3   0.616279 0.500881 0.966434 -0.022490
C10   C     C_3   0.384455 0.500405 0.034465 -0.068562
C11   C     C_3   0.437108 0.612246 0.951092 -0.094453
C12   C     C_3   0.563383 0.389104 0.049382 -0.092570
C13   C     C_3   0.499397 0.496700 0.876891 -0.131815
C14   C     C_3   0.501149 0.503923 0.123680 -0.119448
C15   C     C_R   0.430398 0.079075 0.411049 0.013576
C16   C     C_R   0.573957 0.920856 0.584820 0.051050
C17   C     C_R   0.567935 0.068536 0.590683 -0.024507
C18   C     C_R   0.432123 0.930820 0.409258 0.001024
C19   C     C_R   0.071626 0.384487 0.551797 -0.081309
C20   C     C_R   0.928595 0.608537 0.442639 -0.047449
C21   C     C_R   0.945020 0.370754 0.525152 -0.077569
C22   C     C_R   0.053698 0.625231 0.474786 -0.077672
Cu1   Cu    Cu3+1 0.500000 0.640660 0.500000 1.047998
Cu2   Cu    Cu3+1 0.500000 0.359340 0.500000 1.052622
N1    N     N_R   0.500000 0.852070 0.500000 -0.247947
N2    N     N_R   0.500000 0.147930 0.500000 -0.248798
O1    O     O_R   0.319640 0.618740 0.499990 -0.534539
O2    O     O_R   0.680360 0.381260 0.500010 -0.525924
O3    O     O_R   0.680360 0.618740 0.500010 -0.595151
O4    O     O_R   0.319640 0.381260 0.499990 -0.574963
O5    O     O_R   0.499970 0.618770 0.316850 -0.618838
O6    O     O_R   0.500030 0.381230 0.683150 -0.597885
O7    O     O_R   0.500030 0.618770 0.683150 -0.549727
O8    O     O_R   0.499970 0.381230 0.316850 -0.554874
C23   C     C_2   0.346229 0.157397 0.319257 0.955022
O9    O     O_2   0.379567 0.184193 0.215854 -0.543143
O10   O     O_R   0.224951 0.187733 0.346138 -0.737317
H1    H     H_    0.175152 0.237301 0.274475 0.367560
C24   C     C_2   0.676598 0.845728 0.657000 0.963404
O11   O     O_2   0.780114 0.849330 0.620781 -0.559066
O12   O     O_R   0.659265 0.785420 0.772383 -0.649999
H2    H     H_    0.739700 0.748769 0.815537 0.358299
C25   C     C_2   0.631799 0.130697 0.702206 0.858823
O13   O     O_2   0.694766 0.230911 0.692762 -0.511514
O14   O     O_R   0.625046 0.068160 0.819596 -0.725513
H3    H     H_    0.677440 0.114739 0.887087 0.342610
C26   C     C_2   0.369360 0.865116 0.299639 0.848449
O15   O     O_2   0.294052 0.777313 0.312455 -0.524860
O16   O     O_R   0.393708 0.908000 0.179569 -0.742474
H4    H     H_    0.338929 0.862672 0.113410 0.358995
C27   C     C_2   0.362940 0.731747 0.889416 0.437788
H5    H     H_    0.273516 0.713940 0.843142 0.071279
O17   O     O_2   0.403364 0.847863 0.888086 -0.445199
C28   C     C_2   0.634835 0.264900 0.105468 0.420144
H6    H     H_    0.598702 0.162248 0.095082 0.137892
O18   O     O_2   0.732417 0.279219 0.165599 -0.501181
C29   C     C_2   0.612327 0.745088 0.089770 0.532715
H7    H     H_    0.618013 0.765513 0.188484 0.080315
O19   O     O_2   0.652855 0.829123 0.019314 -0.464910
C30   C     C_2   0.388015 0.253978 0.918370 0.531271
H8    H     H_    0.426651 0.192867 0.846403 0.114033
O20   O     O_2   0.295789 0.215502 0.964445 -0.448079
C31   C     C_2   0.747649 0.496015 0.933478 0.423997
H9    H     H_    0.820525 0.507004 0.006160 0.138829
O21   O     O_2   0.773466 0.478861 0.826026 -0.528405
C32   C     C_2   0.253671 0.503052 0.069517 0.466287
H10   H     H_    0.179568 0.501688 0.996873 0.096341
O22   O     O_2   0.229808 0.506661 0.178663 -0.522569
C33   C     C_2   0.143599 0.277495 0.629612 0.952682
O23   O     O_2   0.192609 0.310892 0.729570 -0.616171
O24   O     O_R   0.157920 0.141500 0.588586 -0.697446
H11   H     H_    0.211612 0.080669 0.649737 0.363181
C34   C     C_2   0.862754 0.700804 0.346746 0.927202
O25   O     O_2   0.843337 0.657564 0.241222 -0.625254
O26   O     O_R   0.823793 0.835136 0.375483 -0.706477
H12   H     H_    0.781866 0.887385 0.300753 0.335696
C35   C     C_2   0.894131 0.230132 0.529574 0.988418
O27   O     O_2   0.914255 0.155156 0.622110 -0.514776
O28   O     O_R   0.826352 0.181799 0.425042 -0.688147
H13   H     H_    0.791568 0.087955 0.440948 0.355851
C36   C     C_2   0.099592 0.768449 0.480460 1.001169
O29   O     O_2   0.158424 0.805264 0.574468 -0.574024
O30   O     O_R   0.070803 0.863406 0.382219 -0.691272
H14   H     H_    0.103984 0.958270 0.399890 0.380060

loop_
_geom_bond_atom_site_label_1
_geom_bond_atom_site_label_2
_ccdc_geom_bond_type
C15   C18   A    
C32   O22   D    
C31   O21   D    
C1    C21   A    
C8    C13   S    
O12   H2    S    
C6    O6    A    
C23   O9    D    
O26   H12   S    
C18   C26   S    
C17   C25   S    
C36   O29   D    
C26   O16   S    
O14   H3    S    
C7    C11   S    
C17   N2    A    
Cu1   O3    S    
C19   C21   A    
Cu2   N2    S    
C29   O19   D    
C30   O20   D    
C34   O25   D    
C33   O24   S    
C9    C13   S    
C4    O2    A    
C7    C14   S    
O30   H14   S    
C16   C17   A    
Cu1   O7    S    
C2    C22   A    
Cu1   Cu2   S    
Cu1   O1    S    
C4    O3    A    
C10   C32   S    
C32   H10   S    
C34   O26   S    
C18   N1    A    
C15   C23   S    
C36   O30   S    
C35   O28   S    
C28   O18   D    
C27   H5    S    
C22   C36   S    
C24   O12   S    
C10   C14   S    
C24   O11   D    
C15   N2    A    
C35   O27   D    
Cu2   O8    S    
O28   H13   S    
C30   H8    S    
C27   O17   D    
Cu1   O5    S    
C3    O4    A    
C25   O13   D    
Cu2   O6    S    
O10   H1    S    
C26   O15   D    
C8    C12   S    
C5    O8    A    
C25   O14   S    
C5    C14   S    
C20   C22   A    
C19   C33   S    
C16   N1    A    
C7    C9    S    
C28   H6    S    
C1    C20   A    
C23   O10   S    
C2    C19   A    
C9    C31   S    
Cu2   O2    S    
C12   C14   S    
C6    O7    A    
C1    C4    S    
C3    O1    A    
C2    C3    S    
O24   H11   S    
C8    C30   S    
C6    C13   S    
C11   C13   S    
C29   H7    S    
C20   C34   S    
Cu1   N1    S    
C33   O23   D    
C9    C12   S    
Cu2   O4    S    
C11   C27   S    
C10   C11   S    
C16   C24   S    
C31   H9    S    
C8    C10   S    
O16   H4    S    
C21   C35   S    
C7    C29   S    
C12   C28   S    
C5    O5    A    
