data_mof_unit_60803.cif
_audit_creation_date              2012-12-11T16:00:45-0500
_audit_creation_method            fapswitch 2.2
_symmetry_space_group_name_H-M    P1
_symmetry_Int_Tables_number       1
_space_group_crystal_system       triclinic
_cell_length_a                    6.944995
_cell_length_b                    17.26976
_cell_length_c                    18.588422
_cell_angle_alpha                 107.238123
_cell_angle_beta                  90.370947
_cell_angle_gamma                 90.702952
_cell_volume                      2129.04148978

loop_
_atom_site_label
_atom_site_type_symbol
_atom_type_description
_atom_site_fract_x
_atom_site_fract_y
_atom_site_fract_z
_atom_type_partial_charge
O1    O     O_R   0.505810 0.442350 0.559500 -0.517755
O2    O     O_R   0.167990 0.405060 0.411070 -0.541999
O3    O     O_R   0.005550 0.557650 0.440500 -0.522669
C1    C     C_R   0.337461 0.381413 0.382981 0.689144
O4    O     O_R   0.175580 0.432840 0.557140 -0.526559
O5    O     O_R   0.013190 0.585620 0.587600 -0.532988
C2    C     C_R   0.344550 0.415923 0.580642 0.732421
O6    O     O_R   0.498170 0.414380 0.412400 -0.536574
O7    O     O_3   0.341790 0.550090 0.509830 -0.356337
V1    V     V_3+5 0.063870 0.490710 0.498180 1.436830
O8    O     O_R   0.683930 0.594940 0.588930 -0.529619
C3    C     C_R   0.854490 0.618002 0.617100 0.753489
O9    O     O_R   0.676340 0.567160 0.442860 -0.525481
C4    C     C_R   0.845248 0.584112 0.419390 0.719669
V2    V     V_3+5 0.564820 0.509290 0.501820 1.456847
O10   O     O_3   0.836770 0.449910 0.490170 -0.367300
C5    C     C_1   0.856407 0.636128 0.367363 -0.192482
C6    C     C_1   0.867665 0.678688 0.323802 0.020971
C7    C     C_1   0.882087 0.728865 0.271922 0.019720
C8    C     C_1   0.894471 0.771120 0.228125 0.019427
C9    C     C_1   0.908887 0.821294 0.176246 0.022843
C10   C     C_1   0.920148 0.863845 0.132685 -0.181909
C11   C     C_3   0.713724 0.780945 0.770402 -0.176057
C12   C     C_3   0.813391 0.775626 0.694611 -0.165520
H1    H     H_    0.751786 0.796750 0.648590 0.154584
H2    H     H_    0.569316 0.806558 0.787308 0.174218
C13   C     C_3   0.871382 0.687963 0.687809 -0.130142
C14   C     C_3   0.772387 0.692717 0.762716 0.172309
C15   C     C_3   0.962959 0.723883 0.805471 0.157210
C16   C     C_3   0.063284 0.718302 0.729984 -0.175051
C17   C     C_3   0.004320 0.806451 0.737646 0.166762
C18   C     C_3   0.905515 0.811506 0.812610 -0.134485
H3    H     H_    0.207704 0.692612 0.713249 0.169612
C19   C     C_3   0.556133 0.273232 0.286170 -0.153028
C20   C     C_3   0.465119 0.186986 0.268288 -0.196156
H4    H     H_    0.529202 0.135401 0.283652 0.118266
H5    H     H_    0.695937 0.292323 0.315790 0.135123
C21   C     C_3   0.419835 0.189310 0.187594 -0.077708
C22   C     C_3   0.509736 0.274646 0.205077 0.192060
C23   C     C_3   0.312116 0.313160 0.231394 -0.171053
C24   C     C_3   0.220503 0.227022 0.213330 -0.121446
C25   C     C_3   0.267776 0.225561 0.294181 0.181047
C26   C     C_3   0.357049 0.310908 0.312113 -0.100217
H6    H     H_    0.248258 0.364804 0.216063 0.155983
H7    H     H_    0.080757 0.208267 0.183506 0.152094
C27   C     C_1   0.355043 0.363924 0.632712 -0.182716
C28   C     C_1   0.366709 0.321397 0.676287 0.032152
C29   C     C_1   0.382098 0.271231 0.728157 0.028330
C30   C     C_1   0.395389 0.228975 0.771923 0.030645
C31   C     C_1   0.410752 0.178783 0.823771 0.041507
C32   C     C_1   0.422363 0.136217 0.867314 -0.160535
O11   O     O_R   0.278780 0.085730 0.087540 -0.543369
O12   O     O_R   0.601620 0.067180 0.942850 -0.522430
O13   O     O_R   0.763750 0.914350 0.912410 -0.535917
C33   C     C_R   0.432715 0.084162 0.919338 0.746855
O14   O     O_R   0.608970 0.094960 0.088920 -0.532058
O15   O     O_R   0.771150 0.942330 0.059520 -0.527268
C34   C     C_R   0.439480 0.118711 0.116905 0.708023
O16   O     O_R   0.271380 0.057750 0.940430 -0.518783
O17   O     O_3   0.435070 0.949970 0.990140 -0.355962
V3    V     V_3+5 0.713090 0.009280 0.001830 1.474414
O18   O     O_R   0.100340 0.932730 0.057200 -0.524460
C35   C     C_R   0.931389 0.915842 0.080658 0.716836
O19   O     O_R   0.092990 0.904950 0.911140 -0.522442
C36   C     C_R   0.922425 0.881870 0.883004 0.771501
V4    V     V_3+5 0.212100 0.990570 0.998260 1.486459
O20   O     O_3   0.940260 0.050030 0.009860 -0.360936
C37   C     C_3   0.127310 0.198363 0.345079 -0.357151
C38   C     C_3   0.051122 0.112461 0.307708 -0.755027
H8    H     H_    0.969666 0.109705 0.255347 0.216642
H9    H     H_    0.171901 0.069137 0.293812 0.224567
H10   H     H_    0.952661 0.094124 0.346770 0.220454
H11   H     H_    0.201925 0.200766 0.398744 0.171328
H12   H     H_    0.004464 0.240638 0.357996 0.178155
I1    I     I_    0.584137 0.601585 0.780785 -0.334337
I2    I     I_    0.082732 0.684722 0.894778 -0.298099
I3    I     I_    0.192924 0.895966 0.717018 -0.456131
I4    I     I_    0.708269 0.314624 0.135964 -0.428341

loop_
_geom_bond_atom_site_label_1
_geom_bond_atom_site_label_2
_ccdc_geom_bond_type
C33   O16   A    
C19   H5    S    
C24   C25   S    
C7    C8    T    
C12   C13   S    
C1    O6    A    
O13   C36   A    
O18   C35   A    
C14   C15   S    
C6    C7    S    
C15   C18   S    
O16   V4    S    
O5    C3    A    
C16   C17   S    
C37   H12   S    
V2    O10   S    
C19   C20   S    
C11   H2    S    
C38   H9    S    
C20   C25   S    
C10   C35   S    
C21   C34   S    
O8    V2    S    
C23   C26   S    
C28   C29   S    
C37   C38   S    
C11   C12   S    
O15   C35   A    
O1    V2    S    
O7    V1    S    
V4    O20   S    
O17   V4    S    
O9    C4    A    
C13   C16   S    
C25   C37   S    
C4    C5    S    
O12   V3    S    
C17   I3    S    
O12   C33   A    
O18   V4    S    
C3    C13   S    
C19   C22   S    
C2    C27   S    
C20   C21   S    
C12   H1    S    
C21   C24   S    
C22   C23   S    
O4    C2    A    
C31   C32   T    
C37   H11   S    
O17   V3    S    
C20   H4    S    
O19   V4    S    
C38   H10   S    
O2    C1    A    
C22   I4    S    
C15   C16   S    
V3    O20   S    
C17   C18   S    
C5    C6    T    
C11   C14   S    
O3    C4    A    
O11   C34   A    
C29   C30   T    
C1    C26   S    
O6    V2    S    
O9    V2    S    
C25   C26   S    
O2    V1    S    
O11   V4    S    
C27   C28   T    
C23   C24   S    
C16   H3    S    
O1    C2    A    
C19   C26   S    
O5    V1    S    
O8    C3    A    
O15   V3    S    
O13   V3    S    
C11   C18   S    
O7    V2    S    
C12   C17   S    
O4    V1    S    
O3    V1    S    
V1    O10   S    
O19   C36   A    
C21   C22   S    
O14   C34   A    
C32   C33   S    
C38   H8    S    
C23   H6    S    
C15   I2    S    
C8    C9    S    
C30   C31   S    
C13   C14   S    
C24   H7    S    
O14   V3    S    
C9    C10   T    
C14   I1    S    
C18   C36   S    
