data_mof_unit_16121.cif
_audit_creation_date              2012-12-11T14:17:33-0500
_audit_creation_method            fapswitch 2.2
_symmetry_space_group_name_H-M    P1
_symmetry_Int_Tables_number       1
_space_group_crystal_system       triclinic
_cell_length_a                    6.943721
_cell_length_b                    13.62822
_cell_length_c                    20.442082
_cell_angle_alpha                 101.968677
_cell_angle_beta                  91.059162
_cell_angle_gamma                 90.625851
_cell_volume                      1891.85425737

loop_
_atom_site_label
_atom_site_type_symbol
_atom_type_description
_atom_site_fract_x
_atom_site_fract_y
_atom_site_fract_z
_atom_type_partial_charge
O1    O     O_R   0.506860 0.599390 0.449240 -0.547815
O2    O     O_R   0.180220 0.594600 0.586780 -0.530390
O3    O     O_R   0.004500 0.400610 0.550760 -0.529576
C1    C     C_R   0.350880 0.612371 0.614640 0.748630
O4    O     O_R   0.177490 0.611290 0.451970 -0.556597
O5    O     O_R   0.001750 0.417420 0.414990 -0.559111
C2    C     C_R   0.345624 0.637800 0.435076 0.773263
O6    O     O_R   0.509610 0.582580 0.585010 -0.518619
O7    O     O_3   0.337420 0.436370 0.488020 -0.365434
V1    V     V_3+5 0.064680 0.511800 0.502220 1.572996
O8    O     O_R   0.671710 0.405400 0.413220 -0.505852
C3    C     C_R   0.837670 0.388318 0.385344 0.705597
O9    O     O_R   0.674440 0.388710 0.548030 -0.536698
C4    C     C_R   0.843536 0.362357 0.565060 0.818233
V2    V     V_3+5 0.564010 0.488200 0.497780 1.637916
O10   O     O_3   0.841140 0.563630 0.511980 -0.376696
C5    C     C_R   0.874508 0.110981 0.613339 -0.167606
H1    H     H_    0.881255 0.986230 0.696885 0.153063
H2    H     H_    0.884128 0.032578 0.589032 0.163857
C6    C     C_R   0.853253 0.284676 0.604777 -0.157222
C7    C     C_R   0.856601 0.316627 0.929114 0.279859
C8    C     C_R   0.856656 0.392723 0.892639 0.457086
C9    C     C_R   0.857049 0.369112 0.822860 -0.251005
C10   C     C_R   0.858164 0.268336 0.787087 0.024939
C11   C     C_R   0.862224 0.190933 0.824443 0.000499
C12   C     C_R   0.858544 0.241830 0.715542 0.122500
C13   C     C_R   0.869097 0.139068 0.683360 0.055303
C14   C     C_R   0.874152 0.064767 0.721124 -0.151906
C15   C     C_R   0.869482 0.089992 0.790387 -0.146506
C16   C     C_R   0.848110 0.313541 0.674554 -0.252534
C17   C     C_R   0.868054 0.183203 0.574061 0.399949
C18   C     C_R   0.860555 0.215857 0.895333 -0.227178
H3    H     H_    0.834384 0.392526 0.695029 0.174472
H4    H     H_    0.859140 0.431762 0.798310 0.211232
H5    H     H_    0.872943 0.029159 0.817038 0.118851
C19   C     C_2   0.990049 0.288077 0.284913 -0.081524
C20   C     C_2   0.834438 0.335810 0.314211 0.265628
H6    H     H_    0.124001 0.290220 0.313475 0.183494
C21   C     C_2   0.992783 0.236641 0.213214 -0.099992
C22   C     C_2   0.867589 0.162496 0.185568 0.309041
H7    H     H_    0.106455 0.258315 0.183014 0.124078
C23   C     C_2   0.253438 0.737404 0.801084 0.449898
C24   C     C_2   0.346312 0.826923 0.817681 -0.350182
H8    H     H_    0.406204 0.862134 0.779609 0.134444
C25   C     C_2   0.232556 0.679198 0.730437 0.266433
C26   C     C_2   0.371870 0.674163 0.683602 0.088716
C27   C     C_R   0.362598 0.890041 0.388826 0.496925
H9    H     H_    0.395248 0.834860 0.479488 0.167100
C28   C     C_R   0.351610 0.714474 0.394560 -0.185066
C29   C     C_R   0.411476 0.685661 0.074041 0.352866
C30   C     C_R   0.439375 0.612691 0.111987 0.427193
C31   C     C_R   0.425837 0.638618 0.181552 -0.272701
C32   C     C_R   0.366006 0.734786 0.214396 0.049929
C33   C     C_R   0.342438 0.809202 0.175736 -0.065038
C34   C     C_R   0.344705 0.760827 0.285283 -0.092237
C35   C     C_R   0.337948 0.864379 0.317853 -0.125966
C36   C     C_R   0.305421 0.936493 0.277867 0.500835
C37   C     C_R   0.305114 0.908039 0.208390 -0.171485
C38   C     C_R   0.326530 0.686936 0.325089 0.403973
C39   C     C_R   0.374036 0.814799 0.425653 -0.311405
C40   C     C_R   0.364334 0.784156 0.105304 -0.228211
H10   H     H_    0.474268 0.583553 0.208915 0.221224
H11   H     H_    0.279331 0.965604 0.180010 0.148413
O11   O     O_R   0.203230 0.917310 0.915020 -0.534872
O12   O     O_R   0.535500 0.888690 0.048040 -0.528441
O13   O     O_R   0.711080 0.082610 0.085000 -0.520686
C41   C     C_R   0.367648 0.862549 0.065424 0.805623
O14   O     O_R   0.532630 0.905370 0.913230 -0.527292
O15   O     O_R   0.708190 0.099410 0.949230 -0.546284
C42   C     C_R   0.361741 0.885552 0.886592 0.821376
O16   O     O_R   0.206120 0.900510 0.050790 -0.538715
O17   O     O_3   0.375360 0.063570 0.011990 -0.387887
V3    V     V_3+5 0.648170 0.988200 0.997780 1.611473
O18   O     O_R   0.038240 0.111390 0.951940 -0.547359
C43   C     C_R   0.869248 0.137351 0.934718 0.776123
O19   O     O_R   0.041120 0.094710 0.086750 -0.560629
C44   C     C_R   0.874463 0.112134 0.114383 0.680633
V4    V     V_3+5 0.148810 0.011930 0.002180 1.540973
O20   O     O_3   0.871750 0.936430 0.988010 -0.356362
Cl1   Cl    Cl    0.878250 0.144464 0.486458 -0.494008
Cl2   Cl    Cl    0.625121 0.350905 0.266504 -0.589085
Cl3   Cl    Cl    0.701927 0.111788 0.234887 -0.509211
Cl4   Cl    Cl    0.138857 0.688048 0.864051 -0.422627
Cl5   Cl    Cl    0.022023 0.602904 0.712781 -0.551535
Cl6   Cl    Cl    0.605180 0.726519 0.704719 -0.598520
Cl7   Cl    Cl    0.241067 0.062079 0.309314 -0.461920
Cl8   Cl    Cl    0.401924 0.012811 0.435860 -0.450525
O21   O     O_3   0.278078 0.587880 0.297620 -0.559203
C45   C     C_3   0.078571 0.581025 0.282602 -0.198357
H12   H     H_    0.038267 0.625295 0.244554 0.152317
H13   H     H_    0.992778 0.605116 0.328464 0.131284
H14   H     H_    0.040385 0.501494 0.261176 0.173849
Cl9   Cl    Cl    0.444953 0.652806 0.987001 -0.437164
O22   O     O_3   0.501147 0.518498 0.081280 -0.497212
C46   C     C_3   0.351841 0.448034 0.082742 0.006284
H15   H     H_    0.216330 0.469292 0.059561 0.171814
H16   H     H_    0.326056 0.438406 0.134605 0.124706
H17   H     H_    0.395470 0.374279 0.053060 0.182312
Cl10  Cl    Cl    0.853372 0.347764 0.017516 -0.620964
Cl11  Cl    Cl    0.859731 0.519721 0.933558 -0.383790

loop_
_geom_bond_atom_site_label_1
_geom_bond_atom_site_label_2
_ccdc_geom_bond_type
C34   C35   A    
C34   C38   A    
C46   H15   S    
C1    O6    A    
C18   C43   S    
C46   H17   S    
C17   Cl1   S    
C21   H7    S    
C6    C16   A    
C32   C33   A    
C36   Cl7   S    
C12   C13   A    
C28   C39   A    
C14   C15   A    
C10   C12   A    
O5    C3    A    
C7    Cl10  S    
V2    O10   S    
O12   V3    S    
C35   C36   A    
C3    C20   S    
C38   O21   S    
O17   V4    S    
C27   C39   A    
O8    V2    S    
O12   C41   A    
C9    C10   A    
O15   V3    S    
O1    V2    S    
O11   C42   A    
C45   H13   S    
O7    V1    S    
C26   Cl6   S    
C11   C18   A    
O9    C4    A    
C20   Cl2   S    
H9    C39   S    
C32   C34   A    
C11   C15   A    
C7    C18   A    
C8    Cl11  S    
O18   C43   A    
C30   C31   A    
C5    C13   A    
C22   Cl3   S    
H1    C14   S    
C10   C11   A    
C2    C28   S    
C21   C22   D    
O4    C2    A    
V4    O20   S    
C1    C26   S    
O14   V3    S    
C25   C26   D    
O13   V3    S    
C23   C25   S    
C27   Cl8   S    
O2    C1    A    
C24   H8    S    
C4    C6    S    
C40   C41   S    
C9    H4    S    
C29   C30   A    
V3    O20   S    
O19   C44   A    
C45   H14   S    
O3    C4    A    
C12   C16   A    
C24   C42   S    
O9    V2    S    
C5    C17   A    
C25   Cl5   S    
C23   C24   D    
O2    V1    S    
C31   C32   A    
C33   C37   A    
C37   H11   S    
O13   C44   A    
C19   C20   D    
C16   H3    S    
O1    C2    A    
O11   V4    S    
C19   C21   S    
C23   Cl4   S    
O19   V4    S    
O17   V3    S    
O5    V1    S    
O8    C3    A    
C46   H16   S    
C29   Cl9   S    
C33   C40   A    
O6    V2    S    
C15   H5    S    
C28   C38   A    
C19   H6    S    
O7    V2    S    
O4    V1    S    
O3    V1    S    
V1    O10   S    
C36   C37   A    
C5    H2    S    
O15   C43   A    
C41   O16   A    
C22   C44   S    
O22   C46   S    
C30   O22   S    
O21   C45   S    
O14   C42   A    
O18   V4    S    
C13   C14   A    
C29   C40   A    
C8    C9    A    
C31   H10   S    
C45   H12   S    
C7    C8    A    
O16   V4    S    
C27   C35   A    
C6    C17   A    
