data_mof_unit_57559.cif
_audit_creation_date              2012-12-11T17:04:53-0500
_audit_creation_method            fapswitch 2.2
_symmetry_space_group_name_H-M    P1
_symmetry_Int_Tables_number       1
_space_group_crystal_system       triclinic
_cell_length_a                    17.397129
_cell_length_b                    24.482588
_cell_length_c                    14.864789
_cell_angle_alpha                 90.321428
_cell_angle_beta                  125.471314
_cell_angle_gamma                 89.318104
_cell_volume                      5155.88706212

loop_
_atom_site_label
_atom_site_type_symbol
_atom_type_description
_atom_site_fract_x
_atom_site_fract_y
_atom_site_fract_z
_atom_type_partial_charge
Br1   Br    Br    0.747078 0.357469 0.083855 -0.474962
Br2   Br    Br    0.226346 0.523965 0.841142 -0.504241
Br3   Br    Br    0.746418 0.138306 0.633718 -0.513547
Br4   Br    Br    0.726566 0.024128 0.841252 -0.503269
Br5   Br    Br    0.794591 0.319240 0.766960 -0.582031
Br6   Br    Br    0.193729 0.322267 0.236700 -0.611876
Br7   Br    Br    0.297608 0.818580 0.767764 -0.586311
Br8   Br    Br    0.695531 0.822712 0.237402 -0.608648
Br9   Br    Br    0.217697 0.335323 0.865956 -0.429028
Br10  Br    Br    0.246758 0.857035 0.083217 -0.473589
Br11  Br    Br    0.717855 0.835240 0.865898 -0.430759
Br12  Br    Br    0.973140 0.381162 0.530926 -0.522178
Br13  Br    Br    0.171142 0.379191 0.536502 -0.426681
Br14  Br    Br    0.473760 0.881066 0.531430 -0.520024
Br15  Br    Br    0.671570 0.879294 0.536649 -0.429613
Br16  Br    Br    0.246504 0.638174 0.633858 -0.514880
C1    C     C_R   0.808373 0.623869 0.904470 -0.118114
C2    C     C_R   0.995575 0.496924 0.668693 0.096065
C3    C     C_R   0.770538 0.045829 0.263523 -0.111767
C4    C     C_R   0.854560 0.348274 0.912587 0.332703
C5    C     C_R   0.144262 0.347702 0.090388 0.292243
C6    C     C_R   0.355013 0.848122 0.912638 0.331592
C7    C     C_R   0.644580 0.847803 0.090490 0.292711
C8    C     C_R   0.899038 0.625994 0.089006 -0.102806
C9    C     C_R   0.094597 0.633219 0.911574 -0.071091
C10   C     C_R   0.399001 0.126022 0.088938 -0.102853
C11   C     C_R   0.594204 0.133515 0.911484 -0.071683
C12   C     C_R   0.809651 0.638891 0.994180 0.065618
C13   C     C_R   0.578180 0.998994 0.375215 0.047360
C14   C     C_R   0.177680 0.651731 0.006770 0.073185
C15   C     C_R   0.309641 0.138960 0.994056 0.065091
C16   C     C_R   0.676966 0.152300 0.006629 0.073682
C17   C     C_1   0.092047 0.599443 0.347304 0.096707
C18   C     C_1   0.944957 0.595377 0.652915 0.014886
C19   C     C_1   0.591991 0.099471 0.347233 0.098090
C20   C     C_1   0.445091 0.095354 0.652942 0.013279
C21   C     C_R   0.495806 0.996913 0.668877 0.095497
C22   C     C_R   0.693430 0.501514 0.638846 0.021136
C23   C     C_R   0.325465 0.499251 0.291409 0.031356
C24   C     C_R   0.190844 0.000320 0.641439 0.025787
C25   C     C_R   0.825233 0.000330 0.286054 0.032229
C26   C     C_3   0.524707 0.470674 0.538299 -0.116152
C27   C     C_3   0.488667 0.447568 0.423824 -0.136478
C28   C     C_3   0.035711 0.949003 0.496478 -0.144912
C29   C     C_R   0.180428 0.635337 0.095924 -0.115815
C30   C     C_3   0.002224 0.964442 0.378186 -0.120572
C31   C     C_3   0.460771 0.521234 0.486340 -0.139055
C32   C     C_3   0.566522 0.478332 0.425057 -0.126261
C33   C     C_3   0.957229 0.984434 0.485541 -0.118817
C34   C     C_3   0.067615 0.015038 0.423335 -0.122224
C35   C     C_3   0.425412 0.498284 0.372631 0.144767
C36   C     C_3   0.600640 0.501458 0.538125 0.146819
C37   C     C_3   0.925033 0.999874 0.368875 0.142036
C38   C     C_3   0.098576 0.999543 0.539463 0.146065
C39   C     C_3   0.500612 0.529143 0.371276 -0.126261
C40   C     C_R   0.308410 0.123942 0.904375 -0.117321
C41   C     C_3   0.537287 0.552105 0.486594 -0.165698
C42   C     C_3   0.987875 0.050415 0.411438 -0.157717
C43   C     C_3   0.020739 0.034817 0.529035 -0.141184
C44   C     C_R   0.854779 0.258597 0.110693 0.016960
C45   C     C_R   0.123994 0.243754 0.890139 0.020137
C46   C     C_R   0.355043 0.758360 0.110649 0.015976
C47   C     C_R   0.624166 0.743759 0.890327 0.020275
C48   C     C_R   0.859141 0.265967 0.020803 0.079889
C49   C     C_R   0.135329 0.259625 0.987605 0.086518
C50   C     C_R   0.359568 0.765748 0.020874 0.079693
C51   C     C_R   0.679792 0.135856 0.095795 -0.116211
C52   C     C_R   0.635655 0.759700 0.987838 0.086568
C53   C     C_R   0.826997 0.224200 0.941939 -0.110634
C54   C     C_R   0.177815 0.221624 0.075399 -0.127161
C55   C     C_R   0.327664 0.723897 0.942174 -0.110795
C56   C     C_R   0.678129 0.721741 0.075690 -0.127311
C57   C     C_R   0.946202 0.350925 0.096400 -0.109506
C58   C     C_R   0.053078 0.348787 0.906971 -0.110413
C59   C     C_R   0.446302 0.850886 0.096420 -0.110339
C60   C     C_R   0.553246 0.848803 0.907048 -0.109768
C61   C     C_R   0.270640 0.683304 0.939239 -0.136590
C62   C     C_R   0.886113 0.318773 0.007724 -0.003742
C63   C     C_R   0.729182 0.677130 0.075312 -0.178875
C64   C     C_R   0.769821 0.183723 0.938961 -0.134300
C65   C     C_R   0.228990 0.177078 0.075049 -0.178791
C66   C     C_R   0.251036 0.683886 0.018240 0.077841
C67   C     C_R   0.732754 0.669072 0.984334 0.085610
C68   C     C_R   0.750324 0.184371 0.018058 0.079222
C69   C     C_R   0.232689 0.169107 0.984150 0.086299
C70   C     C_R   0.304584 0.716721 0.111527 0.056553
C71   C     C_R   0.668331 0.697969 0.886824 0.088516
C72   C     C_R   0.804153 0.217063 0.111508 0.055140
C73   C     C_R   0.113385 0.316181 0.997316 0.009109
C74   C     C_R   0.168268 0.198010 0.886651 0.085231
C75   C     C_3   0.276581 0.749343 0.174010 -0.526601
C76   C     C_3   0.677920 0.722866 0.801692 -0.542359
C77   C     C_3   0.776456 0.249727 0.174253 -0.527393
C78   C     C_3   0.177902 0.222967 0.801607 -0.541564
C79   C     C_3   0.830840 0.296584 0.171265 0.222695
C80   C     C_3   0.130952 0.273876 0.807282 0.223895
C81   C     C_3   0.330779 0.796302 0.170964 0.222616
C82   C     C_3   0.631063 0.773817 0.807368 0.223490
C83   C     C_R   0.082015 0.541640 0.604953 -0.046000
C84   C     C_R   0.386459 0.818636 0.007783 -0.002270
C85   C     C_R   0.125249 0.542726 0.549277 0.010130
C86   C     C_R   0.582147 0.041664 0.605037 -0.046637
C87   C     C_R   0.625323 0.042782 0.549295 0.010671
C88   C     C_R   0.033788 0.495410 0.602591 -0.041562
C89   C     C_R   0.123603 0.495098 0.495613 -0.100770
C90   C     C_R   0.534063 0.995393 0.602810 -0.041821
C91   C     C_R   0.623733 0.995155 0.495661 -0.102309
C92   C     C_R   0.046326 0.446065 0.561846 0.276575
C93   C     C_R   0.107812 0.445708 0.530010 0.281995
C94   C     C_R   0.546716 0.946051 0.562146 0.277758
C95   C     C_R   0.613705 0.816252 0.997463 0.008386
C96   C     C_R   0.608123 0.945751 0.530191 0.281424
C97   C     C_3   0.212856 0.565877 0.652075 0.131252
C98   C     C_3   0.162454 0.568026 0.706627 0.074759
C99   C     C_3   0.712911 0.065988 0.652041 0.132064
C100  C     C_3   0.662549 0.068115 0.706639 0.074985
C101  C     C_R   0.058003 0.545059 0.309387 0.011726
C102  C     C_R   0.978798 0.543833 0.709911 0.049285
C103  C     C_R   0.558002 0.045074 0.309374 0.011431
C104  C     C_R   0.478937 0.043828 0.710007 0.049762
C105  C     C_R   0.741398 0.455813 0.698053 -0.083189
C106  C     C_R   0.078137 0.498968 0.375195 0.047281
C107  C     C_R   0.269425 0.454126 0.255914 -0.049344
C108  C     C_R   0.239970 0.955093 0.700982 -0.064760
C109  C     C_R   0.769638 0.954767 0.252862 -0.067395
C110  C     C_R   0.053141 0.454607 0.305595 -0.066708
C111  C     C_R   0.991040 0.452901 0.723245 -0.028406
C112  C     C_R   0.553175 0.954621 0.305626 -0.067852
C113  C     C_R   0.491185 0.952896 0.723374 -0.027221
C114  C     C_R   0.741837 0.546714 0.697209 -0.138165
C115  C     C_R   0.271091 0.545367 0.265753 -0.127415
C116  C     C_R   0.240331 0.046048 0.697340 -0.157250
H1    H     H_    0.749886 0.626559 0.818921 0.112258
H2    H     H_    0.558562 0.594967 0.513727 0.127236
H3    H     H_    0.966367 0.091842 0.374125 0.127392
H4    H     H_    0.030328 0.063529 0.592865 0.135564
H5    H     H_    0.839201 0.224722 0.878645 0.200704
H6    H     H_    0.178891 0.227563 0.147667 0.189319
H7    H     H_    0.340026 0.724356 0.879027 0.201489
H8    H     H_    0.679277 0.727783 0.147996 0.189083
H9    H     H_    0.237823 0.654227 0.872689 0.160836
H10   H     H_    0.772096 0.652471 0.149167 0.141672
H11   H     H_    0.736765 0.154717 0.872285 0.159981
H12   H     H_    0.229761 0.647144 0.180501 0.104347
H13   H     H_    0.271884 0.152397 0.148875 0.141377
H14   H     H_    0.309756 0.733259 0.258931 0.185175
H15   H     H_    0.633618 0.701766 0.720663 0.181823
H16   H     H_    0.809658 0.233582 0.259137 0.184598
H17   H     H_    0.133663 0.201880 0.720558 0.181966
H18   H     H_    0.199015 0.756273 0.125979 0.240541
H19   H     H_    0.752530 0.728756 0.831681 0.240080
H20   H     H_    0.698933 0.256795 0.126372 0.240897
H21   H     H_    0.252524 0.228893 0.831673 0.240339
H22   H     H_    0.893735 0.307996 0.254378 0.131164
H23   H     H_    0.250030 0.126679 0.818766 0.111331
H24   H     H_    0.060920 0.282443 0.728874 0.136610
H25   H     H_    0.393548 0.807830 0.254077 0.131009
H26   H     H_    0.561007 0.782383 0.728993 0.137142
H27   H     H_    0.991195 0.338775 0.182300 0.147672
H28   H     H_    0.005109 0.335189 0.822564 0.139641
H29   H     H_    0.491319 0.838754 0.182332 0.146895
H30   H     H_    0.505345 0.835171 0.822660 0.141139
H31   H     H_    0.273529 0.536650 0.690898 0.166107
H32   H     H_    0.141847 0.609675 0.715317 0.130382
H33   H     H_    0.773632 0.036795 0.690881 0.165897
H34   H     H_    0.728780 0.147910 0.180287 0.103214
H35   H     H_    0.641860 0.109754 0.715254 0.130420
H36   H     H_    0.724993 0.414735 0.667407 0.171298
H37   H     H_    0.292549 0.412233 0.269275 0.154594
H38   H     H_    0.224309 0.913839 0.671646 0.161863
H39   H     H_    0.793800 0.913028 0.266343 0.162878
H40   H     H_    0.067269 0.412141 0.327863 0.167373
H41   H     H_    0.003187 0.410303 0.717981 0.167758
H42   H     H_    0.567314 0.912158 0.327921 0.167325
H43   H     H_    0.503361 0.910299 0.718162 0.167756
H44   H     H_    0.728332 0.588369 0.667498 0.103740
H45   H     H_    0.536469 0.446934 0.608825 0.155794
H46   H     H_    0.296589 0.585619 0.298259 0.104046
H47   H     H_    0.225489 0.087428 0.665953 0.111804
H48   H     H_    0.795346 0.086007 0.296991 0.098822
H49   H     H_    0.923300 0.632126 0.173529 0.110496
H50   H     H_    0.069846 0.642317 0.828214 0.111755
H51   H     H_    0.423209 0.132142 0.173445 0.110327
H52   H     H_    0.569387 0.142611 0.828103 0.111905
H53   H     H_    0.415537 0.538527 0.510017 0.145104
H54   H     H_    0.613270 0.461113 0.403610 0.149834
H55   H     H_    0.909901 0.971923 0.509024 0.154438
H56   H     H_    0.466978 0.404793 0.396308 0.153035
H57   H     H_    0.116118 0.027489 0.401631 0.138236
H58   H     H_    0.056077 0.907316 0.532582 0.158487
H59   H     H_    0.991312 0.935895 0.313528 0.154095
H60   H     H_    0.487202 0.552750 0.299839 0.141048
N1    N     N_R   0.892620 0.603790 0.941770 -0.045826
N2    N     N_R   0.973690 0.529110 0.793240 -0.063767
N3    N     N_R   0.526310 0.029110 0.206760 -0.071023
N4    N     N_R   0.473690 0.029110 0.793240 -0.063741
N5    N     N_R   0.818570 0.472310 0.793020 -0.040541
N6    N     N_R   0.181430 0.472310 0.206980 -0.040671
N7    N     N_R   0.318570 0.972310 0.793020 -0.042002
N8    N     N_R   0.681430 0.972310 0.206980 -0.039824
N9    N     N_R   0.026930 0.472300 0.207330 -0.053354
N10   N     N_R   0.973070 0.472300 0.792670 -0.063336
N11   N     N_R   0.526930 0.972300 0.207330 -0.053139
N12   N     N_R   0.107380 0.603790 0.058230 -0.044233
N13   N     N_R   0.473070 0.972300 0.792670 -0.063639
N14   N     N_R   0.817960 0.529130 0.792460 -0.046392
N15   N     N_R   0.182040 0.529130 0.207540 -0.048247
N16   N     N_R   0.317960 0.029130 0.792460 -0.045277
N17   N     N_R   0.682040 0.029130 0.207540 -0.049504
N18   N     N_R   0.894850 0.397640 0.943830 -0.074340
N19   N     N_R   0.105150 0.397640 0.056170 -0.069076
N20   N     N_R   0.394850 0.897640 0.943830 -0.074311
N21   N     N_R   0.605150 0.897640 0.056170 -0.068960
N22   N     N_R   0.950040 0.603780 0.055950 -0.049041
N23   N     N_R   0.392620 0.103790 0.941770 -0.045331
N24   N     N_R   0.049960 0.603780 0.944050 -0.046163
N25   N     N_R   0.450040 0.103780 0.055950 -0.049162
N26   N     N_R   0.549960 0.103780 0.944050 -0.045924
N27   N     N_1   0.118280 0.643649 0.374951 -0.017110
N28   N     N_1   0.917498 0.636711 0.606733 -0.046344
N29   N     N_1   0.618175 0.143689 0.374829 -0.016937
N30   N     N_1   0.417625 0.136672 0.606694 -0.046694
N31   N     N_R   0.607380 0.103790 0.058230 -0.044409
N32   N     N_R   0.952270 0.397640 0.058010 -0.057073
N33   N     N_R   0.047730 0.397640 0.941990 -0.056973
N34   N     N_R   0.452270 0.897640 0.058010 -0.056884
N35   N     N_R   0.547730 0.897640 0.941990 -0.057165
N36   N     N_R   0.026310 0.529110 0.206760 -0.070932
Ni1   Ni    Ni4+2 0.934160 0.565860 0.869070 0.239141
Ni2   Ni    Ni4+2 0.065840 0.565860 0.130930 0.236531
Ni3   Ni    Ni4+2 0.434160 0.065860 0.869070 0.239540
Ni4   Ni    Ni4+2 0.565840 0.065860 0.130930 0.236690
Ni5   Ni    Ni4+2 0.067260 0.435560 0.132230 0.270994
Ni6   Ni    Ni4+2 0.932740 0.435560 0.867770 0.261636
Ni7   Ni    Ni4+2 0.567260 0.935560 0.132230 0.270565
Ni8   Ni    Ni4+2 0.432740 0.935560 0.867770 0.262370

loop_
_geom_bond_atom_site_label_1
_geom_bond_atom_site_label_2
_ccdc_geom_bond_type
C28   C33   S    
C18   C102  S    
C32   C39   S    
C67   C71   A    
C104  N4    A    
C101  N36   A    
C111  H41   S    
C15   C69   S    
C37   C42   S    
N9    N36   A    
C55   C61   A    
C85   C97   S    
C91   C96   A    
C14   C29   A    
C60   H30   S    
C58   H28   S    
N8    Ni7   S    
N1    Ni1   S    
C30   H59   S    
C64   C68   A    
C115  N15   A    
Br16  C97   S    
C83   C98   S    
N36   Ni2   S    
C44   C72   A    
C45   C80   S    
C76   C82   S    
N1    N22   A    
Br5   C4    S    
C5    C73   A    
C45   C74   A    
C78   H17   S    
C49   C73   S    
N35   Ni8   S    
C13   C103  A    
C108  N7    A    
C34   C38   S    
Br11  C82   S    
C114  N14   A    
N33   Ni6   S    
C22   C114  A    
C58   C73   A    
C56   C63   A    
C70   C75   S    
N23   N25   A    
N25   Ni4   S    
C90   C94   A    
C18   N28   T    
C57   H27   S    
C63   H10   S    
N3    N11   A    
C26   H45   S    
C99   C100  S    
N2    N10   A    
C43   H4    S    
Br8   C7    S    
C23   C107  A    
C92   C93   A    
C77   H16   S    
C50   C84   S    
N4    N13   A    
C54   C65   A    
C34   H57   S    
C11   H52   S    
N7    N16   A    
C40   N23   A    
Br13  C93   S    
C107  N6    A    
C28   H58   S    
C23   C35   S    
C72   C77   S    
C8    N22   A    
C82   H26   S    
C109  N8    A    
C6    N20   A    
N6    N15   A    
C29   H12   S    
C57   C62   A    
C100  H35   S    
C4    N18   A    
C15   C40   A    
C31   H53   S    
C27   C32   S    
C2    C102  A    
C103  N3    A    
C52   C56   A    
C75   H14   S    
N20   N34   A    
C10   H51   S    
C83   C88   A    
C24   C116  A    
C61   C66   A    
C10   C15   A    
C77   C79   S    
C71   C76   S    
C10   N25   A    
C85   C89   A    
N2    Ni1   S    
N5    N14   A    
C40   H23   S    
C16   C68   S    
N20   Ni8   S    
C115  H46   S    
C28   C30   S    
C44   C48   A    
C74   C78   S    
C61   H9    S    
C38   C43   S    
C17   N27   T    
C110  N9    A    
C53   H5    S    
C17   C101  S    
C24   C108  A    
C6    C84   A    
C46   C50   A    
C34   C42   S    
C25   C109  A    
N26   N31   A    
C45   C49   A    
N18   N32   A    
N8    N17   A    
N12   N24   A    
C1    N1    A    
Br12  C92   S    
C31   C35   S    
N16   Ni3   S    
C114  H44   S    
C42   C43   S    
C66   C70   A    
Br6   C5    S    
N34   Ni7   S    
N19   Ni5   S    
C52   C95   S    
N17   Ni4   S    
C81   H25   S    
C14   C66   S    
Br10  C81   S    
C87   C99   S    
C101  C106  A    
N11   Ni7   S    
N21   N35   A    
C28   C38   S    
C2    C111  A    
N10   Ni6   S    
C46   C81   S    
C113  N13   A    
C98   H32   S    
C50   C55   A    
C33   H55   S    
N4    Ni3   S    
C56   H8    S    
Br1   C79   S    
C64   H11   S    
C97   H31   S    
C76   H19   S    
N24   Ni1   S    
C3    C25   A    
C76   H15   S    
C2    C88   S    
C48   C53   A    
C75   C81   S    
C32   H54   S    
C78   C80   S    
Br9   C80   S    
C25   C37   S    
C107  H37   S    
C16   C51   A    
C60   C95   A    
C51   H34   S    
N3    Ni4   S    
C83   C85   A    
C22   C105  A    
C54   H6    S    
C24   C38   S    
C39   C41   S    
N32   Ni5   S    
C1    H1    S    
N23   Ni3   S    
C41   H2    S    
C99   H33   S    
C26   C27   S    
N22   Ni2   S    
C20   N30   T    
N13   Ni8   S    
C88   C92   A    
C9    H50   S    
C46   C70   A    
C21   C104  A    
C97   C98   S    
C7    N21   A    
C9    C14   A    
Br14  C94   S    
C105  H36   S    
C89   C93   A    
C47   C52   A    
C58   N33   A    
C57   N32   A    
C47   C71   A    
C8    H49   S    
C3    N17   A    
C1    C12   A    
C48   C62   S    
Br15  C96   S    
Br4   C100  S    
C59   N34   A    
C113  H43   S    
N5    Ni6   S    
C8    C12   A    
C77   H20   S    
N6    Ni5   S    
C105  N5    A    
C75   H18   S    
C55   H7    S    
C69   C74   A    
N15   Ni2   S    
C116  N16   A    
C60   N35   A    
C42   H3    S    
C47   C82   S    
Br7   C6    S    
C7    C95   A    
C30   C34   S    
C65   H13   S    
C51   N31   A    
C33   C43   S    
C4    C62   A    
C59   H29   S    
C79   H22   S    
C39   H60   S    
C106  C110  A    
C19   N29   T    
C102  N2    A    
C21   C90   S    
Br3   C99   S    
N7    Ni8   S    
C63   C67   A    
Br2   C98   S    
C27   C35   S    
C19   C103  S    
C80   H24   S    
C68   C72   A    
C23   C115  A    
C27   H56   S    
C78   H21   S    
C29   N12   A    
C30   C37   S    
C59   C84   A    
C21   C113  A    
C89   C106  S    
C86   C90   A    
C35   C39   S    
C26   C31   S    
N18   Ni6   S    
C86   C100  S    
N12   Ni2   S    
C86   C87   A    
C109  H39   S    
C111  N10   A    
C94   C96   A    
N26   Ni3   S    
C33   C37   S    
C110  H40   S    
C36   C41   S    
C11   C16   A    
C116  H47   S    
C9    N24   A    
C44   C79   S    
C5    N19   A    
N31   Ni4   S    
C32   C36   S    
C108  H38   S    
C112  H42   S    
C11   N26   A    
N19   N33   A    
C13   C112  A    
C31   C41   S    
C22   C36   S    
C13   C91   S    
C53   C64   A    
C87   C91   A    
N14   Ni1   S    
N21   Ni7   S    
C3    H48   S    
C112  N11   A    
C20   C104  S    
C65   C69   A    
C49   C54   A    
N9    Ni5   S    
C26   C36   S    
C12   C67   S    
