data_mof_unit_53789.cif
_audit_creation_date              2012-12-10T20:25:40-0500
_audit_creation_method            fapswitch 2.2
_symmetry_space_group_name_H-M    P1
_symmetry_Int_Tables_number       1
_space_group_crystal_system       triclinic
_cell_length_a                    8.588075
_cell_length_b                    10.687941
_cell_length_c                    9.876066
_cell_angle_alpha                 89.788011
_cell_angle_beta                  98.4362
_cell_angle_gamma                 90.235635
_cell_volume                      896.692041497

loop_
_atom_site_label
_atom_site_type_symbol
_atom_type_description
_atom_site_fract_x
_atom_site_fract_y
_atom_site_fract_z
_atom_type_partial_charge
C1    C     C_R   0.504425 0.260076 0.500827 0.874023
C2    C     C_R   0.563032 0.935843 0.389297 -0.198209
C3    C     C_R   0.522899 0.871550 0.503401 -0.069238
C4    C     C_R   0.510701 0.935953 0.623583 0.070320
C5    C     C_3   0.391041 0.930006 0.719872 -0.000059
C6    C     C_3   0.397744 0.072056 0.721983 -0.512518
C7    C     C_R   0.431689 0.403891 0.063141 0.213212
C8    C     C_R   0.579637 0.588798 0.081728 -0.127824
C9    C     C_R   0.579659 0.588805 0.937827 -0.120290
C10   C     C_R   0.430868 0.404219 0.920521 0.214827
C11   C     C_3   0.261124 0.368004 0.895564 -0.508251
C12   C     C_R   0.201257 0.500366 0.464202 0.991929
C13   C     C_3   0.263398 0.365565 0.049350 -0.499731
C14   C     C_R   0.503487 0.739903 0.500236 0.914779
C15   C     C_R   0.798648 0.501339 0.535614 0.964382
C16   C     C_2   0.036137 0.499742 0.444680 -0.371089
C17   C     C_2   0.963505 0.505348 0.554344 -0.346831
C18   C     C_R   0.515648 0.063240 0.625169 0.096325
C19   C     C_R   0.526858 0.128678 0.504919 -0.072579
C20   C     C_R   0.564404 0.065318 0.389829 -0.209841
H1    H     H_    0.641554 0.661882 0.891243 0.148300
H2    H     H_    0.185761 0.443508 0.844831 0.219213
H3    H     H_    0.241401 0.274431 0.847839 0.203131
H4    H     H_    0.249089 0.270029 0.090754 0.204276
H5    H     H_    0.024543 0.513638 0.658090 0.176844
H6    H     H_    0.585270 0.114834 0.298212 0.167121
H7    H     H_    0.584009 0.887142 0.297683 0.162605
H8    H     H_    0.287055 0.118286 0.674893 0.220259
H9    H     H_    0.450666 0.110324 0.822932 0.185913
N1    N     N_R   0.498950 0.499140 0.142680 -0.108063
N2    N     N_R   0.498950 0.499180 0.857030 -0.105012
O1    O     O_R   0.500020 0.316790 0.614690 -0.618520
O2    O     O_R   0.500000 0.316760 0.385350 -0.628777
O3    O     O_R   0.271760 0.500010 0.587850 -0.604788
O4    O     O_R   0.271740 0.499970 0.358500 -0.625860
O5    O     O_R   0.500000 0.683240 0.614650 -0.614264
O6    O     O_R   0.499980 0.683210 0.385310 -0.629203
O7    O     O_R   0.728260 0.500030 0.641500 -0.625342
O8    O     O_R   0.728240 0.499990 0.412150 -0.618985
Zn1   Zn    Zn3+2 0.500010 0.500020 0.653130 0.959923
Zn2   Zn    Zn3+2 0.499990 0.499980 0.346870 0.947262
H10   H     H_    0.974783 0.493124 0.340412 0.176163
H11   H     H_    0.187457 0.438270 0.086058 0.223089
I1    I     I_    0.163487 0.859894 0.631355 -0.410316
H12   H     H_    0.439735 0.887110 0.819826 0.145825
H13   H     H_    0.641532 0.661870 0.143523 0.145873

loop_
_geom_bond_atom_site_label_1
_geom_bond_atom_site_label_2
_ccdc_geom_bond_type
C8    C9    A    
C7    C10   A    
N1    Zn2   S    
C2    H7    S    
C11   H2    S    
C19   C20   A    
O5    Zn1   S    
C17   H5    S    
C8    N1    A    
C13   H11   S    
C2    C3    A    
C4    C18   A    
O8    Zn2   S    
C7    N1    A    
C5    H12   S    
N2    Zn1   S    
C14   O6    A    
O7    Zn1   S    
C11   C13   S    
C15   O8    A    
C3    C14   S    
C20   H6    S    
C15   O7    A    
O3    Zn1   S    
C11   H3    S    
C5    I1    S    
O1    Zn1   S    
O6    Zn2   S    
C5    C6    S    
O4    Zn2   S    
C6    C18   S    
C8    H13   S    
C1    C19   S    
C10   C11   S    
C9    N2    A    
C1    O2    A    
C3    C4    A    
C9    H1    S    
C16   H10   S    
C7    C13   S    
C6    H9    S    
O2    Zn2   S    
C18   C19   A    
C15   C17   S    
C16   C17   D    
C14   O5    A    
C12   O3    A    
C2    C20   A    
C10   N2    A    
C1    O1    A    
C6    H8    S    
C12   C16   S    
C13   H4    S    
C4    C5    S    
C12   O4    A    
