data_mof_unit_56825.cif
_audit_creation_date              2012-10-26T18:53:54-0400
_audit_creation_method            fapswitch 2.2
_symmetry_space_group_name_H-M    P1
_symmetry_Int_Tables_number       1
_space_group_crystal_system       triclinic
_cell_length_a                    14.684888
_cell_length_b                    14.698284
_cell_length_c                    17.34652
_cell_angle_alpha                 105.711945
_cell_angle_beta                  73.126145
_cell_angle_gamma                 114.932992
_cell_volume                      3201.1099483

loop_
_atom_site_label
_atom_site_type_symbol
_atom_type_description
_atom_site_fract_x
_atom_site_fract_y
_atom_site_fract_z
_atom_type_partial_charge
C1    C     C_R   0.118713 0.688222 0.514670 0.547053
C2    C     C_R   0.708911 0.177185 0.495386 -0.144670
C3    C     C_R   0.357722 0.923588 0.528338 0.017069
C4    C     C_R   0.640441 0.077089 0.501178 0.019274
C5    C     C_R   0.316114 0.001195 0.558450 0.049078
C6    C     C_R   0.681207 0.999725 0.484295 0.047738
C7    C     C_R   0.465387 0.948731 0.515468 0.032847
C8    C     C_R   0.532321 0.052283 0.522063 0.031505
C9    C     C_R   0.489023 0.127862 0.551809 -0.149666
C10   C     C_R   0.507836 0.873586 0.499257 -0.144281
C11   C     C_R   0.383873 0.102851 0.570008 -0.140144
C12   C     C_R   0.881232 0.311759 0.486073 0.546894
C13   C     C_R   0.612682 0.898697 0.485594 -0.139628
C14   C     C_R   0.287290 0.319510 0.371720 -0.164612
C15   C     C_R   0.710538 0.677400 0.632608 -0.166763
C16   C     C_R   0.990651 0.504894 0.652648 0.548450
C17   C     C_R   0.009599 0.495494 0.347363 0.547957
C18   C     C_R   0.208236 0.354729 0.388515 0.036015
C19   C     C_R   0.791761 0.644565 0.612379 0.036512
C20   C     C_R   0.286747 0.491084 0.486795 0.031121
C21   C     C_R   0.711817 0.508123 0.514843 0.030836
C22   C     C_R   0.371709 0.460775 0.471516 -0.012333
C23   C     C_R   0.185061 0.796435 0.528187 -0.025677
C24   C     C_R   0.624180 0.535304 0.534425 -0.012268
C25   C     C_R   0.369368 0.370470 0.413764 0.039653
C26   C     C_R   0.625638 0.624029 0.593851 0.038650
C27   C     C_R   0.456720 0.515559 0.512551 -0.005197
C28   C     C_R   0.537270 0.478738 0.495901 -0.005400
C29   C     C_R   0.528053 0.385343 0.442469 -0.118725
C30   C     C_R   0.463221 0.605877 0.569870 -0.121287
C31   C     C_R   0.446941 0.331279 0.400461 0.020796
C32   C     C_R   0.543601 0.658501 0.612810 0.018064
C33   C     C_R   0.989663 0.512982 0.738600 0.014692
C34   C     C_R   0.814299 0.203602 0.481599 -0.024684
C35   C     C_R   0.011738 0.489144 0.261449 0.013933
C36   C     C_R   0.071218 0.506247 0.760234 -0.134840
C37   C     C_R   0.931525 0.498211 0.239691 -0.134418
C38   C     C_R   0.071114 0.514408 0.841774 -0.110707
C39   C     C_R   0.933058 0.492288 0.158213 -0.109661
C40   C     C_R   0.988742 0.528203 0.902703 0.043088
C41   C     C_R   0.015566 0.478432 0.097470 0.042954
C42   C     C_R   0.908958 0.538286 0.881502 -0.117463
C43   C     C_R   0.094062 0.466186 0.118774 -0.117780
C44   C     C_R   0.909061 0.530290 0.799766 -0.130920
C45   C     C_R   0.207850 0.975333 0.576777 0.016674
C46   C     C_R   0.092519 0.471937 0.200440 -0.131026
C47   C     C_2   0.983725 0.531401 0.988787 -0.136128
C48   C     C_2   0.021578 0.476385 0.011399 -0.136017
C49   C     C_3   0.440629 0.230544 0.342300 -0.278009
C50   C     C_3   0.525716 0.191741 0.332933 -0.446193
C51   C     C_3   0.544011 0.752553 0.678293 -0.278724
C52   C     C_3   0.447371 0.777933 0.702086 -0.444719
C53   C     C_3   0.162724 0.058125 0.612693 -0.279220
C54   C     C_3   0.045697 0.021635 0.637238 -0.454381
C55   C     C_3   0.833343 0.942173 0.448196 -0.279303
C56   C     C_R   0.789374 0.025109 0.466502 0.015686
C57   C     C_3   0.950279 0.976590 0.424550 -0.453432
C58   C     C_R   0.143850 0.872010 0.561742 -0.114557
C59   C     C_R   0.854314 0.128113 0.466926 -0.114141
C60   C     C_R   0.290719 0.822835 0.510224 -0.148919
Cu1   Cu    Cu3+1 0.916740 0.524770 0.521640 0.927030
Cu2   Cu    Cu3+1 0.083260 0.475230 0.478360 0.926665
H1    H     H_    0.135482 0.495264 0.714305 0.123818
H2    H     H_    0.716447 0.745490 0.677926 0.081687
H3    H     H_    0.583098 0.352008 0.434333 0.097764
H4    H     H_    0.405715 0.637166 0.582001 0.096827
H5    H     H_    0.154768 0.463650 0.215738 0.127078
H6    H     H_    0.845857 0.536914 0.784539 0.126988
H7    H     H_    0.060401 0.430420 0.965894 0.115382
H8    H     H_    0.944839 0.577343 0.034230 0.115408
H9    H     H_    0.845531 0.550102 0.928090 0.100511
H10   H     H_    0.157529 0.454218 0.072331 0.100291
H11   H     H_    0.869191 0.497612 0.143056 0.102096
H12   H     H_    0.867230 0.509352 0.285475 0.124786
H13   H     H_    0.135837 0.510650 0.856854 0.101494
H14   H     H_    0.356971 0.165150 0.592688 0.107237
H15   H     H_    0.638775 0.836941 0.475463 0.110185
H16   H     H_    0.681919 0.236481 0.500030 0.117976
H17   H     H_    0.319411 0.763095 0.479913 0.126205
H18   H     H_    0.936524 0.150972 0.455898 0.133937
H19   H     H_    0.061469 0.848983 0.575716 0.131075
H20   H     H_    0.601604 0.247097 0.308284 0.146326
H21   H     H_    0.526157 0.177226 0.392349 0.158742
H22   H     H_    0.511603 0.118726 0.289191 0.143900
H23   H     H_    0.534234 0.207886 0.565022 0.106651
H24   H     H_    0.366722 0.170208 0.363807 0.144952
H25   H     H_    0.441140 0.238868 0.280358 0.140909
H26   H     H_    0.436555 0.800485 0.650342 0.154357
H27   H     H_    0.378819 0.712029 0.722559 0.148417
H28   H     H_    0.455512 0.843251 0.753518 0.143198
H29   H     H_    0.554560 0.740973 0.735361 0.141976
H30   H     H_    0.610182 0.820036 0.657489 0.143373
H31   H     H_    0.010099 0.979096 0.583338 0.145233
H32   H     H_    0.016521 0.972817 0.684760 0.146299
H33   H     H_    0.022800 0.088539 0.663001 0.144296
H34   H     H_    0.461664 0.794134 0.500409 0.099422
H35   H     H_    0.192933 0.103433 0.668716 0.142828
H36   H     H_    0.188692 0.109525 0.567475 0.143495
H37   H     H_    0.979796 0.011037 0.368279 0.147729
H38   H     H_    0.986247 0.032012 0.475111 0.145517
H39   H     H_    0.972333 0.909624 0.412142 0.145794
H40   H     H_    0.807097 0.905035 0.502851 0.141017
H41   H     H_    0.802544 0.883912 0.396487 0.144835
H42   H     H_    0.720629 0.446752 0.466707 0.114464
H43   H     H_    0.278605 0.554445 0.532691 0.116231
H44   H     H_    0.856600 0.686683 0.642087 0.120851
H45   H     H_    0.144642 0.313503 0.357332 0.121917
H46   H     H_    0.281822 0.251361 0.326545 0.082428
N1    N     N_R   0.208390 0.438070 0.445820 -0.232767
N2    N     N_R   0.791610 0.561930 0.554180 -0.232049
O1    O     O_R   0.020090 0.662480 0.528530 -0.508992
O2    O     O_R   0.979910 0.337520 0.471470 -0.508850
O3    O     O_R   0.160710 0.620650 0.491980 -0.510416
O4    O     O_R   0.839290 0.379350 0.508020 -0.508867
O5    O     O_R   0.921540 0.523360 0.633990 -0.506077
O6    O     O_R   0.078460 0.476640 0.366010 -0.506072
O7    O     O_R   0.062170 0.481520 0.597440 -0.508140
O8    O     O_R   0.937830 0.518480 0.402560 -0.508020

loop_
_geom_bond_atom_site_label_1
_geom_bond_atom_site_label_2
_ccdc_geom_bond_type
C25   C31   A    
C40   C47   S    
C38   C40   A    
C55   C56   S    
C60   H17   S    
C26   C32   A    
C43   H10   S    
C23   C58   A    
C49   H25   S    
C52   H28   S    
C18   N1    A    
C48   H7    S    
C4    C8    A    
C37   H12   S    
C21   N2    A    
C50   H22   S    
C7    C8    A    
C39   C41   A    
C53   C54   S    
C15   C19   A    
C55   H40   S    
C1    O3    A    
C28   C29   A    
C35   C37   A    
C24   C26   A    
C5    C11   A    
C3    C7    A    
C11   H14   S    
C51   H30   S    
C57   H37   S    
C55   H41   S    
C33   C36   A    
C7    C10   A    
C14   C18   A    
C18   H45   S    
Cu2   O7    S    
C9    H23   S    
C21   H42   S    
C8    C9    A    
C54   H31   S    
C22   C25   A    
Cu1   O5    S    
C15   H2    S    
C36   H1    S    
C51   H29   S    
C3    C60   A    
C2    C34   A    
C40   C42   A    
C45   C53   S    
C27   C30   A    
C41   C43   A    
C52   H27   S    
C42   C44   A    
C31   C49   S    
Cu1   N2    S    
C50   H21   S    
C12   O4    A    
C38   H13   S    
C23   C60   A    
C13   H15   S    
C45   C58   A    
C51   C52   S    
C52   H26   S    
Cu2   O3    S    
C4    C6    A    
C58   H19   S    
C15   C26   A    
C53   H35   S    
C47   H8    S    
C5    C45   A    
C2    C4    A    
C32   C51   S    
Cu2   O6    S    
C2    H16   S    
C16   C33   S    
C47   C48   D    
C10   H34   S    
C9    C11   A    
C54   H33   S    
C30   H4    S    
C17   O8    A    
C29   H3    S    
C20   C22   A    
C1    C23   S    
C22   C27   A    
C55   C57   S    
C34   C59   A    
C44   H6    S    
C12   C34   S    
Cu1   O1    S    
C16   O5    A    
C12   O2    A    
C50   H20   S    
C20   H43   S    
C19   N2    A    
Cu1   O8    S    
C33   C44   A    
C49   H24   S    
C24   C28   A    
C6    C56   A    
C3    C5    A    
C10   C13   A    
C59   H18   S    
C53   H36   S    
C57   H39   S    
C56   C59   A    
C36   C38   A    
C46   H5    S    
C37   C39   A    
C16   O7    A    
C1    O1    A    
C6    C13   A    
C30   C32   A    
C57   H38   S    
Cu2   N1    S    
C14   H46   S    
C42   H9    S    
C41   C48   S    
C39   H11   S    
C14   C25   A    
Cu1   Cu2   S    
C43   C46   A    
C54   H32   S    
C20   N1    A    
C19   H44   S    
Cu2   O2    S    
C29   C31   A    
C49   C50   S    
C21   C24   A    
Cu1   O4    S    
C17   C35   S    
C35   C46   A    
C17   O6    A    
C27   C28   A    
