data_mof_unit_58837.cif
_audit_creation_date              2012-12-10T18:21:51-0500
_audit_creation_method            fapswitch 2.2
_symmetry_space_group_name_H-M    P1
_symmetry_Int_Tables_number       1
_space_group_crystal_system       triclinic
_cell_length_a                    19.289738
_cell_length_b                    10.614978
_cell_length_c                    9.470005
_cell_angle_alpha                 90.377891
_cell_angle_beta                  91.378306
_cell_angle_gamma                 90.525191
_cell_volume                      1938.39206181

loop_
_atom_site_label
_atom_site_type_symbol
_atom_type_description
_atom_site_fract_x
_atom_site_fract_y
_atom_site_fract_z
_atom_type_partial_charge
C1    C     C_R   0.500248 0.259808 0.499501 0.885606
C2    C     C_R   0.499801 0.740237 0.500463 0.893803
C3    C     C_3   0.558329 0.042187 0.560738 0.499785
C4    C     C_3   0.441940 0.958077 0.438999 0.501895
C5    C     C_3   0.554910 0.957449 0.428157 -0.268135
C6    C     C_3   0.445331 0.042718 0.571624 -0.279580
C7    C     C_3   0.499845 0.876980 0.501344 -0.177163
C8    C     C_3   0.500375 0.123157 0.498463 -0.175718
C9    C     C_3   0.504262 0.960224 0.635116 -0.211035
C10   C     C_3   0.496019 0.040011 0.364738 -0.205719
C11   C     C_3   0.496115 0.613708 0.051893 -0.140298
C12   C     C_3   0.503970 0.386303 0.948080 -0.117520
C13   C     C_3   0.444170 0.550457 0.946056 -0.189743
C14   C     C_3   0.556071 0.449862 0.053930 -0.143358
C15   C     C_3   0.551727 0.563046 0.955447 0.544628
C16   C     C_3   0.448438 0.437277 0.044300 0.461096
C17   C     C_R   0.367763 0.498500 0.499088 0.851939
C18   C     C_R   0.632381 0.498011 0.501073 0.863604
C19   C     C_R   0.256639 0.574174 0.590652 -0.114978
C20   C     C_R   0.744567 0.527614 0.382268 -0.181346
C21   C     C_R   0.184211 0.570386 0.595914 0.062146
C22   C     C_R   0.816876 0.520491 0.379488 0.050526
C23   C     C_R   0.146537 0.484303 0.507191 -0.092314
C24   C     C_R   0.854031 0.479747 0.501830 -0.095797
C25   C     C_R   0.182765 0.401636 0.417372 0.370760
C26   C     C_R   0.817280 0.441513 0.622454 0.407585
C27   C     C_R   0.255106 0.406956 0.416583 -0.191506
C28   C     C_R   0.744864 0.445611 0.619518 -0.100572
C29   C     C_R   0.291957 0.494978 0.499319 -0.106927
C30   C     C_R   0.708424 0.491968 0.502055 -0.114983
C31   C     C_R   0.930205 0.480464 0.504296 0.477262
C32   C     C_R   0.070385 0.482675 0.506547 0.456640
Cu1   Cu    Cu3+1 0.500020 0.499990 0.643150 1.054210
Cu2   Cu    Cu3+1 0.499980 0.500010 0.356850 1.040437
H1    H     H_    0.285738 0.639266 0.658615 0.166792
H2    H     H_    0.716336 0.559848 0.289119 0.190725
H3    H     H_    0.282957 0.340161 0.353739 0.257594
H4    H     H_    0.716539 0.410592 0.708420 0.240734
H5    H     H_    0.600057 0.920268 0.371043 0.204386
H6    H     H_    0.400152 0.079876 0.628647 0.204534
H7    H     H_    0.508277 0.926236 0.745608 0.215829
H8    H     H_    0.491990 0.074106 0.254285 0.215845
H9    H     H_    0.396801 0.591989 0.897219 0.172243
H10   H     H_    0.603499 0.408469 0.102657 0.183124
H11   H     H_    0.493543 0.709760 0.098327 0.207406
H12   H     H_    0.506278 0.290190 0.901730 0.197397
N1    N     N_R   0.034570 0.588870 0.476414 -0.232490
N2    N     N_R   0.966011 0.374146 0.533903 -0.122409
N3    N     N_R   0.965639 0.587886 0.475778 -0.232297
N4    N     N_R   0.034981 0.375408 0.535803 -0.131881
N5    N     N_3   0.500050 0.499970 0.858290 -0.229470
N6    N     N_3   0.499950 0.500030 0.141710 -0.236649
O1    O     O_R   0.500030 0.316850 0.620870 -0.570768
O2    O     O_R   0.499970 0.683150 0.379130 -0.568919
O3    O     O_R   0.500000 0.316860 0.379090 -0.554821
O4    O     O_R   0.500000 0.683140 0.620910 -0.554902
O5    O     O_R   0.400160 0.499980 0.620930 -0.592854
O6    O     O_R   0.599840 0.500020 0.379070 -0.597069
O7    O     O_R   0.400130 0.499990 0.379150 -0.538440
O8    O     O_R   0.599870 0.500010 0.620850 -0.522865
S1    S     S_3+6 0.625801 0.655507 0.910454 0.020500
O9    O     O_2   0.686354 0.570542 0.888578 -0.304296
O10   O     O_2   0.612193 0.731726 0.780104 -0.250920
O11   O     O_3   0.644907 0.753763 0.046158 -0.561172
H13   H     H_    0.689375 0.794512 0.021530 0.382332
S2    S     S_3+6 0.372378 0.351896 0.090083 0.037706
O12   O     O_2   0.350561 0.270042 0.966528 -0.257460
O13   O     O_2   0.386316 0.269760 0.215662 -0.253400
O14   O     O_3   0.307940 0.453073 0.122760 -0.541366
H14   H     H_    0.330622 0.535750 0.141344 0.354058
C33   C     C_3   0.149737 0.656669 0.700798 -0.402890
C34   C     C_3   0.147749 0.792352 0.646209 -0.319878
C35   C     C_3   0.110771 0.879050 0.748511 -0.707354
H15   H     H_    0.056288 0.847060 0.761219 0.262483
H16   H     H_    0.138008 0.879879 0.853221 0.259930
H17   H     H_    0.110449 0.976484 0.706522 0.272174
H18   H     H_    0.201470 0.828336 0.632707 0.255664
H19   H     H_    0.120211 0.794877 0.541829 0.259311
H20   H     H_    0.096455 0.623897 0.724182 0.225572
H21   H     H_    0.179223 0.654209 0.803153 0.212720
C36   C     C_3   0.851437 0.550534 0.241360 -0.354133
C37   C     C_3   0.852540 0.692765 0.214054 -0.356213
C38   C     C_3   0.884446 0.722197 0.071970 -0.702944
H22   H     H_    0.853315 0.677310 0.984809 0.293947
H23   H     H_    0.885146 0.825664 0.055523 0.251871
H24   H     H_    0.938536 0.687360 0.069336 0.260917
H25   H     H_    0.798869 0.730052 0.213868 0.234822
H26   H     H_    0.883217 0.741573 0.299226 0.255433
H27   H     H_    0.904983 0.513416 0.238421 0.219984
H28   H     H_    0.822154 0.501893 0.154086 0.255607
S3    S     S_3+6 0.139953 0.291154 0.303213 0.049283
O15   O     O_2   0.114269 0.182491 0.389029 -0.228305
O16   O     O_2   0.079094 0.351441 0.228975 -0.295506
O17   O     O_3   0.194488 0.235442 0.182145 -0.455932
H29   H     H_    0.194113 0.298910 0.105959 0.396929
S4    S     S_3+6 0.859704 0.390548 0.779988 0.026238
O18   O     O_2   0.810007 0.388751 0.899815 -0.281087
O19   O     O_2   0.886688 0.259750 0.757528 -0.239249
O20   O     O_3   0.926357 0.488268 0.821554 -0.555863
H30   H     H_    0.946349 0.455228 0.911084 0.383039
S5    S     S_3+6 0.637167 0.100003 0.640020 0.017815
O21   O     O_2   0.676030 0.175121 0.533205 -0.320157
O22   O     O_2   0.621334 0.182220 0.764703 -0.301749
O23   O     O_3   0.685537 0.977570 0.693540 -0.474689
H31   H     H_    0.727734 0.016118 0.737844 0.391593
S6    S     S_3+6 0.363231 0.901783 0.357979 0.011031
O24   O     O_2   0.379129 0.826746 0.227816 -0.307607
O25   O     O_2   0.325661 0.819906 0.460401 -0.354887
O26   O     O_3   0.313510 0.025311 0.313737 -0.452511
H32   H     H_    0.270040 0.987732 0.273915 0.402603

loop_
_geom_bond_atom_site_label_1
_geom_bond_atom_site_label_2
_ccdc_geom_bond_type
S2    O13   D    
S5    O21   D    
C27   C29   A    
C1    C8    S    
C17   C29   S    
C35   H15   S    
C2    C7    S    
C6    C9    S    
C33   H20   S    
C36   C37   S    
N1    N3    A    
C20   C30   A    
C21   C33   S    
C38   H22   S    
C19   C21   A    
C24   C26   A    
S2    O14   S    
C10   H8    S    
S6    O24   D    
C37   H25   S    
S4    O20   S    
S1    O10   D    
C1    O1    A    
O23   H31   S    
C34   H19   S    
C11   N6    S    
C13   N5    S    
C11   C15   S    
C18   O6    A    
C14   N6    S    
C12   C16   S    
S4    O19   D    
C18   C30   S    
C15   N5    S    
C36   H27   S    
C3    S5    S    
Cu1   O4    S    
N2    N4    A    
S2    O12   D    
Cu2   O3    S    
S5    O22   D    
C26   S4    S    
C35   H16   S    
S1    O9    D    
C31   N3    A    
C4    C7    S    
C33   H21   S    
Cu1   O1    S    
C25   S3    S    
C22   C36   S    
C4    C6    S    
C3    C8    S    
C2    O2    A    
S3    O15   D    
C5    C7    S    
C6    C8    S    
C4    S6    S    
Cu1   N5    S    
C12   H12   S    
S1    O11   S    
C34   H18   S    
C3    C9    S    
S3    O16   D    
O20   H30   S    
C28   H4    S    
S4    O18   D    
Cu1   Cu2   S    
C15   S1    S    
O17   H29   S    
C32   N4    A    
C17   O7    A    
C36   H28   S    
C18   O8    A    
C38   H23   S    
C12   C14   S    
Cu2   O2    S    
S5    O23   S    
C31   N2    A    
C21   C23   A    
Cu2   O7    S    
C35   H17   S    
C6    H6    S    
C11   H11   S    
C16   S2    S    
C4    C10   S    
C19   C29   A    
C13   H9    S    
C12   N5    S    
C14   H10   S    
C7    C9    S    
Cu1   O5    S    
Cu2   N6    S    
C16   N6    S    
C20   C22   A    
C34   C35   S    
C3    C5    S    
C9    H7    S    
Cu1   O8    S    
C26   C28   A    
C23   C32   S    
C5    H5    S    
C1    O3    A    
C24   C31   S    
C5    C10   S    
C19   H1    S    
O26   H32   S    
O11   H13   S    
S3    O17   S    
C11   C13   S    
S6    O25   D    
C27   H3    S    
C37   H26   S    
C28   C30   A    
C32   N1    A    
C22   C24   A    
C23   C25   A    
O14   H14   S    
C20   H2    S    
C33   C34   S    
C38   H24   S    
C8    C10   S    
C37   C38   S    
C13   C16   S    
Cu2   O6    S    
C14   C15   S    
C2    O4    A    
S6    O26   S    
C17   O5    A    
C25   C27   A    
