data_mof_unit_53585.cif
_audit_creation_date              2013-03-05T16:56:14-0500
_audit_creation_method            fapswitch 2.2
_symmetry_space_group_name_H-M    P1
_symmetry_Int_Tables_number       1
_space_group_crystal_system       triclinic
_cell_length_a                    17.317889
_cell_length_b                    16.750014
_cell_length_c                    10.638049
_cell_angle_alpha                 89.853301
_cell_angle_beta                  92.058306
_cell_angle_gamma                 90.65693
_cell_volume                      3083.63000077

loop_
_atom_site_label
_atom_site_type_symbol
_atom_site_description
_atom_site_fract_x
_atom_site_fract_y
_atom_site_fract_z
_atom_type_partial_charge
O1    O     O_R   0.389130 0.566570 0.500000 -0.600255
O2    O     O_R   0.389130 0.433430 0.500000 -0.589927
C1    C     C_R   0.352373 0.499619 0.507937 0.924710
O3    O     O_R   0.500000 0.566540 0.314800 -0.630949
O4    O     O_R   0.500000 0.433460 0.314800 -0.634395
C2    C     C_R   0.494826 0.500194 0.257408 0.825186
Zn1   Zn    Zn3+2 0.500020 0.588860 0.500010 0.933443
Zn2   Zn    Zn3+2 0.500020 0.411140 0.500010 0.933613
O5    O     O_R   0.610900 0.566520 0.500010 -0.633491
O6    O     O_R   0.610900 0.433480 0.500010 -0.622885
O7    O     O_R   0.500030 0.566540 0.685210 -0.628798
O8    O     O_R   0.500030 0.433460 0.685210 -0.640207
C3    C     C_R   0.647074 0.500530 0.498653 0.879222
C4    C     C_R   0.498531 0.499950 0.742660 0.860343
C5    C     C_3   0.471157 0.586506 0.067633 -0.050100
C6    C     C_3   0.434404 0.434425 0.065675 -0.058668
H1    H     H_    0.516674 0.628340 0.106145 0.167444
H2    H     H_    0.462589 0.376106 0.086842 0.167473
C7    C     C_3   0.478742 0.585708 0.924765 -0.413488
C8    C     C_3   0.429735 0.443376 0.921198 -0.407296
H3    H     H_    0.425865 0.608738 0.874842 0.201824
H4    H     H_    0.372964 0.467844 0.888403 0.178387
H5    H     H_    0.526977 0.626285 0.900230 0.179628
H6    H     H_    0.434704 0.383172 0.878312 0.178013
H7    H     H_    0.615756 0.527531 0.110471 0.174696
H8    H     H_    0.594011 0.423148 0.122075 0.177677
H9    H     H_    0.622101 0.509562 0.898464 0.158501
H10   H     H_    0.584480 0.409520 0.909296 0.180622
C9    C     C_3   0.573694 0.480218 0.078996 -0.475444
C10   C     C_3   0.490856 0.500856 0.120923 0.104644
C11   C     C_3   0.495378 0.500133 0.878486 0.127449
C12   C     C_3   0.574041 0.472718 0.935447 -0.443965
C13   C     C_R   0.851874 0.572470 0.503167 0.117877
C14   C     C_R   0.835080 0.461742 0.351755 0.124421
C15   C     C_R   0.774424 0.562974 0.533404 -0.232477
C16   C     C_R   0.758710 0.452918 0.386778 -0.239268
H11   H     H_    0.748379 0.601429 0.601011 0.137294
H12   H     H_    0.721619 0.408544 0.340420 0.144971
C17   C     C_R   0.728866 0.503129 0.476881 -0.090293
C18   C     C_R   0.881924 0.520810 0.412078 0.071015
C19   C     C_1   0.963170 0.521151 0.397187 -0.101516
C20   C     C_1   0.031892 0.519118 0.403164 -0.047762
C21   C     C_R   0.153665 0.582791 0.472974 0.056408
C22   C     C_R   0.145256 0.437053 0.444011 0.056709
C23   C     C_R   0.229699 0.574398 0.520991 0.102748
C24   C     C_R   0.222634 0.430281 0.487474 0.082706
C25   C     C_R   0.267226 0.500421 0.509821 -0.199790
C26   C     C_R   0.112685 0.513797 0.431513 0.023955
C27   C     C_R   0.436173 0.825290 0.416137 -0.267827
C28   C     C_R   0.441206 0.173421 0.407658 -0.258138
H13   H     H_    0.389434 0.850312 0.358893 0.154537
H14   H     H_    0.398546 0.147388 0.342574 0.150060
C29   C     C_R   0.442653 0.741556 0.427267 0.016487
C30   C     C_R   0.447389 0.257280 0.418352 0.024775
H15   H     H_    0.400904 0.703698 0.377808 0.151612
H16   H     H_    0.409590 0.294284 0.360503 0.152491
N1    N     N_R   0.500030 0.707230 0.500030 -0.099678
N2    N     N_R   0.500030 0.292770 0.500030 -0.098933
C31   C     C_R   0.552285 0.755858 0.565564 0.251680
C32   C     C_R   0.549801 0.245478 0.570778 0.243563
C33   C     C_R   0.549173 0.839899 0.550962 -0.264615
C34   C     C_R   0.544654 0.161223 0.562180 -0.275348
H17   H     H_    0.592173 0.877934 0.597745 0.135126
H18   H     H_    0.583635 0.124589 0.618983 0.138264
C35   C     C_R   0.490236 0.875585 0.478343 0.125802
C36   C     C_R   0.490125 0.124229 0.480682 0.128238
C37   C     C_1   0.485950 0.963291 0.472239 -0.037086
C38   C     C_1   0.486029 0.036478 0.473201 -0.036513
I1    I     I_    0.281229 0.668095 0.636285 -0.453000
I2    I     I_    0.265138 0.315050 0.544933 -0.452946
C39   C     C_3   0.614924 0.722065 0.652188 -0.416297
C40   C     C_3   0.614716 0.757996 0.785117 -0.377901
C41   C     C_3   0.673948 0.717415 0.873071 -0.922729
H19   H     H_    0.663275 0.652012 0.876591 0.251739
H20   H     H_    0.733228 0.728780 0.840277 0.266521
H21   H     H_    0.669933 0.741857 0.969505 0.256820
H22   H     H_    0.629483 0.822604 0.782649 0.223129
H23   H     H_    0.556261 0.751481 0.823829 0.226073
H24   H     H_    0.607557 0.657273 0.662427 0.256075
H25   H     H_    0.671847 0.733870 0.610503 0.175610
C42   C     C_3   0.611876 0.280656 0.657660 -0.416063
C43   C     C_3   0.692068 0.271740 0.602688 -0.345988
C44   C     C_3   0.754160 0.314498 0.683700 -0.882372
H26   H     H_    0.741582 0.379238 0.689673 0.260094
H27   H     H_    0.756841 0.288611 0.779973 0.258521
H28   H     H_    0.811307 0.307462 0.641142 0.255035
H29   H     H_    0.706805 0.207480 0.596811 0.211652
H30   H     H_    0.692028 0.297197 0.506116 0.236604
H31   H     H_    0.601559 0.344008 0.676041 0.252712
H32   H     H_    0.610488 0.249975 0.750402 0.170402
C45   C     C_3   0.391862 0.621109 0.102876 -0.416724
C46   C     C_3   0.391459 0.712594 0.089979 -0.358572
C47   C     C_3   0.312811 0.746443 0.119548 -0.877337
H33   H     H_    0.267512 0.722621 0.052743 0.274274
H34   H     H_    0.297800 0.730410 0.216812 0.246614
H35   H     H_    0.314653 0.812517 0.111197 0.253354
H36   H     H_    0.436089 0.739395 0.155067 0.217583
H37   H     H_    0.405357 0.730325 0.992552 0.236428
H38   H     H_    0.345194 0.597038 0.039215 0.214675
H39   H     H_    0.377630 0.604659 0.200528 0.207311
C48   C     C_3   0.353120 0.428319 0.122647 -0.450970
C49   C     C_3   0.313043 0.348427 0.089281 -0.340310
C50   C     C_3   0.233888 0.342259 0.146986 -0.869822
H40   H     H_    0.240423 0.345609 0.250791 0.275793
H41   H     H_    0.196115 0.391347 0.112235 0.260608
H42   H     H_    0.206092 0.284249 0.121141 0.252560
H43   H     H_    0.305496 0.342611 0.985515 0.239012
H44   H     H_    0.349009 0.298117 0.125040 0.212909
H45   H     H_    0.357845 0.433104 0.226660 0.213003
H46   H     H_    0.315205 0.476747 0.087892 0.209753
C51   C     C_3   0.903707 0.636483 0.565520 -0.415164
C52   C     C_3   0.866552 0.688028 0.665677 -0.371577
C53   C     C_3   0.924624 0.748362 0.722119 -0.871802
H47   H     H_    0.974233 0.717052 0.768420 0.264614
H48   H     H_    0.946246 0.788614 0.647684 0.262935
H49   H     H_    0.896194 0.785019 0.793560 0.248880
H50   H     H_    0.817198 0.721380 0.622494 0.222219
H51   H     H_    0.845596 0.649333 0.742692 0.223979
H52   H     H_    0.954736 0.606789 0.610644 0.209893
H53   H     H_    0.924171 0.676810 0.490282 0.198343
C54   C     C_3   0.863611 0.408096 0.249063 -0.429208
C55   C     C_3   0.830005 0.434060 0.120082 -0.338871
C56   C     C_3   0.858194 0.380956 0.015222 -0.890533
H54   H     H_    0.922210 0.383942 0.012087 0.264810
H55   H     H_    0.839571 0.318096 0.030438 0.259746
H56   H     H_    0.833304 0.401694 0.923343 0.251840
H57   H     H_    0.765813 0.430967 0.119263 0.217341
H58   H     H_    0.847738 0.496828 0.101025 0.226760
H59   H     H_    0.927550 0.408835 0.246148 0.209226
H60   H     H_    0.845932 0.345396 0.268826 0.194162
C57   C     C_3   0.117088 0.665256 0.467080 -0.384822
C58   C     C_3   0.154024 0.717499 0.366434 -0.335100
C59   C     C_3   0.116784 0.799542 0.358392 -0.869815
H61   H     H_    0.054243 0.793555 0.332710 0.255773
H62   H     H_    0.123945 0.830915 0.450020 0.271495
H63   H     H_    0.144990 0.835889 0.285222 0.252834
H64   H     H_    0.216631 0.725781 0.388634 0.242056
H65   H     H_    0.147118 0.687753 0.273305 0.222029
H66   H     H_    0.054414 0.662217 0.444073 0.197450
H67   H     H_    0.122137 0.694486 0.560566 0.227161
C60   C     C_3   0.096560 0.362841 0.412604 -0.385124
C61   C     C_3   0.048591 0.336870 0.524601 -0.300724
C62   C     C_3   0.996732 0.265303 0.490842 -0.890253
H68   H     H_    0.955823 0.280691 0.411937 0.254644
H69   H     H_    0.032186 0.213766 0.463378 0.272127
H70   H     H_    0.962897 0.247898 0.573488 0.249467
H71   H     H_    0.087687 0.320591 0.605476 0.246456
H72   H     H_    0.011659 0.386579 0.554712 0.224686
H73   H     H_    0.057926 0.374569 0.329153 0.191718
H74   H     H_    0.132899 0.312671 0.383222 0.222016

loop_
_geom_bond_atom_site_label_1
_geom_bond_atom_site_label_2
_geom_bond_distance
_ccdc_geom_bond_type
C62   H70   1.110447 S    
C36   C38   1.472949 S    
C48   C49   1.536842 S    
C19   C20   1.190406 T    
C7    H5    1.108851 S    
C51   C52   1.536677 S    
C4    C11   1.447919 S    
C7    C11   1.550240 S    
C39   H24   1.096885 S    
C42   C43   1.535072 S    
C46   H37   1.111315 S    
C56   H54   1.110872 S    
C5    C7    1.530301 S    
C28   C30   1.412070 A    
C27   C35   1.401597 A    
C14   C18   1.412885 A    
C32   C34   1.416034 A    
C7    H3    1.114240 S    
C9    C12   1.532794 S    
C52   H50   1.111337 S    
O7    C4    1.270927 A    
C27   C29   1.412629 A    
C56   H55   1.110820 S    
C58   H65   1.112075 S    
C62   H68   1.110533 S    
C62   H69   1.110807 S    
C51   H52   1.112269 S    
C41   H19   1.109650 S    
C1    C25   1.475631 S    
C55   H57   1.112009 S    
C33   H17   1.082691 S    
O5    C3    1.277118 A    
C39   H25   1.110847 S    
C34   H18   1.084294 S    
C57   H67   1.109807 S    
C40   H22   1.109601 S    
Zn2   N2    1.982701 S    
C8    H6    1.113372 S    
C58   C59   1.525616 S    
C35   C37   1.472950 S    
C46   H36   1.110635 S    
C59   H63   1.110494 S    
C28   H14   1.082924 S    
C49   H44   1.111831 S    
C13   C51   1.527813 S    
C45   H39   1.109586 S    
C21   C26   1.412459 A    
C54   H60   1.112227 S    
C44   H27   1.110778 S    
Zn2   O8    2.006258 S    
C53   H49   1.110495 S    
C42   H31   1.097310 S    
C23   C25   1.413027 A    
C47   H34   1.107522 S    
C41   H20   1.110307 S    
O3    Zn1   2.006358 S    
C52   C53   1.526319 S    
C22   C24   1.407488 A    
C60   H74   1.107935 S    
Zn1   O7    2.004378 S    
N2    C32   1.379438 A    
C29   H15   1.079610 S    
H7    C9    1.114160 S    
C30   H16   1.081567 S    
C31   C33   1.417257 A    
C13   C18   1.417526 A    
C3    C17   1.443599 S    
C34   C36   1.399256 A    
C23   I1    2.159371 S    
C37   C38   1.225928 T    
C61   H72   1.110507 S    
H10   C12   1.113618 S    
C57   H66   1.104656 S    
O3    C2    1.270040 A    
C45   C46   1.538227 S    
C29   N1    1.368449 A    
C22   C60   1.525069 S    
C56   H56   1.110509 S    
C27   H13   1.082932 S    
C58   H64   1.108559 S    
C16   C17   1.393891 A    
C51   H53   1.111125 S    
O1    C1    1.287229 A    
C15   C17   1.392748 A    
C9    C10   1.560319 S    
C21   C23   1.403595 A    
C32   C42   1.507982 S    
C44   H26   1.110925 S    
C6    C8    1.543181 S    
C43   H29   1.111475 S    
C49   H43   1.111306 S    
C50   H41   1.110875 S    
C47   H33   1.110819 S    
C20   C26   1.424412 S    
C28   C36   1.401976 A    
C54   C55   1.534895 S    
C42   H32   1.112156 S    
Zn2   O6    1.952111 S    
C18   C19   1.421499 S    
C2    C10   1.451118 S    
C8    H4    1.113618 S    
C14   C54   1.516237 S    
C59   H61   1.110924 S    
C41   H21   1.110314 S    
C6    C10   1.573679 S    
C57   C58   1.533884 S    
C5    C10   1.577692 S    
C53   H47   1.111009 S    
C30   N2    1.368478 A    
Zn1   O5    1.960533 S    
C24   C25   1.414417 A    
C15   H11   1.080705 S    
H9    C12   1.113045 S    
O1    Zn1   1.952129 S    
C61   H71   1.110920 S    
C11   C12   1.545153 S    
O2    Zn2   1.960533 S    
C48   H46   1.104108 S    
C54   H59   1.108759 S    
C40   C41   1.527565 S    
O6    C3    1.280012 A    
O4    Zn2   2.004478 S    
C5    H1    1.116158 S    
C47   H35   1.110260 S    
C60   H73   1.110764 S    
C21   C57   1.526402 S    
O2    C1    1.289180 A    
O8    C4    1.272722 A    
C39   C40   1.538403 S    
C60   C61   1.535900 S    
C52   H51   1.111881 S    
O4    C2    1.274810 A    
C43   H30   1.111282 S    
C16   H12   1.084619 S    
C46   C47   1.524760 S    
C13   C15   1.397717 A    
C50   H42   1.110209 S    
C14   C16   1.392994 A    
C55   H58   1.112083 S    
C49   C50   1.524306 S    
C24   I2    2.152926 S    
N1    C31   1.381697 A    
C5    C45   1.555187 S    
C33   C35   1.396714 A    
C6    C48   1.554664 S    
C44   H28   1.110598 S    
H8    C9    1.114221 S    
C6    H2    1.115835 S    
C43   C44   1.526715 S    
C40   H23   1.110625 S    
C50   H40   1.107512 S    
C59   H62   1.110897 S    
C61   C62   1.525414 S    
C45   H38   1.108592 S    
C55   C56   1.525788 S    
C48   H45   1.109616 S    
Zn1   N1    1.982698 S    
C22   C26   1.413725 A    
C31   C39   1.511933 S    
C53   H48   1.111108 S    
C8    C11   1.553282 S    
