data_mof_unit_12987.cif
_audit_creation_date              2012-12-11T15:53:58-0500
_audit_creation_method            fapswitch 2.2
_symmetry_space_group_name_H-M    P1
_symmetry_Int_Tables_number       1
_space_group_crystal_system       triclinic
_cell_length_a                    10.613148
_cell_length_b                    10.669375
_cell_length_c                    16.852218
_cell_angle_alpha                 80.864741
_cell_angle_beta                  99.203316
_cell_angle_gamma                 118.443043
_cell_volume                      1648.81126369

loop_
_atom_site_label
_atom_site_type_symbol
_atom_type_description
_atom_site_fract_x
_atom_site_fract_y
_atom_site_fract_z
_atom_type_partial_charge
C1    C     C_R   0.385283 0.286612 0.631983 0.531473
C2    C     C_R   0.518420 0.710617 0.735951 -0.149537
C3    C     C_R   0.495936 0.726849 0.812401 -0.132032
C4    C     C_3   0.098101 0.479174 0.775615 -0.252250
C5    C     C_3   0.122976 0.460681 0.693005 -0.244389
C6    C     C_R   0.403066 0.615184 0.687097 -0.005316
C7    C     C_1   0.852547 0.670395 0.702124 -0.053349
C8    C     C_1   0.900007 0.704939 0.769047 -0.055457
C9    C     C_1   0.366331 0.237398 0.714838 -0.035267
C10   C     C_1   0.335057 0.190019 0.782303 -0.032974
C11   C     C_1   0.317475 0.685093 0.280953 0.015879
C12   C     C_R   0.415006 0.619500 0.601710 0.544240
C13   C     C_1   0.296325 0.708665 0.209959 -0.020329
C14   C     C_R   0.790750 0.643961 0.147612 0.017301
C15   C     C_R   0.771469 0.517801 0.196387 0.027828
C16   C     C_R   0.733534 0.494663 0.273230 0.032128
C17   C     C_R   0.697647 0.704896 0.249695 -0.144321
C18   C     C_R   0.737560 0.729041 0.170830 -0.145980
C19   C     C_3   0.872989 0.454315 0.220966 -0.234598
C20   C     C_3   0.833624 0.432096 0.305716 -0.239574
C21   C     C_R   0.710696 0.595154 0.303835 0.009651
C22   C     C_R   0.255183 0.040282 0.181264 -0.034985
C23   C     C_R   0.782273 0.621575 0.625796 0.538646
C24   C     C_R   0.145441 0.041560 0.216173 -0.036249
C25   C     C_R   0.174039 0.092161 0.290085 0.007358
C26   C     C_R   0.399208 0.083409 0.311853 0.190739
C27   C     C_R   0.375655 0.044383 0.232828 -0.135251
C28   C     C_3   0.041137 0.099635 0.186366 -0.198948
C29   C     C_3   0.075941 0.160009 0.267077 0.113832
C30   C     C_R   0.306939 0.128266 0.336393 0.048833
C31   C     C_R   0.949279 0.725408 0.851709 0.559054
C32   C     C_R   0.317126 0.705066 0.899200 0.553688
C33   C     C_R   0.287362 0.120089 0.858914 0.561924
C34   C     C_R   0.348774 0.220979 0.401143 0.602400
C35   C     C_R   0.880830 0.687984 0.081697 0.535176
C36   C     C_R   0.284221 0.739273 0.125435 0.537910
C37   C     C_R   0.243860 0.034304 0.094625 0.561313
C38   C     C_R   0.361552 0.657983 0.362346 0.586810
C39   C     C_R   0.699257 0.582072 0.389734 0.570080
C40   C     C_R   0.357348 0.648684 0.839557 0.017931
C41   C     C_R   0.255737 0.531782 0.798482 0.016588
C42   C     C_R   0.278512 0.515232 0.723271 0.006443
Cr1   Cr    Cr6+3 0.608440 0.389080 0.519680 1.065498
Cr2   Cr    Cr6+3 0.288640 0.400090 0.490760 1.048066
Cr3   Cr    Cr6+3 0.602940 0.710800 0.489510 1.061658
Cr4   Cr    Cr6+3 0.052530 0.947560 0.964210 1.006135
Cr5   Cr    Cr6+3 0.059970 0.626800 0.992920 1.027162
Cr6   Cr    Cr6+3 0.373320 0.938440 0.995370 1.015016
H1    H     H_    0.621123 0.781467 0.712514 0.145481
H2    H     H_    0.835592 0.352394 0.193900 0.172363
H3    H     H_    0.777252 0.317693 0.328133 0.212826
H4    H     H_    0.925552 0.500282 0.347241 0.162089
H5    H     H_    0.455403 0.026132 0.210797 0.160939
H6    H     H_    0.074030 0.182763 0.134320 0.210761
H7    H     H_    0.982857 0.113257 0.303795 0.141980
H8    H     H_    0.581778 0.811987 0.845340 0.150453
H9    H     H_    0.064663 0.563507 0.773957 0.148552
H10   H     H_    0.071901 0.346779 0.680176 0.156942
H11   H     H_    0.103034 0.534150 0.644018 0.164771
H12   H     H_    0.737962 0.819409 0.131122 0.134144
H13   H     H_    0.987684 0.532996 0.215177 0.174521
O1    O     O_R   0.754020 0.497590 0.609930 -0.509207
O2    O     O_R   0.295080 0.533620 0.397890 -0.454319
O3    O     O_R   0.485280 0.746620 0.388440 -0.479476
O4    O     O_R   0.720550 0.696220 0.420010 -0.500281
O5    O     O_3   0.500010 0.499990 0.499980 -0.333927
O6    O     O_R   0.163320 0.092900 0.874450 -0.508257
O7    O     O_R   0.934650 0.822080 0.882840 -0.487606
O8    O     O_R   0.915520 0.604140 0.893670 -0.503786
O9    O     O_R   0.191760 0.638110 0.923230 -0.505587
O10   O     O_R   0.406180 0.826930 0.920660 -0.513845
O11   O     O_R   0.358620 0.062870 0.901950 -0.485627
O12   O     O_R   0.481420 0.271390 0.600630 -0.474774
O13   O     O_R   0.163910 0.085460 0.050210 -0.504333
O14   O     O_R   0.935200 0.815170 0.045770 -0.520586
O15   O     O_R   0.916120 0.596690 0.069430 -0.517984
O16   O     O_R   0.192310 0.631200 0.086170 -0.454779
O17   O     O_R   0.406770 0.819480 0.096420 -0.517428
O18   O     O_R   0.359170 0.055960 0.064880 -0.507445
O19   O     O_3   0.161940 0.837600 0.984160 -0.315962
O20   O     O_R   0.263810 0.254550 0.589590 -0.510541
O21   O     O_R   0.300820 0.531200 0.560890 -0.514800
O22   O     O_R   0.491480 0.744020 0.564270 -0.473974
O23   O     O_R   0.726290 0.693800 0.583010 -0.512564
O24   O     O_R   0.747830 0.500190 0.434090 -0.504297
O25   O     O_R   0.475680 0.273800 0.437630 -0.458436
O26   O     O_R   0.257620 0.257160 0.413750 -0.475400
Cl1   Cl    Cl    0.545200 0.078445 0.375762 -0.619376
H14   H     H_    0.929003 0.014316 0.178296 0.093308
Cl2   Cl    Cl    0.166684 0.350583 0.252801 -0.630882
H15   H     H_    0.032218 0.376059 0.810343 0.153483
H16   H     H_    0.668514 0.778234 0.269881 0.152913

loop_
_geom_bond_atom_site_label_1
_geom_bond_atom_site_label_2
_ccdc_geom_bond_type
Cr1   O12   S    
C5    C42   S    
C16   C21   A    
C41   C42   A    
C14   C18   A    
Cr2   O5    S    
C19   C20   S    
C37   O13   A    
C7    C8    T    
Cr3   O22   S    
C15   C19   S    
C37   O18   A    
C35   O14   A    
C26   C27   A    
C5    H10   S    
Cr6   O18   S    
C28   C29   S    
Cr5   O15   S    
C20   H3    S    
Cr2   O21   S    
C36   O16   A    
C6    C12   S    
C4    C41   S    
C1    O20   A    
C15   C16   A    
C34   O25   A    
Cr6   O17   S    
C29   Cl2   S    
C33   O11   A    
C23   O1    A    
Cr5   O8    S    
C4    H9    S    
C28   H14   S    
Cr2   O26   S    
C9    C10   T    
C4    H15   S    
C39   O4    A    
C2    C6    A    
C17   H16   S    
Cr5   O19   S    
Cr6   O11   S    
Cr4   O14   S    
C32   O10   A    
C38   O3    A    
Cr2   O2    S    
C25   C29   S    
C31   O7    A    
C35   O15   A    
C23   O23   A    
C5    H11   S    
Cr1   O24   S    
C1    C9    S    
C24   C25   A    
C13   C36   S    
Cr2   O20   S    
C14   C35   S    
C30   C34   S    
C32   O9    A    
C29   H7    S    
C22   C37   S    
C17   C21   A    
C12   O22   A    
C11   C38   S    
Cr5   O9    S    
Cr4   O7    S    
C2    H1    S    
C3    H8    S    
C21   C39   S    
C16   C20   S    
C17   C18   A    
C12   O21   A    
C18   H12   S    
C40   C41   A    
C3    C40   A    
C26   C30   A    
C22   C27   A    
Cr3   O4    S    
C22   C24   A    
Cr3   O23   S    
Cr5   O16   S    
Cr6   O10   S    
Cr4   O13   S    
C33   O6    A    
C38   O2    A    
C25   C30   A    
C28   H6    S    
C8    C31   S    
C24   C28   S    
C4    C5    S    
C27   H5    S    
Cr3   O3    S    
C1    O12   A    
Cr6   O19   S    
C2    C3    A    
Cr4   O6    S    
C20   H4    S    
C36   O17   A    
Cr4   O19   S    
C11   C13   T    
C19   H2    S    
C19   H13   S    
Cr1   O5    S    
C7    C23   S    
C10   C33   S    
C34   O26   A    
C32   C40   S    
Cr1   O25   S    
C31   O8    A    
C26   Cl1   S    
C6    C42   A    
Cr3   O5    S    
C39   O24   A    
C14   C15   A    
Cr1   O1    S    
