data_mof_unit_57050.cif
_audit_creation_date              2012-12-10T18:35:23-0500
_audit_creation_method            fapswitch 2.2
_symmetry_space_group_name_H-M    P1
_symmetry_Int_Tables_number       1
_space_group_crystal_system       triclinic
_cell_length_a                    14.952436
_cell_length_b                    15.470003
_cell_length_c                    16.738012
_cell_angle_alpha                 92.344189
_cell_angle_beta                  99.932793
_cell_angle_gamma                 97.324049
_cell_volume                      3774.74423016

loop_
_atom_site_label
_atom_site_type_symbol
_atom_type_description
_atom_site_fract_x
_atom_site_fract_y
_atom_site_fract_z
_atom_type_partial_charge
C1    C     C_R   0.557234 0.662290 0.509447 0.873382
C2    C     C_R   0.442944 0.337586 0.486744 0.867807
C3    C     C_R   0.591227 0.753700 0.501190 -0.062542
C4    C     C_R   0.409475 0.244888 0.467741 -0.056743
C5    C     C_R   0.710974 0.868916 0.484496 -0.205474
C6    C     C_R   0.287337 0.124386 0.429419 -0.206827
C7    C     C_R   0.683952 0.782696 0.500962 -0.195634
C8    C     C_R   0.315704 0.213232 0.449128 -0.190289
C9    C     C_R   0.526498 0.810675 0.484105 -0.267182
C10   C     C_R   0.474047 0.188039 0.463976 -0.266309
C11   C     C_R   0.550948 0.895035 0.462163 0.093547
C12   C     C_R   0.447423 0.099396 0.442313 0.093897
C13   C     C_R   0.645111 0.925671 0.466134 0.173588
C14   C     C_R   0.352572 0.066978 0.427687 0.178641
C15   C     C_R   0.484066 0.951100 0.441666 0.070618
C16   C     C_R   0.513300 0.041424 0.441597 0.068434
C17   C     C_R   0.607377 0.070494 0.442734 -0.232975
C18   C     C_R   0.389086 0.920015 0.422279 -0.232475
C19   C     C_R   0.671958 0.012758 0.453119 -0.239186
C20   C     C_R   0.324440 0.977519 0.413809 -0.244384
C21   C     C_R   0.176783 0.658370 0.409430 -0.327127
C22   C     C_R   0.823061 0.343102 0.595110 -0.322968
C23   C     C_R   0.510342 0.495491 0.349000 0.857551
C24   C     C_R   0.487214 0.497891 0.650060 0.859286
C25   C     C_R   0.258979 0.624838 0.414338 0.010153
C26   C     C_R   0.739261 0.374044 0.584343 0.009674
C27   C     C_R   0.205139 0.506245 0.486411 -0.056442
C28   C     C_R   0.797627 0.496679 0.519543 -0.058293
C29   C     C_R   0.118401 0.534504 0.480439 -0.004233
C30   C     C_R   0.885923 0.471107 0.531920 -0.003488
C31   C     C_R   0.106788 0.615818 0.445817 0.123105
C32   C     C_R   0.897215 0.390265 0.567441 0.121687
C33   C     C_R   0.044760 0.486051 0.509593 0.059587
C34   C     C_R   0.961146 0.521131 0.506565 0.061375
C35   C     C_R   0.955472 0.606018 0.480050 -0.285964
C36   C     C_R   0.051718 0.402891 0.540141 -0.284654
C37   C     C_R   0.026390 0.653223 0.449486 -0.000261
C38   C     C_R   0.980729 0.356579 0.571112 -0.003688
C39   C     C_R   0.510252 0.478326 0.262749 -0.037667
C40   C     C_R   0.471129 0.471199 0.729328 -0.034401
C41   C     C_R   0.434186 0.491509 0.205206 -0.208901
C42   C     C_R   0.524128 0.411748 0.768918 -0.206684
C43   C     C_R   0.428899 0.464846 0.124246 -0.147186
C44   C     C_R   0.503705 0.378098 0.840045 -0.159751
C45   C     C_R   0.499396 0.423776 0.100004 0.206382
C46   C     C_R   0.431517 0.405323 0.873617 0.204993
C47   C     C_R   0.576613 0.413106 0.157054 -0.182192
C48   C     C_R   0.375678 0.461247 0.832293 -0.168506
C49   C     C_R   0.582107 0.440065 0.238024 -0.194601
C50   C     C_R   0.395351 0.494145 0.760266 -0.198499
C51   C     C_2   0.499932 0.401499 0.014423 -0.229377
C52   C     C_2   0.423738 0.389660 0.957672 -0.243956
H1    H     H_    0.378299 0.521579 0.222749 0.156867
H2    H     H_    0.580539 0.390052 0.744354 0.153554
H3    H     H_    0.632527 0.137309 0.433795 0.149728
H4    H     H_    0.363134 0.851329 0.411835 0.142170
H5    H     H_    0.780435 0.552032 0.486068 0.123133
H6    H     H_    0.224039 0.451194 0.519366 0.127843
H7    H     H_    0.681542 0.337128 0.604159 0.133435
H8    H     H_    0.314585 0.659334 0.389650 0.129856
H9    H     H_    0.169364 0.717862 0.378597 0.157265
H10   H     H_    0.828191 0.281627 0.622953 0.160491
H11   H     H_    0.897399 0.639183 0.485530 0.140422
H12   H     H_    0.111801 0.371136 0.540563 0.143732
H13   H     H_    0.352078 0.538038 0.729299 0.154817
H14   H     H_    0.641627 0.429033 0.281344 0.160388
H15   H     H_    0.356446 0.386259 0.974338 0.146571
H16   H     H_    0.566907 0.405718 0.996775 0.150559
H17   H     H_    0.632619 0.383682 0.138895 0.127329
H18   H     H_    0.319888 0.482908 0.857874 0.125348
H19   H     H_    0.546178 0.333159 0.870278 0.129430
H20   H     H_    0.370621 0.478538 0.081072 0.123728
H21   H     H_    0.743463 0.037111 0.454213 0.147565
H22   H     H_    0.252274 0.951640 0.400028 0.150903
H23   H     H_    0.545603 0.213457 0.481479 0.159066
H24   H     H_    0.456637 0.788701 0.489850 0.159356
H25   H     H_    0.264622 0.256716 0.450733 0.153657
H26   H     H_    0.735093 0.738938 0.512889 0.153399
H27   H     H_    0.783032 0.891177 0.486066 0.145153
H28   H     H_    0.214671 0.100309 0.417227 0.130163
N1    N     N_R   0.271750 0.551950 0.454510 -0.098844
N2    N     N_R   0.728250 0.448050 0.545490 -0.098195
O1    O     O_R   0.615140 0.606020 0.522930 -0.616098
O2    O     O_R   0.384860 0.393980 0.477070 -0.618888
O3    O     O_R   0.468580 0.639400 0.493740 -0.622076
O4    O     O_R   0.531420 0.360600 0.506260 -0.629150
O5    O     O_R   0.581950 0.481350 0.400520 -0.617933
O6    O     O_R   0.418050 0.518650 0.599480 -0.613116
O7    O     O_R   0.435380 0.514730 0.371330 -0.616652
O8    O     O_R   0.564620 0.485270 0.628670 -0.614610
Zn1   Zn    Zn3+2 0.597860 0.477710 0.519490 0.936441
Zn2   Zn    Zn3+2 0.402140 0.522290 0.480510 0.939374
C53   C     C_R   0.016168 0.744186 0.427873 0.121423
C54   C     C_R   0.940238 0.761141 0.371445 -0.162042
C55   C     C_R   0.928244 0.847061 0.354224 -0.133933
C56   C     C_R   0.991598 0.916647 0.393347 -0.125798
C57   C     C_R   0.066892 0.900471 0.449996 -0.164091
C58   C     C_R   0.079002 0.814709 0.467606 -0.159556
H29   H     H_    0.890343 0.707861 0.341006 0.129010
H30   H     H_    0.869628 0.859710 0.310744 0.131327
H31   H     H_    0.982129 0.983109 0.380056 0.117504
H32   H     H_    0.115597 0.954425 0.480675 0.125175
H33   H     H_    0.136869 0.803254 0.512637 0.135336
C59   C     C_R   0.994885 0.270411 0.602793 0.124367
C60   C     C_R   0.999701 0.199636 0.549156 -0.166602
C61   C     C_R   0.013407 0.118321 0.578934 -0.146718
C62   C     C_R   0.022980 0.107380 0.662321 -0.098576
C63   C     C_R   0.018942 0.177792 0.716085 -0.138066
C64   C     C_R   0.005096 0.259211 0.686536 -0.166848
H34   H     H_    0.992371 0.207411 0.484428 0.125519
H35   H     H_    0.016554 0.063818 0.537387 0.126871
H36   H     H_    0.033618 0.044391 0.685268 0.125208
H37   H     H_    0.026564 0.169279 0.780654 0.129006
H38   H     H_    0.002186 0.313400 0.728653 0.130459

loop_
_geom_bond_atom_site_label_1
_geom_bond_atom_site_label_2
_ccdc_geom_bond_type
C15   C18   A    
C60   H34   S    
C53   C54   A    
O5    Zn1   S    
C27   C29   A    
C62   H36   S    
C2    O2    A    
C55   C56   A    
C4    C8    A    
C57   C58   A    
C39   C41   A    
C28   H5    S    
C21   C31   A    
C43   H20   S    
C22   C32   A    
C35   C37   A    
C3    C7    A    
O4    Zn1   S    
C59   C64   A    
C23   C39   S    
C22   H10   S    
C61   C62   A    
C45   C51   S    
C15   C16   A    
C46   C52   S    
C33   C36   A    
C63   C64   A    
C44   H19   S    
C34   C35   A    
C47   H17   S    
C38   C59   S    
C24   C40   S    
N1    Zn2   S    
C11   C15   A    
C12   C16   A    
C29   C33   A    
C16   C17   A    
C62   C63   A    
C23   O7    A    
C25   H8    S    
C32   C38   A    
C5    H27   S    
C26   H7    S    
C17   H3    S    
C21   H9    S    
C57   H32   S    
C18   H4    S    
C40   C42   A    
C26   N2    A    
C23   O5    A    
C56   H31   S    
C25   N1    A    
C41   C43   A    
C42   C44   A    
C59   C60   A    
O3    Zn2   S    
C44   C46   A    
C61   H35   S    
C45   C47   A    
C1    O3    A    
C46   C48   A    
C49   H14   S    
C30   C34   A    
C28   N2    A    
C51   C52   D    
C14   C20   A    
C27   N1    A    
C47   C49   A    
C5    C7    A    
C13   C19   A    
C55   H30   S    
C6    C8    A    
N2    Zn1   S    
C31   C37   A    
C1    C3    S    
C63   H37   S    
C2    C4    S    
C3    C9    A    
C6    C14   A    
C24   O6    A    
C10   H23   S    
C6    H28   S    
C19   H21   S    
C56   C57   A    
C33   C34   A    
C37   C53   S    
O6    Zn2   S    
O7    Zn2   S    
C43   C45   A    
C41   H1    S    
C52   H15   S    
C10   C12   A    
C64   H38   S    
C7    H26   S    
C9    H24   S    
C12   C14   A    
C9    C11   A    
C8    H25   S    
C4    C10   A    
C36   C38   A    
C21   C25   A    
C39   C49   A    
C5    C13   A    
C48   H18   S    
C27   H6    S    
C24   O8    A    
C20   H22   S    
C1    O1    A    
O1    Zn1   S    
C60   C61   A    
C28   C30   A    
C29   C31   A    
C42   H2    S    
C30   C32   A    
C11   C13   A    
O8    Zn1   S    
C54   H29   S    
C40   C50   A    
C48   C50   A    
C17   C19   A    
C2    O4    A    
C18   C20   A    
C51   H16   S    
C54   C55   A    
C50   H13   S    
C22   C26   A    
C35   H11   S    
O2    Zn2   S    
C36   H12   S    
C53   C58   A    
C58   H33   S    
