data_mof_unit_19340.cif
_audit_creation_date              2012-12-10T17:02:16-0500
_audit_creation_method            fapswitch 2.2
_symmetry_space_group_name_H-M    P1
_symmetry_Int_Tables_number       1
_space_group_crystal_system       triclinic
_cell_length_a                    10.621269
_cell_length_b                    10.733288
_cell_length_c                    10.041461
_cell_angle_alpha                 89.910418
_cell_angle_beta                  91.843876
_cell_angle_gamma                 89.804891
_cell_volume                      1144.13702567

loop_
_atom_site_label
_atom_site_type_symbol
_atom_type_description
_atom_site_fract_x
_atom_site_fract_y
_atom_site_fract_z
_atom_type_partial_charge
C1    C     C_R   0.498203 0.262707 0.499787 0.928415
C2    C     C_R   0.058929 0.624836 0.464229 0.022461
C3    C     C_R   0.127222 0.512454 0.488484 -0.085082
C4    C     C_R   0.067875 0.400591 0.517692 -0.174922
C5    C     C_R   0.939291 0.397261 0.522751 -0.209309
C6    C     C_R   0.871768 0.507577 0.508660 -0.070196
C7    C     C_2   0.512868 0.933385 0.387887 -0.132614
C8    C     C_2   0.518823 0.868496 0.501253 -0.349374
C9    C     C_2   0.519952 0.067364 0.390057 -0.155632
C10   C     C_2   0.489837 0.130931 0.498812 -0.321949
C11   C     C_2   0.559898 0.581712 0.926581 -0.163048
C12   C     C_R   0.260489 0.508992 0.497115 0.872984
C13   C     C_2   0.568067 0.575817 0.076741 0.012532
C14   C     C_R   0.503370 0.737260 0.500078 0.913401
C15   C     C_R   0.739518 0.498493 0.502416 0.857823
C16   C     C_R   0.111328 0.737608 0.415311 -0.088095
C17   C     C_R   0.043873 0.850459 0.426541 0.033697
C18   C     C_R   0.920632 0.849071 0.469993 -0.181112
C19   C     C_R   0.862263 0.736286 0.495632 -0.172735
C20   C     C_R   0.930058 0.623329 0.490253 0.091062
H1    H     H_    0.121448 0.315450 0.534538 0.151957
H2    H     H_    0.455522 0.087698 0.588179 0.150960
H3    H     H_    0.609162 0.656646 0.877795 0.163671
H4    H     H_    0.461472 0.425700 0.896842 0.165904
H5    H     H_    0.434915 0.446872 0.099961 0.157261
H6    H     H_    0.867179 0.934882 0.477229 0.150052
H7    H     H_    0.764621 0.738210 0.522394 0.136215
H8    H     H_    0.892327 0.309159 0.538639 0.141304
H9    H     H_    0.502466 0.888426 0.291346 0.188102
H10   H     H_    0.538954 0.910582 0.597629 0.151411
H11   H     H_    0.547681 0.113954 0.299459 0.174973
N1    N     N_2   0.501340 0.501330 0.852150 -0.190701
N2    N     N_2   0.501380 0.501360 0.147810 -0.209274
O1    O     O_R   0.499980 0.319060 0.613040 -0.619362
O2    O     O_R   0.500020 0.319100 0.386900 -0.612157
O3    O     O_R   0.316750 0.499980 0.613090 -0.603539
O4    O     O_R   0.316790 0.500020 0.386950 -0.606743
O5    O     O_R   0.499980 0.680900 0.613100 -0.621789
O6    O     O_R   0.500020 0.680940 0.386960 -0.602201
O7    O     O_R   0.683210 0.499980 0.613050 -0.614307
O8    O     O_R   0.683250 0.500020 0.386910 -0.604178
Zn1   Zn    Zn3+2 0.499970 0.499970 0.650990 0.951340
Zn2   Zn    Zn3+2 0.500030 0.500030 0.349010 0.967528
C21   C     C_1   0.653786 0.660843 0.143108 0.259284
N3    N     N_1   0.722899 0.729428 0.195667 -0.216192
C22   C     C_1   0.211630 0.735208 0.321542 0.192455
N4    N     N_1   0.288092 0.735068 0.242057 -0.174454
C23   C     C_1   0.097602 0.968332 0.388158 0.149459
N5    N     N_1   0.140730 0.062633 0.357618 -0.205290

loop_
_geom_bond_atom_site_label_1
_geom_bond_atom_site_label_2
_ccdc_geom_bond_type
O4    Zn2   S    
O6    Zn2   S    
H4    N1    S    
C13   N2    D    
C7    H9    S    
C2    C16   A    
C14   O5    A    
C5    H8    S    
C6    C20   A    
C9    C10   D    
O3    Zn1   S    
C19   C20   A    
O1    Zn1   S    
C17   C23   S    
C8    H10   S    
O7    Zn1   S    
C17   C18   A    
C6    C15   S    
C7    C8    D    
C10   H2    S    
C4    H1    S    
O8    Zn2   S    
C15   O8    A    
C11   H3    S    
C23   N5    T    
C1    O1    A    
C2    C3    A    
C5    C6    A    
C15   O7    A    
C12   O3    A    
C9    H11   S    
C2    C20   A    
C3    C4    A    
N2    Zn2   S    
O5    Zn1   S    
C11   C13   S    
O2    Zn2   S    
C21   N3    T    
C1    O2    A    
C18   C19   A    
C16   C22   S    
C12   O4    A    
C7    C9    S    
N1    Zn1   S    
C22   N4    T    
C4    C5    A    
C8    C14   S    
C3    C12   S    
C19   H7    S    
C14   O6    A    
C13   C21   S    
C1    C10   S    
H5    N2    S    
C16   C17   A    
C11   N1    D    
C18   H6    S    
