data_mof_unit_41569.cif
_audit_creation_date              2012-12-11T14:46:00-0500
_audit_creation_method            fapswitch 2.2
_symmetry_space_group_name_H-M    P1
_symmetry_Int_Tables_number       1
_space_group_crystal_system       triclinic
_cell_length_a                    10.883078
_cell_length_b                    10.994537
_cell_length_c                    18.947403
_cell_angle_alpha                 90.375268
_cell_angle_beta                  90.527114
_cell_angle_gamma                 119.753678
_cell_volume                      1968.01159652

loop_
_atom_site_label
_atom_site_type_symbol
_atom_type_description
_atom_site_fract_x
_atom_site_fract_y
_atom_site_fract_z
_atom_type_partial_charge
C1    C     C_R   0.869528 0.637754 0.605195 0.558434
C2    C     C_R   0.471798 0.725982 0.774244 -0.154595
C3    C     C_R   0.444531 0.711561 0.702067 -0.141619
C4    C     C_R   0.305990 0.658764 0.677967 0.056585
C5    C     C_R   0.836019 0.157744 0.824321 -0.006172
C6    C     C_R   0.090426 0.256618 0.845454 -0.082920
C7    C     C_R   0.218871 0.281544 0.819317 0.228618
C8    C     C_R   0.238313 0.291133 0.746799 -0.061996
C9    C     C_R   0.127402 0.266882 0.700088 0.219811
C10   C     C_R   0.996797 0.251822 0.726474 -0.030228
C11   C     C_R   0.975549 0.226971 0.799778 -0.083370
C12   C     C_R   0.270202 0.631856 0.603910 0.543161
C13   C     C_R   0.758094 0.228528 0.721764 0.000714
C14   C     C_R   0.723641 0.145208 0.780500 0.020442
C15   C     C_R   0.654250 0.259546 0.695359 -0.063139
C16   C     C_R   0.511674 0.172466 0.709020 -0.062522
C17   C     C_R   0.472492 0.064109 0.755838 -0.042374
C18   C     C_R   0.577487 0.053121 0.792618 -0.056789
C19   C     C_R   0.885320 0.259379 0.686717 -0.039661
C20   C     C_R   0.709041 0.583142 0.707321 -0.202161
C21   C     C_R   0.691955 0.585125 0.780004 -0.123856
C22   C     C_R   0.810752 0.654084 0.825026 -0.011893
C23   C     C_R   0.889318 0.291267 0.610695 0.534208
C24   C     C_R   0.945830 0.723774 0.796594 -0.084650
C25   C     C_R   0.962776 0.736268 0.724709 0.202427
C26   C     C_R   0.844592 0.657353 0.678983 0.011484
C27   C     C_R   0.412575 0.614609 0.296487 0.247850
C28   C     C_R   0.453397 0.644652 0.226996 -0.124280
C29   C     C_R   0.405778 0.715535 0.184357 -0.020267
C30   C     C_R   0.322727 0.769243 0.212761 0.249864
C31   C     C_R   0.294215 0.753008 0.284848 -0.114400
C32   C     C_R   0.335260 0.673805 0.327017 -0.006019
C33   C     C_R   0.727497 0.181014 0.281052 0.244602
C34   C     C_R   0.868452 0.636403 0.396212 0.604137
C35   C     C_R   0.718395 0.137285 0.212793 -0.140332
C36   C     C_R   0.837418 0.159695 0.174452 -0.042260
C37   C     C_R   0.971676 0.224262 0.206366 0.234469
C38   C     C_R   0.983403 0.266265 0.276854 -0.117006
C39   C     C_R   0.862904 0.241603 0.315184 -0.010830
C40   C     C_R   0.817639 0.757346 0.299125 0.224312
C41   C     C_R   0.804795 0.770397 0.226742 -0.071496
C42   C     C_R   0.809512 0.674644 0.178970 0.036153
C43   C     C_R   0.830962 0.567236 0.202660 -0.070598
C44   C     C_R   0.847852 0.556086 0.274593 -0.085797
C45   C     C_R   0.271869 0.633208 0.396709 0.561902
C46   C     C_R   0.837550 0.647827 0.323054 0.084417
C47   C     C_R   0.802183 0.096990 0.894192 0.526828
C48   C     C_R   0.395641 0.700668 0.896445 0.540309
C49   C     C_R   0.795956 0.691052 0.897011 0.538076
C50   C     C_R   0.807069 0.105911 0.102724 0.566997
C51   C     C_R   0.446117 0.724470 0.110954 0.561108
C52   C     C_R   0.798136 0.696267 0.104778 0.536913
C53   C     C_R   0.882715 0.286540 0.388553 0.551489
C54   C     C_R   0.194618 0.616625 0.725790 -0.065831
C55   C     C_R   0.222059 0.632458 0.798037 -0.128778
C56   C     C_R   0.361136 0.689103 0.822072 0.016826
Cr1   Cr    Cr6+3 0.791660 0.390250 0.499930 1.127619
Cr2   Cr    Cr6+3 0.098520 0.708290 0.500540 1.079712
Cr3   Cr    Cr6+3 0.109770 0.401430 0.499480 1.150088
Cr4   Cr    Cr6+3 0.874790 0.925890 0.000070 1.104042
Cr5   Cr    Cr6+3 0.574120 0.948670 0.999300 1.105841
Cr6   Cr    Cr6+3 0.551420 0.625320 0.000920 1.106019
H1    H     H_    0.086107 0.568600 0.706893 0.116806
H2    H     H_    0.432334 0.185447 0.680932 0.127780
H3    H     H_    0.679835 0.342631 0.659246 0.155642
H4    H     H_    0.361827 0.992017 0.765609 0.183687
H5    H     H_    0.616850 0.526219 0.673284 0.135498
H6    H     H_    0.586187 0.540824 0.800311 0.196562
H7    H     H_    0.038702 0.781973 0.830179 0.178766
H8    H     H_    0.515286 0.603230 0.203407 0.165478
H9    H     H_    0.135763 0.598556 0.834761 0.113788
H10   H     H_    0.228775 0.792008 0.306916 0.180537
H11   H     H_    0.613372 0.080332 0.189590 0.222644
H12   H     H_    0.086471 0.317963 0.302216 0.202899
H13   H     H_    0.790527 0.855186 0.207273 0.131321
H14   H     H_    0.838571 0.495510 0.165852 0.142567
H15   H     H_    0.872022 0.477800 0.292675 0.075581
H16   H     H_    0.579761 0.767911 0.793174 0.106821
H17   H     H_    0.530245 0.740269 0.665453 0.133381
H18   H     H_    0.335025 0.302175 0.725936 0.146429
H19   H     H_    0.079479 0.252415 0.902094 0.178973
H20   H     H_    0.542145 0.969562 0.828768 0.163056
O1    O     O_R   0.766500 0.250040 0.579790 -0.503330
O2    O     O_R   0.218690 0.701900 0.425960 -0.507312
O3    O     O_R   0.249490 0.516440 0.419420 -0.452172
O4    O     O_R   0.982880 0.281910 0.424890 -0.440205
O5    O     O_3   0.999980 0.499990 0.499980 -0.355744
O6    O     O_R   0.895110 0.806860 0.920430 -0.510044
O7    O     O_R   0.872260 0.046970 0.925000 -0.505227
O8    O     O_R   0.691430 0.085060 0.918550 -0.506929
O9    O     O_R   0.451490 0.822460 0.925250 -0.511369
O10   O     O_R   0.413330 0.603360 0.920440 -0.446935
O11   O     O_R   0.676110 0.626250 0.926750 -0.473578
O12   O     O_R   0.798570 0.516780 0.574780 -0.538057
O13   O     O_R   0.895350 0.809870 0.080950 -0.458943
O14   O     O_R   0.872490 0.049760 0.073800 -0.458158
O15   O     O_R   0.691680 0.088070 0.079070 -0.521115
O16   O     O_R   0.451720 0.825250 0.074050 -0.439144
O17   O     O_R   0.413580 0.606370 0.080960 -0.432874
O18   O     O_R   0.676340 0.629040 0.075550 -0.527272
O19   O     O_3   0.666780 0.833290 0.000090 -0.321274
O20   O     O_R   0.984000 0.732950 0.581090 -0.476583
O21   O     O_R   0.218600 0.700890 0.574760 -0.475139
O22   O     O_R   0.249390 0.515350 0.579940 -0.476045
O23   O     O_R   0.982790 0.280900 0.573700 -0.441704
O24   O     O_R   0.766600 0.251130 0.419260 -0.398796
O25   O     O_R   0.798660 0.517790 0.425980 -0.452578
O26   O     O_R   0.984100 0.734040 0.420570 -0.521197
O27   O     O_3   0.096958 0.825559 0.701101 -0.698297
H21   H     H_    0.090355 0.899195 0.674138 0.347277
S1    S     S_3+6 0.452446 0.493327 0.338151 0.087838
O28   O     O_2   0.531510 0.554264 0.406340 -0.198724
O29   O     O_2   0.320126 0.357678 0.353189 -0.236643
O30   O     O_3   0.551118 0.456373 0.284194 -0.525789
H22   H     H_    0.483498 0.377869 0.253551 0.402606
S2    S     S_3+6 0.233808 0.834637 0.159420 0.060783
O31   O     O_2   0.132859 0.858738 0.202827 -0.279317
O32   O     O_2   0.338815 0.970786 0.126617 -0.211966
O33   O     O_3   0.142838 0.716383 0.095205 -0.509004
H23   H     H_    0.125963 0.769587 0.058061 0.374524
S3    S     S_3+6 0.561373 0.144036 0.318938 0.054468
O34   O     O_2   0.514256 0.023741 0.368851 -0.228856
O35   O     O_2   0.574066 0.268462 0.358589 -0.197255
O36   O     O_3   0.435810 0.100885 0.256394 -0.499469
H24   H     H_    0.351426 0.088303 0.282038 0.398159
S4    S     S_3+6 0.123474 0.252742 0.159803 0.060053
O37   O     O_2   0.255427 0.349316 0.200371 -0.282934
O38   O     O_2   0.118846 0.114902 0.149034 -0.206973
O39   O     O_3   0.125975 0.324167 0.081139 -0.490294
H25   H     H_    0.147643 0.270344 0.046222 0.378047
S5    S     S_3+6 0.811713 0.881176 0.356911 0.053422
O40   O     O_2   0.703471 0.916077 0.329321 -0.267800
O41   O     O_2   0.773078 0.827187 0.430712 -0.224681
O42   O     O_3   0.971546 0.026661 0.358618 -0.480712
H26   H     H_    0.039309 0.994168 0.370356 0.359690
S6    S     S_3+6 0.333181 0.255339 0.876127 -0.012254
O43   O     O_2   0.266321 0.100922 0.889541 -0.291695
O44   O     O_2   0.475259 0.305163 0.843786 -0.323933
O45   O     O_3   0.352962 0.338508 0.953653 -0.499825
H27   H     H_    0.414024 0.314863 0.982820 0.369869
O46   O     O_3   0.140089 0.222539 0.634170 -0.654268
H28   H     H_    0.053110 0.130736 0.625820 0.337845

loop_
_geom_bond_atom_site_label_1
_geom_bond_atom_site_label_2
_ccdc_geom_bond_type
C55   C56   A    
S4    O37   D    
C41   C42   A    
C14   C18   A    
C20   H5    S    
C19   C23   S    
C35   C36   A    
S5    O42   S    
C3    H17   S    
Cr2   O5    S    
O30   H22   S    
Cr4   O6    S    
C7    C8    A    
C30   S2    S    
Cr4   O7    S    
C40   C46   A    
C5    C47   S    
C17   H4    S    
C33   C39   A    
C23   O1    A    
C34   O25   A    
C28   C29   A    
C37   C38   A    
C39   C53   S    
C5    C11   A    
C29   C51   S    
C38   C39   A    
C54   H1    S    
C15   C16   A    
C15   H3    S    
S2    O31   D    
C52   O13   A    
C32   C45   S    
S3    O36   S    
C33   C35   A    
C53   O24   A    
C35   H11   S    
Cr5   O16   S    
C8    C9    A    
C48   O9    A    
Cr6   O10   S    
Cr1   O1    S    
C31   H10   S    
C53   O4    A    
C34   C46   S    
C13   C14   A    
C4    C12   S    
C9    C10   A    
C25   O27   S    
Cr6   O19   S    
C51   O16   A    
Cr1   O24   S    
C27   S1    S    
C6    H19   S    
C21   C22   A    
C33   S3    S    
C47   O7    A    
C49   O6    A    
S6    O45   S    
C44   C46   A    
C24   H7    S    
C51   O17   A    
Cr5   O15   S    
C13   C19   A    
C24   C25   A    
C12   O21   A    
S6    O44   D    
C6    C11   A    
C9    O46   S    
C16   C17   A    
S4    O39   S    
C25   C26   A    
C52   O18   A    
Cr1   O5    S    
Cr5   O19   S    
C43   C44   A    
Cr3   O3    S    
C29   C30   A    
C2    H16   S    
Cr2   O2    S    
C41   H13   S    
C31   C32   A    
C10   C19   A    
O45   H27   S    
C17   C18   A    
S3    O34   D    
S1    O29   D    
Cr3   O23   S    
C5    C14   A    
C6    C7    A    
C22   C49   S    
Cr6   O18   S    
Cr4   O14   S    
C40   C41   A    
Cr1   O25   S    
C40   S5    S    
Cr1   O12   S    
C13   C15   A    
C21   H6    S    
C1    C26   S    
C47   O8    A    
C22   C24   A    
C45   O2    A    
C42   C43   A    
Cr3   O22   S    
Cr4   O19   S    
C36   C50   S    
Cr5   O8    S    
C37   S4    S    
C38   H12   S    
C43   H14   S    
C48   C56   S    
C54   C55   A    
C36   C37   A    
C50   O15   A    
S4    O38   D    
S1    O28   D    
C4    C54   A    
C27   C32   A    
C28   H8    S    
S6    O43   D    
S5    O41   D    
C1    O12   A    
O33   H23   S    
C12   O22   A    
O42   H26   S    
C44   H15   S    
S2    O33   S    
C45   O3    A    
C34   O26   A    
C2    C3    A    
O39   H25   S    
Cr3   O4    S    
C7    S6    S    
C2    C56   A    
O46   H28   S    
C50   O14   A    
C30   C31   A    
C20   C26   A    
Cr2   O20   S    
C18   H20   S    
S2    O32   D    
S1    O30   S    
Cr2   O26   S    
S5    O40   D    
Cr3   O5    S    
S3    O35   D    
C10   C11   A    
Cr6   O17   S    
Cr4   O13   S    
Cr5   O9    S    
C20   C21   A    
C48   O10   A    
Cr6   O11   S    
C27   C28   A    
C8    H18   S    
Cr2   O21   S    
C16   H2    S    
C49   O11   A    
O27   H21   S    
C1    O20   A    
C55   H9    S    
C3    C4    A    
C42   C52   S    
O36   H24   S    
C23   O23   A    
