data_mof_unit_52043.cif
_audit_creation_date              2012-12-11T16:30:23-0500
_audit_creation_method            fapswitch 2.2
_symmetry_space_group_name_H-M    P1
_symmetry_Int_Tables_number       1
_space_group_crystal_system       triclinic
_cell_length_a                    8.232077
_cell_length_b                    17.374765
_cell_length_c                    22.952199
_cell_angle_alpha                 95.654532
_cell_angle_beta                  89.358589
_cell_angle_gamma                 96.280598
_cell_volume                      3247.28015307

loop_
_atom_site_label
_atom_site_type_symbol
_atom_type_description
_atom_site_fract_x
_atom_site_fract_y
_atom_site_fract_z
_atom_type_partial_charge
Ba1   Ba    Ba6+2 0.852790 0.535910 0.472200 1.648472
Ba2   Ba    Ba6+2 0.337030 0.464150 0.527810 1.650210
C1    C     C_3   0.693158 0.827800 0.326603 -0.359609
C2    C     C_R   0.166341 0.553051 0.931832 -0.035451
C3    C     C_R   0.111308 0.551800 0.872671 0.578774
C4    C     C_3   0.134258 0.703037 0.312327 0.358687
C5    C     C_R   0.873794 0.466639 0.893519 0.566822
C6    C     C_R   0.908074 0.479961 0.953922 -0.017996
C7    C     C_R   0.060129 0.517849 0.972588 -0.058846
C8    C     C_R   0.323308 0.587804 0.952339 -0.011609
C9    C     C_R   0.374601 0.578279 0.009342 -0.102134
C10   C     C_R   0.266137 0.545000 0.049992 -0.027548
C11   C     C_R   0.105669 0.519898 0.032455 -0.053440
C12   C     C_3   0.658872 0.746055 0.345264 0.349172
C13   C     C_R   0.794862 0.453486 0.996096 -0.082152
C14   C     C_R   0.833333 0.464347 0.055736 -0.049727
C15   C     C_R   0.990987 0.495728 0.074519 -0.030623
C16   C     C_3   0.127691 0.728311 0.250904 -0.348282
C17   C     C_R   0.035700 0.504534 0.134438 0.583481
C18   C     C_R   0.315012 0.535842 0.107722 0.581604
C19   C     C_2   0.775047 0.466355 0.768876 -0.127633
C20   C     C_3   0.755899 0.428417 0.706831 -0.064513
C21   C     C_1   0.005075 0.509869 0.684533 0.044514
C22   C     C_2   0.052263 0.510712 0.740391 -0.089626
C23   C     C_3   0.495120 0.353424 0.351210 0.304255
C24   C     C_2   0.928062 0.494146 0.788644 0.174786
C25   C     C_R   0.396018 0.563901 0.236157 -0.110634
C26   C     C_R   0.446102 0.560800 0.293959 -0.028200
C27   C     C_R   0.192513 0.485384 0.314879 0.019965
C28   C     C_3   0.209691 0.701147 0.597741 0.314329
C29   C     C_R   0.151996 0.478277 0.254796 -0.100746
C30   C     C_R   0.248674 0.520790 0.213863 0.187086
C31   C     C_2   0.866887 0.470153 0.664850 -0.271981
C32   C     C_R   0.410134 0.719997 0.474304 -0.293111
C33   C     C_R   0.553415 0.745020 0.505592 0.063543
C34   C     C_3   0.489929 0.334557 0.285108 -0.377446
C35   C     C_R   0.610292 0.824463 0.512775 -0.120699
C36   C     C_R   0.521917 0.878947 0.489401 -0.007277
C37   C     C_R   0.373455 0.853398 0.460014 -0.134181
C38   C     C_R   0.316586 0.773747 0.453483 0.009841
C39   C     C_R   0.589932 0.164250 0.489112 -0.115909
C40   C     C_3   0.225349 0.788839 0.612918 -0.389357
C41   C     C_R   0.641917 0.244043 0.494853 0.034540
C42   C     C_R   0.879175 0.221581 0.549666 -0.017488
C43   C     C_R   0.828308 0.141124 0.543904 -0.136852
C44   C     C_R   0.681511 0.112400 0.514235 0.008949
C45   C     C_3   0.988933 0.238979 0.683562 0.300559
C46   C     C_1   0.627950 0.029764 0.506155 -0.005527
C47   C     C_1   0.579843 0.961069 0.498465 -0.002415
C48   C     C_R   0.781728 0.272457 0.527205 -0.272736
C49   C     C_3   0.985057 0.299814 0.405033 0.312772
C50   C     C_3   0.964074 0.212010 0.390223 -0.391370
C51   C     C_3   0.699726 0.632654 0.647144 0.310726
C52   C     C_3   0.708715 0.654695 0.712790 -0.376657
C53   C     C_R   0.881937 0.199464 0.780250 -0.016713
C54   C     C_R   0.841163 0.123179 0.795158 -0.049933
C55   C     C_R   0.701578 0.105056 0.828576 -0.062040
C56   C     C_3   0.032804 0.219634 0.744633 -0.209423
C57   C     C_R   0.602046 0.162835 0.847450 -0.085497
C58   C     C_R   0.641788 0.238800 0.832839 -0.019040
C59   C     C_R   0.781195 0.257042 0.799384 -0.026719
C60   C     C_R   0.437279 0.636016 0.917000 0.103070
C61   C     C_R   0.583791 0.609108 0.896369 -0.069951
C62   C     C_R   0.695945 0.656864 0.866092 -0.078757
C63   C     C_R   0.662333 0.731653 0.856306 -0.060640
C64   C     C_R   0.516555 0.758854 0.876802 -0.060038
C65   C     C_R   0.404694 0.711464 0.907453 0.009765
C66   C     C_3   0.526341 0.256503 0.659111 0.430445
C67   C     C_3   0.481793 0.175385 0.678059 -0.363962
C68   C     C_R   0.340181 0.525929 0.333514 -0.290414
H1    H     H_    0.721298 0.744360 0.387696 0.086651
H2    H     H_    0.821188 0.619000 0.631122 0.009688
H3    H     H_    0.608855 0.580822 0.638227 0.071591
H4    H     H_    0.826611 0.842761 0.320863 0.150540
H5    H     H_    0.799145 0.706503 0.722768 0.121548
H6    H     H_    0.746837 0.606213 0.735129 0.058499
H7    H     H_    0.586914 0.667969 0.729733 0.141419
H8    H     H_    0.524834 0.733527 0.351031 -0.065586
H9    H     H_    0.647823 0.870269 0.360605 0.073171
H10   H     H_    0.371770 0.366161 0.366478 0.015857
H11   H     H_    0.584222 0.405690 0.361401 0.066132
H12   H     H_    0.311310 0.805636 0.650105 0.124818
H13   H     H_    0.398527 0.283687 0.273217 0.121399
H14   H     H_    0.455381 0.385139 0.263930 0.069791
H15   H     H_    0.612100 0.321064 0.268708 0.135152
H16   H     H_    0.630031 0.831599 0.284636 0.110369
H17   H     H_    0.166125 0.682109 0.218469 0.076833
H18   H     H_    0.936017 0.295439 0.687433 -0.015249
H19   H     H_    0.898599 0.191410 0.664012 -0.016633
H20   H     H_    0.108856 0.270031 0.767764 0.115104
H21   H     H_    0.107933 0.169947 0.740038 0.093508
H22   H     H_    0.661652 0.267720 0.658837 -0.142911
H23   H     H_    0.272172 0.818968 0.574849 0.065142
H24   H     H_    0.479858 0.256980 0.613909 0.077005
H25   H     H_    0.544735 0.132684 0.649334 0.062821
H26   H     H_    0.348293 0.158582 0.674586 0.141860
H27   H     H_    0.052822 0.647893 0.313838 0.093157
H28   H     H_    0.520416 0.173213 0.723842 0.114566
H29   H     H_    0.741641 0.444876 0.086841 0.146279
H30   H     H_    0.473769 0.600940 0.210031 0.141704
H31   H     H_    0.181327 0.516045 0.749759 0.166520
H32   H     H_    0.668524 0.463135 0.796839 0.144252
H33   H     H_    0.046128 0.438712 0.241126 0.132578
H34   H     H_    0.103938 0.807750 0.625230 0.123005
H35   H     H_    0.376535 0.527055 0.378759 0.081828
H36   H     H_    0.261955 0.692890 0.321317 -0.072291
H37   H     H_    0.851597 0.451532 0.618520 0.078933
H38   H     H_    0.481560 0.142483 0.463665 0.075596
H39   H     H_    0.300717 0.895081 0.443864 0.079180
H40   H     H_    0.904178 0.101364 0.560926 0.067591
H41   H     H_    0.720591 0.843880 0.537783 0.084097
H42   H     H_    0.365214 0.658813 0.469854 0.071293
H43   H     H_    0.001257 0.739085 0.240458 0.155761
H44   H     H_    0.211080 0.782475 0.247707 0.103770
H45   H     H_    0.866783 0.319644 0.418947 0.000609
H46   H     H_    0.331648 0.683088 0.586805 0.005157
H47   H     H_    0.126776 0.686136 0.559533 0.062415
H48   H     H_    0.916901 0.077714 0.780854 0.055783
H49   H     H_    0.670534 0.046183 0.839813 0.062003
H50   H     H_    0.493862 0.148688 0.873183 0.067332
H51   H     H_    0.563886 0.283344 0.847066 0.116203
H52   H     H_    0.811036 0.315810 0.788237 0.094521
H53   H     H_    0.674628 0.425762 0.983159 0.118437
H54   H     H_    0.497476 0.601423 0.023026 0.113768
H55   H     H_    0.610629 0.551516 0.904155 0.087024
H56   H     H_    0.074620 0.314354 0.441184 0.074764
H57   H     H_    0.809162 0.636218 0.850355 0.088588
H58   H     H_    0.749335 0.768546 0.832899 0.066672
H59   H     H_    0.490827 0.816857 0.869337 0.057699
H60   H     H_    0.293120 0.733471 0.923928 0.056656
H61   H     H_    0.822088 0.334133 0.530679 0.058915
H62   H     H_    0.867730 0.195591 0.356405 0.128027
H63   H     H_    0.928577 0.182341 0.429657 0.068455
H64   H     H_    0.080990 0.192080 0.373375 0.125172
N1    N     N_R   0.970304 0.505007 0.852297 -0.417639
N2    N     N_R   0.199575 0.520071 0.151561 -0.423110
O1    O     O_2   0.894270 0.458150 0.360790 -0.455991
O2    O     O_2   0.216270 0.227762 0.540499 -0.488748
O3    O     O_3   0.131426 0.244356 0.649502 -0.577721
O4    O     O_3   0.134750 0.458940 0.431830 -0.491956
O5    O     O_3   0.566070 0.591710 0.528970 -0.486615
O6    O     O_2   0.362610 0.313970 0.472520 -0.457051
O7    O     O_3   0.541968 0.289373 0.377144 -0.641060
O8    O     O_2   0.425702 0.461687 0.708622 -0.484728
O9    O     O_3   0.456426 0.312294 0.697464 -0.570403
O10   O     O_2   0.188724 0.592879 0.839752 -0.610977
O11   O     O_2   0.759243 0.418772 0.878151 -0.638861
O12   O     O_3   0.653861 0.696059 0.620754 -0.636993
O13   O     O_2   0.927158 0.499933 0.170945 -0.572991
O14   O     O_2   0.460966 0.539667 0.117817 -0.601475
O15   O     O_3   0.663190 0.596710 0.395570 -0.494152
O16   O     O_2   0.780942 0.547335 0.292100 -0.435633
O17   O     O_3   0.039241 0.334342 0.354903 -0.636736
O18   O     O_3   0.718553 0.692846 0.302366 -0.597975
O19   O     O_2   0.827090 0.686050 0.527520 -0.462935
O20   O     O_3   0.077580 0.635890 0.424230 -0.490218
O21   O     O_2   0.979119 0.774091 0.460600 -0.489901
O22   O     O_3   0.081599 0.761415 0.352596 -0.600083
O23   O     O_2   0.295430 0.541870 0.639250 -0.457240
O24   O     O_3   0.054960 0.541130 0.568170 -0.497958
O25   O     O_3   0.526510 0.403350 0.604440 -0.476782
O26   O     O_3   0.147809 0.665506 0.646521 -0.627245
O27   O     O_3   0.623640 0.408350 0.471030 -0.476300
O28   O     O_3   0.112120 0.364170 0.575770 -0.462683
P1    P     P_3+3 0.063260 0.435680 0.369690 0.989529
P2    P     P_3+3 0.650710 0.674870 0.544690 0.985665
P3    P     P_3+3 0.113554 0.737126 0.423450 0.942758
P4    P     P_3+3 0.126450 0.564380 0.630310 0.999728
P5    P     P_3+3 0.081944 0.262981 0.578742 0.957657
P6    P     P_3+3 0.652733 0.598706 0.319825 0.980310
P7    P     P_3+3 0.544961 0.311457 0.453235 0.948310
P8    P     P_3+3 0.540832 0.404267 0.680222 0.972197

loop_
_geom_bond_atom_site_label_1
_geom_bond_atom_site_label_2
_ccdc_geom_bond_type
C6    C7    A    
C53   C54   A    
C59   H52   S    
C57   H50   S    
C39   H38   S    
C40   H23   S    
C50   H64   S    
C12   H1    S    
C9    H54   S    
C40   H12   S    
C19   C24   D    
C67   H26   S    
C1    H9    S    
O21   P3    D    
O1    P1    D    
C5    C6    A    
C36   C47   S    
C28   H46   S    
C51   C52   S    
O23   P4    D    
O18   P6    S    
O5    P2    S    
C35   C36   A    
O15   P6    S    
C13   H53   S    
C60   C65   A    
C32   C38   A    
C33   C35   A    
C22   C24   S    
C32   C33   A    
C36   C37   A    
C55   C57   A    
C34   H13   S    
C13   C14   A    
C23   H10   S    
C33   P2    S    
C32   H42   S    
C54   C55   A    
Ba2   O25   S    
Ba1   Ba2   S    
C27   P1    S    
Ba1   O19   S    
C1    H4    S    
C7    C11   A    
C42   P5    S    
C38   P3    S    
C24   N1    S    
C15   C17   A    
O25   P8    S    
C66   H22   S    
C14   C15   A    
C21   C31   D    
C31   H37   S    
C21   C22   D    
Ba1   O15   S    
O27   P7    S    
C56   H21   S    
C55   H49   S    
C52   H7    S    
C67   H28   S    
C12   H8    S    
C64   C65   A    
O9    P8    S    
C57   C58   A    
C19   C20   S    
C12   O18   S    
C1    H16   S    
C23   H11   S    
C50   H63   S    
C39   C41   A    
C16   H44   S    
O28   P5    S    
C23   O7    S    
C16   H43   S    
C4    O22   S    
O22   P3    S    
C5    O11   D    
C4    C16   S    
C44   C46   S    
C25   H30   S    
C61   C62   A    
C49   C50   S    
C50   H62   S    
C63   H58   S    
C48   H61   S    
Ba2   O28   S    
C37   C38   A    
C30   N2    S    
C41   P7    S    
C43   H40   S    
C66   C67   S    
O20   P3    S    
C17   N2    Am   
C43   C44   A    
C51   O12   S    
C49   H45   S    
C21   P4    S    
C58   C59   A    
C29   H33   S    
Ba1   O20   S    
C4    H27   S    
C5    N1    Am   
C60   C61   A    
O16   P6    D    
C29   C30   A    
Ba1   P1    S    
C39   C44   A    
C62   H57   S    
C10   C18   A    
C4    H36   S    
C41   C48   A    
C18   N2    Am   
C56   H20   S    
C61   H55   S    
Ba1   O4    S    
O26   P4    S    
C19   H32   S    
C26   P6    S    
C46   C47   T    
C45   H19   S    
C6    C13   A    
Ba2   O6    S    
C52   H6    S    
C8    C60   S    
C65   H60   S    
Ba2   O23   S    
C2    C8    A    
Ba2   P4    S    
Ba1   O1    S    
C42   C43   A    
C27   C68   A    
C42   C48   A    
O4    P1    S    
C3    N1    Am   
C20   C31   S    
C49   O17   S    
C3    O10   D    
O17   P1    S    
C25   C30   A    
C49   H56   S    
C54   H48   S    
Ba1   O24   S    
C26   C68   A    
C2    C3    A    
C67   H25   S    
C68   H35   S    
C40   H34   S    
Ba2   O27   S    
C9    C10   A    
C14   H29   S    
C28   H47   S    
C1    C12   S    
C34   H15   S    
O8    P8    D    
C16   H17   S    
C11   C15   A    
C22   H31   S    
Ba2   O4    S    
C45   H18   S    
C64   H59   S    
O7    P7    S    
C27   C29   A    
C62   C63   A    
C45   C56   S    
Ba1   P2    S    
C34   H14   S    
C51   H3    S    
C53   C59   A    
C17   O13   D    
C18   O14   D    
O3    P5    S    
O24   P4    S    
C58   H51   S    
C66   H24   S    
C35   H41   S    
Ba1   O5    S    
C8    C9    A    
C23   C34   S    
C52   H5    S    
C37   H39   S    
C10   C11   A    
Ba1   O27   S    
Ba2   O24   S    
C63   C64   A    
C53   C56   S    
C45   O3    S    
C25   C26   A    
Ba2   O5    S    
C28   O26   S    
O12   P2    S    
C28   C40   S    
O19   P2    D    
C2    C7    A    
C51   H2    S    
C20   P8    S    
C66   O9    S    
O6    P7    D    
O2    P5    D    
