data_mof_unit_20062.cif
_audit_creation_date              2012-12-11T14:14:38-0500
_audit_creation_method            fapswitch 2.2
_symmetry_space_group_name_H-M    P1
_symmetry_Int_Tables_number       1
_space_group_crystal_system       triclinic
_cell_length_a                    24.580252
_cell_length_b                    17.289881
_cell_length_c                    15.630421
_cell_angle_alpha                 89.999659
_cell_angle_beta                  128.910642
_cell_angle_gamma                 90.053429
_cell_volume                      5168.90924245

loop_
_atom_site_label
_atom_site_type_symbol
_atom_type_description
_atom_site_fract_x
_atom_site_fract_y
_atom_site_fract_z
_atom_type_partial_charge
C1    C     C_R   0.346615 0.364968 0.236184 -0.121512
C2    C     C_R   0.655865 0.369646 0.774774 -0.128836
C3    C     C_R   0.839961 0.876455 0.216698 -0.134555
C4    C     C_R   0.160042 0.876661 0.783429 -0.134361
C5    C     C_R   0.394822 0.617699 0.595306 -0.162112
C6    C     C_R   0.604648 0.618638 0.404590 -0.163648
C7    C     C_R   0.897289 0.121232 0.595993 -0.164400
C8    C     C_R   0.085177 0.142830 0.406300 -0.162045
C9    C     C_R   0.330382 0.643726 0.505870 0.082963
C10   C     C_R   0.668846 0.645353 0.493955 0.082709
C11   C     C_R   0.834097 0.149679 0.506943 0.083356
C12   C     C_R   0.136999 0.185745 0.496326 0.089942
C13   C     C_R   0.355272 0.627915 0.139288 0.151192
C14   C     C_R   0.644784 0.627665 0.860992 0.150966
C15   C     C_R   0.853450 0.123788 0.135979 0.154907
C16   C     C_R   0.145828 0.122771 0.864552 0.144081
C17   C     C_2   0.728358 0.664061 0.416587 -0.127018
C18   C     C_2   0.270834 0.663128 0.583179 -0.123415
C19   C     C_2   0.150612 0.285736 0.401496 -0.116991
C20   C     C_2   0.774279 0.167910 0.583028 -0.128126
C21   C     C_2   0.718852 0.683952 0.489229 -0.192002
C22   C     C_2   0.280218 0.682262 0.510187 -0.192092
C23   C     C_2   0.160567 0.261599 0.491507 -0.182125
C24   C     C_2   0.785491 0.189698 0.512993 -0.193301
C25   C     C_2   0.199712 0.339508 0.410321 -0.118916
C26   C     C_2   0.725752 0.212530 0.587229 -0.113014
C27   C     C_2   0.776567 0.709369 0.411738 -0.112579
C28   C     C_2   0.222936 0.709089 0.588034 -0.112652
C29   C     C_2   0.267162 0.340184 0.501049 -0.198460
C30   C     C_2   0.671336 0.246777 0.495507 -0.195953
C31   C     C_2   0.832116 0.742817 0.503394 -0.195466
C32   C     C_2   0.167549 0.742690 0.496430 -0.194373
C33   C     C_2   0.651095 0.256475 0.872588 -0.218653
C34   C     C_2   0.348921 0.252487 0.134556 -0.219806
C35   C     C_2   0.161842 0.770485 0.894936 -0.217323
C36   C     C_2   0.838223 0.770002 0.105562 -0.217387
C37   C     C_2   0.700112 0.215415 0.880411 -0.104370
C38   C     C_2   0.298360 0.212430 0.123688 -0.104396
C39   C     C_2   0.204122 0.724857 0.891106 -0.105011
C40   C     C_2   0.796067 0.724251 0.109669 -0.104914
C41   C     C_2   0.310854 0.659325 0.028113 -0.222585
C42   C     C_2   0.689207 0.658855 0.972354 -0.222328
C43   C     C_2   0.808248 0.152778 0.023095 -0.226103
C44   C     C_2   0.190236 0.151330 0.977668 -0.223655
C45   C     C_R   0.593504 0.362243 0.408056 -0.146007
C46   C     C_R   0.388019 0.391231 0.591651 -0.153302
C47   C     C_R   0.090869 0.859664 0.408279 -0.143805
C48   C     C_R   0.909038 0.859706 0.591669 -0.145287
C49   C     C_2   0.241971 0.664376 0.972003 -0.114080
C50   C     C_2   0.758141 0.663670 0.028782 -0.113800
C51   C     C_2   0.739226 0.157893 0.966668 -0.108692
C52   C     C_2   0.259516 0.155232 0.036532 -0.106351
C53   C     C_R   0.667197 0.361997 0.591053 -0.119833
C54   C     C_R   0.314207 0.392414 0.408416 -0.134221
C55   C     C_R   0.164906 0.859873 0.591322 -0.116292
C56   C     C_R   0.834934 0.859916 0.408612 -0.117292
C57   C     C_R   0.562286 0.364029 0.767192 -0.144523
C58   C     C_R   0.434013 0.364812 0.228403 -0.143985
C59   C     C_R   0.069740 0.873438 0.783397 -0.141984
C60   C     C_R   0.930245 0.873300 0.216697 -0.141655
C61   C     C_R   0.375338 0.324449 0.197087 0.147693
C62   C     C_R   0.624291 0.327437 0.808240 0.149707
C63   C     C_R   0.867054 0.839079 0.173157 0.148754
C64   C     C_R   0.132947 0.839355 0.827057 0.148979
C65   C     C_R   0.644525 0.319946 0.499059 0.137543
C66   C     C_R   0.321346 0.371318 0.499931 0.143644
C67   C     C_R   0.141366 0.816862 0.499549 0.133851
C68   C     C_R   0.858457 0.816915 0.500346 0.135651
C69   C     C_R   0.317712 0.615899 0.411476 0.147842
C70   C     C_R   0.681868 0.617022 0.588440 0.145092
C71   C     C_R   0.819600 0.119752 0.412030 0.145560
C72   C     C_R   0.164921 0.141297 0.590331 0.142227
C73   C     C_R   0.425264 0.610230 0.200989 -0.143671
C74   C     C_R   0.574736 0.610128 0.799075 -0.143667
C75   C     C_R   0.923536 0.106730 0.197943 -0.158048
C76   C     C_R   0.075268 0.107804 0.800631 -0.142620
C77   C     C_R   0.666274 0.605344 0.801360 -0.143737
C78   C     C_R   0.333788 0.605528 0.198916 -0.144258
C79   C     C_R   0.167096 0.100977 0.804434 -0.139118
C80   C     C_R   0.833016 0.103338 0.197474 -0.140938
H1    H     H_    0.298568 0.353030 0.222276 0.086852
H2    H     H_    0.708733 0.363288 0.804464 0.082685
H3    H     H_    0.787169 0.872101 0.188272 0.083947
H4    H     H_    0.212844 0.872439 0.811894 0.084034
H5    H     H_    0.747857 0.730986 0.546783 0.133126
H6    H     H_    0.251279 0.729064 0.452318 0.132516
H7    H     H_    0.192756 0.295380 0.565676 0.128787
H8    H     H_    0.758275 0.238269 0.457750 0.133773
H9    H     H_    0.182788 0.367616 0.335208 0.116980
H10   H     H_    0.741534 0.226710 0.667609 0.115568
H11   H     H_    0.759562 0.724800 0.330995 0.115495
H12   H     H_    0.240038 0.724693 0.668795 0.115112
H13   H     H_    0.285146 0.310180 0.575654 0.131849
H14   H     H_    0.652966 0.227038 0.415206 0.134135
H15   H     H_    0.851514 0.722072 0.583793 0.134245
H16   H     H_    0.147967 0.721811 0.415978 0.134181
H17   H     H_    0.216068 0.636320 0.999643 0.131773
H18   H     H_    0.784033 0.635483 0.001247 0.131484
H19   H     H_    0.713840 0.131522 0.996252 0.129613
H20   H     H_    0.285467 0.128164 0.008373 0.128934
H21   H     H_    0.718438 0.231850 0.835248 0.122850
H22   H     H_    0.278248 0.229822 0.165837 0.126924
H23   H     H_    0.217852 0.738233 0.838806 0.124787
H24   H     H_    0.782389 0.737677 0.162014 0.124858
H25   H     H_    0.335765 0.688783 0.999301 0.129360
H26   H     H_    0.664307 0.688442 0.001055 0.129382
H27   H     H_    0.832803 0.180153 0.992370 0.128077
H28   H     H_    0.165018 0.179388 0.006824 0.129647
H29   H     H_    0.632880 0.239689 0.917785 0.135606
H30   H     H_    0.368702 0.234263 0.092272 0.136781
H31   H     H_    0.148319 0.756722 0.947369 0.136141
H32   H     H_    0.851676 0.756204 0.053070 0.136510
H33   H     H_    0.571407 0.349511 0.324633 0.090271
H34   H     H_    0.407287 0.392027 0.675730 0.091215
H35   H     H_    0.066404 0.844627 0.324531 0.092859
H36   H     H_    0.933500 0.844710 0.675410 0.092662
H37   H     H_    0.711822 0.349643 0.674401 0.081343
H38   H     H_    0.266689 0.394552 0.324283 0.078600
H39   H     H_    0.207953 0.845982 0.675052 0.081753
H40   H     H_    0.791762 0.846087 0.324883 0.081630
H41   H     H_    0.525673 0.348465 0.780775 0.097298
H42   H     H_    0.463410 0.353310 0.200181 0.089328
H43   H     H_    0.039578 0.864707 0.811029 0.087429
H44   H     H_    0.960392 0.864539 0.189061 0.087569
H45   H     H_    0.455808 0.610941 0.172950 0.089859
H46   H     H_    0.544118 0.610791 0.826985 0.089863
H47   H     H_    0.952900 0.104700 0.167858 0.090160
H48   H     H_    0.044462 0.107823 0.828207 0.089759
H49   H     H_    0.719220 0.599005 0.832781 0.108176
H50   H     H_    0.280873 0.599328 0.167708 0.108807
H51   H     H_    0.220122 0.091442 0.836895 0.107437
H52   H     H_    0.780185 0.096134 0.166395 0.106594
H53   H     H_    0.417144 0.620853 0.680815 0.103509
H54   H     H_    0.582223 0.621984 0.319050 0.104439
H55   H     H_    0.920144 0.125464 0.681663 0.105327
H56   H     H_    0.053786 0.159171 0.321065 0.107263
H57   H     H_    0.696436 0.619763 0.354975 0.125094
H58   H     H_    0.302800 0.619161 0.645211 0.125047
H59   H     H_    0.114420 0.256794 0.323014 0.117496
H60   H     H_    0.804346 0.121766 0.642140 0.125842
N1    N     N_R   0.389060 0.424180 0.294540 -0.044321
N2    N     N_R   0.610940 0.424180 0.705460 -0.042382
N3    N     N_R   0.889060 0.924180 0.294540 -0.040747
N4    N     N_R   0.110940 0.924180 0.705460 -0.040470
N5    N     N_R   0.579670 0.423790 0.443360 -0.039374
N6    N     N_R   0.420330 0.423790 0.556640 -0.037231
N7    N     N_R   0.079670 0.923790 0.443360 -0.040525
N8    N     N_R   0.920330 0.923790 0.556640 -0.040536
N9    N     N_R   0.625470 0.423490 0.556600 -0.046471
N10   N     N_R   0.374530 0.423490 0.443400 -0.042956
N11   N     N_R   0.125470 0.923490 0.556600 -0.046899
N12   N     N_R   0.874530 0.923490 0.443400 -0.047120
N13   N     N_R   0.555250 0.423100 0.705420 -0.039347
N14   N     N_R   0.444750 0.423100 0.294580 -0.038428
N15   N     N_R   0.055250 0.923100 0.705420 -0.036879
N16   N     N_R   0.944750 0.923100 0.294580 -0.036550
N17   N     N_R   0.375210 0.577180 0.443400 -0.061932
N18   N     N_R   0.624790 0.577180 0.556600 -0.062756
N19   N     N_R   0.875210 0.077180 0.443400 -0.063043
N20   N     N_R   0.124790 0.077180 0.556600 -0.065720
N21   N     N_R   0.445430 0.577570 0.294580 -0.039246
N22   N     N_R   0.554570 0.577570 0.705420 -0.039392
N23   N     N_R   0.945430 0.077570 0.294580 -0.038189
N24   N     N_R   0.054570 0.077570 0.705420 -0.039505
N25   N     N_R   0.611620 0.576500 0.705460 -0.044851
N26   N     N_R   0.388380 0.576500 0.294540 -0.045032
N27   N     N_R   0.111620 0.076500 0.705460 -0.044853
N28   N     N_R   0.888380 0.076500 0.294540 -0.043873
N29   N     N_R   0.421010 0.576890 0.556640 -0.051428
N30   N     N_R   0.578990 0.576890 0.443360 -0.052357
N31   N     N_R   0.921010 0.076890 0.556640 -0.052791
N32   N     N_R   0.078990 0.076890 0.443360 -0.053946
Ni1   Ni    Ni4+2 0.383200 0.500680 0.370150 0.201405
Ni2   Ni    Ni4+2 0.616800 0.500680 0.629850 0.202112
Ni3   Ni    Ni4+2 0.883200 0.000680 0.370150 0.202556
Ni4   Ni    Ni4+2 0.116800 0.000680 0.629850 0.202111
Ni5   Ni    Ni4+2 0.512440 0.500680 0.370150 0.207158
Ni6   Ni    Ni4+2 0.487560 0.500680 0.629850 0.206480
Ni7   Ni    Ni4+2 0.012440 0.000680 0.370150 0.209066
Ni8   Ni    Ni4+2 0.987560 0.000680 0.629850 0.206938
C81   C     C_3   0.245725 0.602297 0.304430 -0.443944
C82   C     C_3   0.214629 0.676075 0.234411 -0.248530
C83   C     C_3   0.144967 0.659151 0.121795 -0.950158
H61   H     H_    0.152143 0.616942 0.076097 0.254045
H62   H     H_    0.106961 0.635339 0.131136 0.267500
H63   H     H_    0.123242 0.713468 0.073449 0.245796
H64   H     H_    0.205273 0.719843 0.275644 0.188437
H65   H     H_    0.251331 0.702025 0.223697 0.199740
H66   H     H_    0.247587 0.554460 0.259079 0.179817
H67   H     H_    0.210856 0.581953 0.322311 0.192667
C84   C     C_3   0.753992 0.604730 0.695662 -0.441863
C85   C     C_3   0.783874 0.678970 0.765009 -0.248914
C86   C     C_3   0.854134 0.663532 0.877356 -0.949514
H68   H     H_    0.848050 0.620982 0.924024 0.254356
H69   H     H_    0.892200 0.640793 0.867559 0.267469
H70   H     H_    0.875136 0.718262 0.924954 0.245377
H71   H     H_    0.792003 0.723438 0.722961 0.188228
H72   H     H_    0.746981 0.703508 0.776165 0.200297
H73   H     H_    0.752866 0.556542 0.741330 0.181291
H74   H     H_    0.789221 0.585523 0.678020 0.192503
C87   C     C_3   0.746991 0.110126 0.304863 -0.444373
C88   C     C_3   0.720466 0.184909 0.236792 -0.243259
C89   C     C_3   0.649160 0.172564 0.124763 -0.951037
H75   H     H_    0.652434 0.127722 0.077328 0.253878
H76   H     H_    0.610264 0.154219 0.135092 0.266155
H77   H     H_    0.631125 0.227535 0.077680 0.246875
H78   H     H_    0.715157 0.231080 0.280320 0.187576
H79   H     H_    0.758070 0.205923 0.225081 0.201611
H80   H     H_    0.745839 0.060724 0.258571 0.180378
H81   H     H_    0.711083 0.094108 0.322490 0.193037
C90   C     C_3   0.241151 0.142607 0.691229 -0.443860
C91   C     C_3   0.262709 0.211504 0.769011 -0.243371
C92   C     C_3   0.336422 0.200239 0.876939 -0.957610
H82   H     H_    0.338530 0.149171 0.921912 0.252793
H83   H     H_    0.374104 0.191914 0.860860 0.266278
H84   H     H_    0.352276 0.252528 0.928916 0.248637
H85   H     H_    0.263986 0.265508 0.732726 0.185669
H86   H     H_    0.225530 0.220208 0.785789 0.207959
H87   H     H_    0.254316 0.086986 0.735752 0.185625
H88   H     H_    0.273107 0.144290 0.663384 0.186111

loop_
_geom_bond_atom_site_label_1
_geom_bond_atom_site_label_2
_ccdc_geom_bond_type
N28   Ni3   S    
C15   C75   A    
C89   H75   S    
C80   H52   S    
C7    N31   A    
C8    H56   S    
C56   H40   S    
C87   C88   S    
C87   H81   S    
C35   C39   D    
C15   C80   A    
N3    Ni3   S    
C13   C41   S    
C57   C62   A    
C54   N10   A    
C74   H46   S    
C81   C82   S    
C47   H35   S    
C90   H88   S    
C89   H76   S    
C12   C23   S    
C59   C64   A    
C41   H25   S    
C60   C63   A    
C45   N5    A    
C14   C74   A    
C17   H57   S    
C9    C69   A    
C46   C66   A    
C83   H62   S    
C37   C51   S    
N16   Ni7   S    
C11   C71   A    
N1    N14   A    
C72   C90   S    
C38   C52   S    
C91   H85   S    
C77   N25   A    
N22   N25   A    
C40   C50   S    
C11   C24   S    
C50   H18   S    
N6    Ni6   S    
C25   C29   D    
C75   N23   A    
N9    Ni2   S    
C14   C77   A    
C47   C67   A    
C18   H58   S    
C82   C83   S    
C73   N21   A    
C58   N14   A    
N17   N29   A    
N6    N10   A    
N12   Ni3   S    
C81   H66   S    
N18   Ni2   S    
C1    N1    A    
C20   C24   D    
C33   C62   S    
C86   H69   S    
C36   H32   S    
C69   N17   A    
C27   H11   S    
C35   C64   S    
N13   Ni6   S    
C85   H72   S    
C56   N12   A    
C36   C63   S    
C53   C65   A    
C16   C44   S    
C75   H47   S    
N21   N26   A    
N24   Ni8   S    
C48   H36   S    
C44   C52   D    
C58   C61   A    
C92   H83   S    
C12   C72   A    
N8    Ni8   S    
C23   H7    S    
C53   N9    A    
N20   Ni4   S    
C87   H80   S    
C69   C81   S    
C29   H13   S    
C70   C84   S    
C7    C11   A    
C47   N7    A    
C44   H28   S    
C10   C21   S    
C59   H43   S    
C31   C68   S    
C89   H77   S    
C21   H5    S    
C58   H42   S    
C78   N26   A    
C88   C89   S    
C46   H34   S    
N30   Ni5   S    
C27   C31   D    
C84   C85   S    
C17   C27   S    
C28   C32   D    
C3    N3    A    
C84   H74   S    
N2    Ni2   S    
C83   H63   S    
C74   N22   A    
C59   N15   A    
N18   N30   A    
C77   H49   S    
N25   Ni2   S    
C92   H82   S    
C57   N13   A    
C52   H20   S    
C34   C61   S    
C33   C37   D    
C70   N18   A    
C34   C38   D    
C86   H68   S    
C19   C23   D    
C83   H61   S    
C60   N16   A    
C7    H55   S    
N7    Ni7   S    
C40   H24   S    
C51   H19   S    
C24   H8    S    
C81   H67   S    
C90   C91   S    
C4    H4    S    
C36   C40   D    
C90   H87   S    
C8    C12   A    
C86   H70   S    
C79   H51   S    
N4    Ni4   S    
N20   N32   A    
C18   C28   S    
C28   H12   S    
C43   H27   S    
C85   H71   S    
C48   C68   A    
C55   N11   A    
C42   H26   S    
N19   N31   A    
C42   C50   D    
C32   C67   S    
C10   C70   A    
N32   Ni7   S    
C19   H59   S    
C32   H16   S    
C13   C73   A    
C26   C30   D    
C3    C63   A    
C88   H78   S    
N1    Ni1   S    
C45   C65   A    
N19   Ni3   S    
C2    N2    A    
N31   Ni8   S    
C2    H2    S    
C60   H44   S    
N21   Ni5   S    
C54   H38   S    
N29   Ni6   S    
C35   H31   S    
N15   Ni8   S    
C6    N30   A    
C92   H84   S    
C71   C87   S    
C13   C78   A    
N26   Ni1   S    
N11   Ni4   S    
C39   C49   S    
C16   C76   A    
N24   N27   A    
N8    N12   A    
C84   H73   S    
C1    C61   A    
C4    N4    A    
C55   C67   A    
C39   H23   S    
C54   C66   A    
C5    H53   S    
C26   H10   S    
C41   C49   D    
C71   N19   A    
C4    C64   A    
C25   H9    S    
C72   N20   A    
C14   C42   S    
C16   C79   A    
C85   C86   S    
C20   H60   S    
N4    N15   A    
C18   C22   D    
N23   N28   A    
C78   H50   S    
C15   C43   S    
C30   H14   S    
C56   C68   A    
C37   H21   S    
C43   C51   D    
N3    N16   A    
C46   N6    A    
C20   C26   S    
C31   H15   S    
N7    N11   A    
C48   N8    A    
C33   H29   S    
C53   H37   S    
C82   H64   S    
C22   H6    S    
N2    N13   A    
C38   H22   S    
C19   C25   S    
C17   C21   D    
N22   Ni6   S    
C30   C65   S    
C76   N24   A    
C6    C10   A    
C57   H41   S    
C29   C66   S    
C45   H33   S    
C55   H39   S    
N10   Ni1   S    
C3    H3    S    
C91   C92   S    
C73   H45   S    
C6    H54   S    
C9    C22   S    
N14   Ni5   S    
N5    Ni5   S    
C2    C62   A    
C5    N29   A    
C88   H79   S    
C5    C9    A    
C34   H30   S    
C79   N27   A    
C82   H65   S    
N23   Ni7   S    
C1    H1    S    
C80   N28   A    
N5    N9    A    
C8    N32   A    
N17   Ni1   S    
N27   Ni4   S    
C91   H86   S    
C76   H48   S    
C49   H17   S    
