data_mof_unit_66721.cif
_audit_creation_date              2013-03-05T15:39:24-0500
_audit_creation_method            fapswitch 2.2
_symmetry_space_group_name_H-M    P1
_symmetry_Int_Tables_number       1
_space_group_crystal_system       triclinic
_cell_length_a                    20.365732
_cell_length_b                    22.814706
_cell_length_c                    8.818938
_cell_angle_alpha                 89.817599
_cell_angle_beta                  104.340488
_cell_angle_gamma                 89.938422
_cell_volume                      3969.91010347

loop_
_atom_site_label
_atom_site_type_symbol
_atom_site_description
_atom_site_fract_x
_atom_site_fract_y
_atom_site_fract_z
_atom_type_partial_charge
P1    P     P_3+3 0.859590 0.433890 0.993820 0.534766
P2    P     P_3+3 0.859590 0.566110 0.493820 0.529265
P3    P     P_3+3 0.359590 0.933890 0.993820 0.534712
P4    P     P_3+3 0.359590 0.066110 0.493820 0.527170
O1    O     O_2   0.866180 0.413660 0.823810 -0.277779
O2    O     O_2   0.866180 0.586340 0.323810 -0.268915
O3    O     O_2   0.366180 0.913660 0.823810 -0.272765
O4    O     O_2   0.366180 0.086340 0.323810 -0.275280
O5    O     O_3   0.922050 0.469730 0.097400 -0.398390
O6    O     O_3   0.922050 0.530270 0.597400 -0.386130
O7    O     O_3   0.422050 0.969730 0.097400 -0.400820
O8    O     O_3   0.422050 0.030270 0.597400 -0.381645
O9    O     O_3   0.976760 0.360270 0.628090 -0.403957
O10   O     O_3   0.976760 0.639730 0.128090 -0.358162
O11   O     O_3   0.476760 0.860270 0.628090 -0.402811
O12   O     O_3   0.476760 0.139730 0.128090 -0.347787
O13   O     O_2   0.865625 0.316269 0.676634 -0.264099
O14   O     O_2   0.867529 0.692892 0.160282 -0.291515
O15   O     O_2   0.364354 0.817182 0.674693 -0.267062
O16   O     O_2   0.381008 0.210448 0.165317 -0.323572
O17   O     O_3   0.787773 0.477132 0.924770 -0.595278
O18   O     O_3   0.795223 0.513586 0.432713 -0.617025
O19   O     O_3   0.289000 0.978595 0.924415 -0.597058
O20   O     O_3   0.295982 0.013017 0.434384 -0.610855
O21   O     O_3   0.946469 0.240660 0.606338 -0.551647
O22   O     O_3   0.958497 0.763208 0.103235 -0.551049
O23   O     O_3   0.445448 0.740990 0.606588 -0.552561
O24   O     O_3   0.473689 0.259902 0.051766 -0.587310
H1    H     H_    0.028491 0.275086 0.771071 0.179031
H2    H     H_    0.039624 0.734633 0.276344 0.160603
H3    H     H_    0.529191 0.774414 0.767834 0.177570
H4    H     H_    0.516598 0.253653 0.288608 0.137047
C1    C     C_3   0.045454 0.185355 0.725068 -0.537887
C2    C     C_3   0.065828 0.813387 0.162541 -0.571538
C3    C     C_3   0.544952 0.684690 0.717558 -0.549695
C4    C     C_3   0.577348 0.308792 0.174102 -0.654478
H5    H     H_    0.022476 0.169949 0.819549 0.255338
H6    H     H_    0.032846 0.850057 0.180331 0.308844
H7    H     H_    0.522016 0.668294 0.811185 0.263895
H8    H     H_    0.548198 0.349961 0.172006 0.290778
P5    P     P_3+3 0.140130 0.433190 0.695710 0.593573
P6    P     P_3+3 0.140130 0.566810 0.195710 0.546097
P7    P     P_3+3 0.640130 0.933190 0.695710 0.593691
P8    P     P_3+3 0.640130 0.066810 0.195710 0.541196
P9    P     P_3+3 0.088778 0.309884 0.129209 0.428951
P10   P     P_3+3 0.088031 0.690972 0.625415 0.414082
P11   P     P_3+3 0.589055 0.809993 0.129014 0.427229
P12   P     P_3+3 0.587051 0.191725 0.627547 0.416158
O25   O     O_2   0.133470 0.412980 0.865660 -0.347067
O26   O     O_2   0.133470 0.587020 0.365660 -0.341239
O27   O     O_2   0.633470 0.912980 0.865660 -0.349921
O28   O     O_2   0.633470 0.087020 0.365660 -0.345899
O29   O     O_3   0.022720 0.360150 0.061220 -0.366341
O30   O     O_3   0.022720 0.639850 0.561220 -0.368828
O31   O     O_3   0.522720 0.860150 0.061220 -0.367617
O32   O     O_3   0.522720 0.139850 0.561220 -0.360565
O33   O     O_2   0.137360 0.316173 0.020316 -0.424743
O34   O     O_2   0.139002 0.681928 0.523492 -0.407147
O35   O     O_2   0.637743 0.816575 0.020452 -0.421864
O36   O     O_2   0.638017 0.184013 0.524931 -0.411042
O37   O     O_3   0.224490 0.462930 0.739766 -0.520576
O38   O     O_3   0.223576 0.533926 0.236651 -0.538079
O39   O     O_3   0.724492 0.963193 0.740318 -0.523342
O40   O     O_3   0.723878 0.034785 0.237385 -0.545568
O41   O     O_3   0.056099 0.238797 0.085688 -0.522426
O42   O     O_3   0.055884 0.761178 0.566659 -0.561310
O43   O     O_3   0.556399 0.738986 0.084160 -0.524992
O44   O     O_3   0.554047 0.262338 0.574655 -0.582429
C5    C     C_3   0.003586 0.226086 0.160569 0.226738
C6    C     C_3   0.997384 0.773923 0.619560 0.264217
C7    C     C_3   0.501330 0.727401 0.151617 0.236723
C8    C     C_3   0.496581 0.274329 0.632846 0.153171
H9    H     H_    0.003926 0.256138 0.259365 0.004783
H10   H     H_    0.993560 0.745741 0.720766 -0.013380
H11   H     H_    0.499751 0.757981 0.248096 0.006843
H12   H     H_    0.494902 0.245506 0.734282 0.053838
C9    C     C_3   0.015450 0.163508 0.233165 -0.617488
C10   C     C_3   0.003198 0.837763 0.681626 -0.696426
C11   C     C_3   0.510469 0.665301 0.226831 -0.635381
C12   C     C_3   0.501914 0.337990 0.697812 -0.677519
H13   H     H_    0.064024 0.165390 0.322927 0.192930
H14   H     H_    0.048637 0.837122 0.779829 0.160826
H15   H     H_    0.557530 0.666986 0.321056 0.179667
H16   H     H_    0.547893 0.336784 0.795277 0.187432
C13   C     C_3   0.236012 0.472238 0.252424 0.201582
C14   C     C_3   0.239942 0.524070 0.749109 0.350093
C15   C     C_3   0.737083 0.973249 0.252682 0.198328
C16   C     C_3   0.739451 0.024440 0.749020 0.349627
C17   C     C_3   0.312846 0.458039 0.253170 -0.417411
C18   C     C_3   0.316514 0.533110 0.739115 -0.443601
C19   C     C_3   0.814703 0.960713 0.257001 -0.422378
C20   C     C_3   0.816076 0.034123 0.740927 -0.460891
H17   H     H_    0.330276 0.418065 0.323978 0.194724
H18   H     H_    0.349371 0.540484 0.857558 0.254888
H19   H     H_    0.833206 0.921855 0.331407 0.202446
H20   H     H_    0.848769 0.037342 0.860946 0.249596
Ba1   Ba    Ba6+2 0.999900 0.456810 0.844860 1.602083
Ba2   Ba    Ba6+2 0.999900 0.543190 0.344860 1.604006
Ba3   Ba    Ba6+2 0.499900 0.956810 0.844860 1.602572
Ba4   Ba    Ba6+2 0.499900 0.043190 0.344860 1.602985
C21   C     C_3   0.770466 0.510161 0.041745 0.267277
C22   C     C_3   0.749836 0.511093 0.530394 0.153770
C23   C     C_3   0.270506 0.010172 0.042649 0.295256
C24   C     C_3   0.249213 0.012342 0.528881 0.101477
H21   H     H_    0.802939 0.501320 0.160609 0.108133
H22   H     H_    0.768857 0.535554 0.641679 0.060063
H23   H     H_    0.303896 0.001994 0.160887 0.108553
H24   H     H_    0.268652 0.035711 0.641708 0.066761
C25   C     C_3   0.695809 0.498584 0.041557 -0.565712
C26   C     C_3   0.679409 0.533915 0.441523 -0.587026
C27   C     C_3   0.196539 0.995600 0.043768 -0.610250
C28   C     C_3   0.180650 0.038377 0.436768 -0.563537
H25   H     H_    0.665892 0.487668 0.921288 0.284585
H26   H     H_    0.683683 0.565244 0.349578 0.243071
H27   H     H_    0.167714 0.981052 0.925708 0.269652
H28   H     H_    0.188341 0.065871 0.339934 0.257918
H29   H     H_    0.672949 0.538374 0.079471 0.235806
H30   H     H_    0.647552 0.498098 0.376479 0.211106
H31   H     H_    0.170542 0.035057 0.073659 0.245173
H32   H     H_    0.145050 0.003799 0.377360 0.213817
O45   O     O_3   0.077880 0.530130 0.092320 -0.397167
O46   O     O_3   0.077880 0.469870 0.592320 -0.381754
O47   O     O_3   0.577880 0.030130 0.092320 -0.397374
O48   O     O_3   0.577880 0.969870 0.592320 -0.380473
P13   P     P_3+3 0.918276 0.695212 0.055932 0.488128
P14   P     P_3+3 0.911467 0.310617 0.562516 0.480413
P15   P     P_3+3 0.423336 0.197175 0.046477 0.477498
P16   P     P_3+3 0.410845 0.811052 0.562049 0.482824
C29   C     C_3   0.016738 0.245413 0.668106 0.332060
C30   C     C_3   0.028760 0.754549 0.157827 0.401284
C31   C     C_3   0.516099 0.745159 0.664132 0.322442
C32   C     C_3   0.531650 0.255587 0.176691 0.407133
H33   H     H_    0.041123 0.261359 0.576017 0.032678
H34   H     H_    0.048162 0.725471 0.078308 0.023342
H35   H     H_    0.539358 0.761366 0.570408 0.036572
H36   H     H_    0.561316 0.215956 0.165417 0.085418
H37   H     H_    0.032677 0.153346 0.628962 0.226812
H38   H     H_    0.078074 0.820868 0.048424 0.235306
H39   H     H_    0.532090 0.653565 0.619170 0.223597
H40   H     H_    0.595995 0.307334 0.066145 0.253816
C33   C     C_R   0.109613 0.646184 0.936718 -0.259124
C34   C     C_R   0.108001 0.353384 0.439904 -0.314266
C35   C     C_R   0.608380 0.146706 0.938145 -0.246945
C36   C     C_R   0.608553 0.853009 0.440502 -0.310169
C37   C     C_R   0.131562 0.686154 0.838177 0.156941
C38   C     C_R   0.134793 0.318399 0.338601 0.140261
C39   C     C_R   0.630867 0.186221 0.839633 0.170487
C40   C     C_R   0.635223 0.817956 0.338877 0.143402
C41   C     C_R   0.186921 0.722731 0.900570 -0.233723
C42   C     C_R   0.195787 0.287861 0.398759 -0.147871
C43   C     C_R   0.686845 0.222187 0.901743 -0.245192
C44   C     C_R   0.696208 0.787161 0.398986 -0.139289
C45   C     C_R   0.217222 0.726911 0.064156 0.121006
C46   C     C_R   0.221770 0.278428 0.562400 0.150305
C47   C     C_R   0.717026 0.226677 0.065352 0.118784
C48   C     C_R   0.722946 0.778864 0.562960 0.152783
C49   C     C_R   0.198563 0.679757 0.154797 -0.375586
C50   C     C_R   0.194713 0.318362 0.658631 -0.322074
C51   C     C_R   0.697708 0.179841 0.155943 -0.378332
C52   C     C_R   0.695974 0.818746 0.659205 -0.321847
C53   C     C_R   0.146559 0.638851 0.091899 0.348384
C54   C     C_R   0.144422 0.360509 0.594815 0.405716
C55   C     C_R   0.645847 0.138948 0.092611 0.345241
C56   C     C_R   0.645100 0.860439 0.595311 0.406980
C57   C     C_R   0.806644 0.276370 0.296638 0.001079
C58   C     C_R   0.820962 0.734410 0.782543 -0.108779
C59   C     C_R   0.305233 0.777414 0.296453 0.001646
C60   C     C_R   0.317894 0.232092 0.783817 -0.102073
C61   C     C_R   0.860435 0.315936 0.354873 0.231499
C62   C     C_R   0.868923 0.690504 0.845898 0.199368
C63   C     C_R   0.359897 0.816255 0.354490 0.231346
C64   C     C_R   0.366713 0.188639 0.845405 0.245341
C65   C     C_R   0.840166 0.365472 0.102117 0.247871
C66   C     C_R   0.839266 0.635240 0.600566 0.213222
C67   C     C_R   0.340133 0.865558 0.101737 0.243557
C68   C     C_R   0.338031 0.134371 0.600133 0.210606
C69   C     C_R   0.786224 0.324787 0.041687 -0.283884
C70   C     C_R   0.786810 0.678051 0.539885 -0.212616
C71   C     C_R   0.286220 0.825001 0.040981 -0.277571
C72   C     C_R   0.287100 0.178098 0.536536 -0.231746
C73   C     C_R   0.770897 0.275779 0.134218 0.032086
C74   C     C_R   0.777746 0.730213 0.628323 0.021900
C75   C     C_R   0.270674 0.776158 0.133388 0.035128
C76   C     C_R   0.276037 0.229160 0.627449 0.018237
C77   C     C_R   0.875287 0.359937 0.258536 -0.509531
C78   C     C_R   0.877151 0.642237 0.754821 -0.394115
C79   C     C_R   0.375420 0.859815 0.257911 -0.509512
C80   C     C_R   0.374631 0.140369 0.755205 -0.405194
H41   H     H_    0.206585 0.745329 0.815237 0.157524
H42   H     H_    0.220658 0.270471 0.314417 0.141068
H43   H     H_    0.707098 0.243900 0.816073 0.158664
H44   H     H_    0.720129 0.767617 0.315245 0.142279
H45   H     H_    0.227374 0.668563 0.269679 0.214573
H46   H     H_    0.209167 0.318828 0.783315 0.180787
H47   H     H_    0.725669 0.168476 0.271159 0.214977
H48   H     H_    0.711213 0.819198 0.784085 0.180237
H49   H     H_    0.911324 0.393360 0.309746 0.164919
H50   H     H_    0.910950 0.607396 0.808217 0.173661
H51   H     H_    0.411857 0.892961 0.308923 0.165428
H52   H     H_    0.409108 0.105887 0.808295 0.169611
N1    N     N_3   0.359270 0.505112 0.320757 -0.126601
H53   H     H_    0.345784 0.543833 0.257559 0.234857
H54   H     H_    0.355758 0.512308 0.433649 0.162079
N2    N     N_3   0.345244 0.481367 0.682937 -0.150934
H55   H     H_    0.344565 0.447000 0.759917 0.229677
H56   H     H_    0.396868 0.488774 0.692560 0.141621
N3    N     N_3   0.858848 0.009537 0.323190 -0.139180
H57   H     H_    0.849609 0.045360 0.247041 0.233157
H58   H     H_    0.846892 0.022927 0.424444 0.171340
N4    N     N_3   0.843713 0.984648 0.672732 -0.155422
H59   H     H_    0.844043 0.948403 0.744733 0.226185
H60   H     H_    0.895014 0.992671 0.679739 0.125048
C81   C     C_2   0.325311 0.441861 0.097493 1.083497
O49   O     O_2   0.369285 0.467156 0.050647 -0.640691
O50   O     O_R   0.291654 0.394214 0.014664 -0.819413
H61   H     H_    0.302543 0.388862 0.910129 0.329285
C82   C     C_2   0.329629 0.586255 0.648907 0.981449
O51   O     O_2   0.297711 0.594974 0.513860 -0.647788
O52   O     O_R   0.382020 0.623809 0.719518 -0.764421
H62   H     H_    0.388411 0.655879 0.646105 0.352376
C83   C     C_2   0.829203 0.943641 0.103374 1.094575
O53   O     O_2   0.875035 0.967714 0.060568 -0.641285
O54   O     O_R   0.795172 0.896688 0.017996 -0.816300
H63   H     H_    0.805952 0.892297 0.913021 0.324750
C84   C     C_2   0.829962 0.090682 0.664702 1.004161
O55   O     O_2   0.799806 0.103107 0.530562 -0.654012
O56   O     O_R   0.879699 0.128071 0.748817 -0.757796
H64   H     H_    0.882152 0.165889 0.691313 0.352579
C85   C     C_2   0.781250 0.571368 0.997209 1.028691
O57   O     O_2   0.839360 0.587372 0.013404 -0.597464
O58   O     O_R   0.727486 0.607033 0.920271 -0.832018
H65   H     H_    0.743460 0.646654 0.891950 0.307274
C86   C     C_2   0.739438 0.448413 0.572231 1.161426
O59   O     O_2   0.700833 0.438718 0.654948 -0.602771
O60   O     O_R   0.767629 0.400957 0.510565 -0.746053
H66   H     H_    0.796854 0.412277 0.438029 0.289048
C87   C     C_2   0.277652 0.072369 0.999148 0.989952
O61   O     O_2   0.334352 0.092775 0.024034 -0.594413
O62   O     O_R   0.222373 0.104355 0.913594 -0.832527
H67   H     H_    0.236682 0.144019 0.881335 0.297554
C88   C     C_2   0.235646 0.949985 0.568299 1.162344
O63   O     O_2   0.196000 0.941447 0.649052 -0.634000
O64   O     O_R   0.263084 0.901612 0.508508 -0.743617
H68   H     H_    0.294619 0.911801 0.440416 0.291700
N5    N     N_3   0.690303 0.451449 0.150077 -0.198968
H69   H     H_    0.718240 0.415336 0.130357 0.171781
H70   H     H_    0.639569 0.438410 0.126169 0.194276
N6    N     N_3   0.643483 0.559328 0.549960 -0.137282
H71   H     H_    0.597247 0.575640 0.484029 0.207019
H72   H     H_    0.670975 0.595155 0.605750 0.182991
N7    N     N_3   0.193747 0.950750 0.160384 -0.197098
H73   H     H_    0.222338 0.914580 0.144155 0.169154
H74   H     H_    0.143508 0.936715 0.141391 0.189286
N8    N     N_3   0.147112 0.071902 0.537336 -0.148093
H75   H     H_    0.180452 0.103586 0.597514 0.165800
H76   H     H_    0.135667 0.043740 0.620897 0.222899
N9    N     N_3   0.118874 0.187390 0.782618 -0.164671
H77   H     H_    0.139783 0.200779 0.691269 0.117175
H78   H     H_    0.131943 0.218316 0.871999 0.202740
N10   N     N_3   0.128844 0.814880 0.285348 -0.188913
H79   H     H_    0.153859 0.774963 0.286748 0.150215
H80   H     H_    0.117267 0.819105 0.393665 0.228242
N11   N     N_3   0.618464 0.686458 0.775556 -0.163798
H81   H     H_    0.639471 0.700526 0.684992 0.129952
H82   H     H_    0.631482 0.716859 0.866341 0.203537
N12   N     N_3   0.635566 0.309784 0.309556 -0.183793
H83   H     H_    0.655647 0.267610 0.329155 0.175310
H84   H     H_    0.619210 0.321670 0.408440 0.216202
C89   C     C_2   0.965615 0.143668 0.324172 1.065839
O65   O     O_2   0.916968 0.173867 0.331542 -0.629055
O66   O     O_R   0.977567 0.090611 0.406104 -0.771094
H85   H     H_    0.946393 0.084860 0.478342 0.323679
C90   C     C_2   0.946599 0.855481 0.752374 0.925361
O67   O     O_2   0.887627 0.852952 0.677081 -0.617347
O68   O     O_R   0.962905 0.877586 0.904233 -0.798685
H86   H     H_    0.921771 0.887672 0.942748 0.348776
C91   C     C_2   0.457230 0.647780 0.310861 1.066098
O69   O     O_2   0.408399 0.679120 0.309267 -0.639878
O70   O     O_R   0.466133 0.595651 0.396835 -0.796344
H87   H     H_    0.433190 0.591964 0.465336 0.325320
C92   C     C_2   0.446266 0.353703 0.774712 1.033124
O71   O     O_2   0.386788 0.349771 0.704143 -0.630814
O72   O     O_R   0.463860 0.375670 0.926706 -0.766247
H88   H     H_    0.423538 0.381088 0.972315 0.341851
N13   N     N_3   0.784697 0.240780 0.408041 -0.206912
H89   H     H_    0.769789 0.267445 0.489631 0.180675
H90   H     H_    0.824157 0.213398 0.464743 0.205263
N14   N     N_3   0.815703 0.783198 0.878995 -0.190409
H91   H     H_    0.862803 0.802819 0.916953 0.192408
H92   H     H_    0.799130 0.768774 0.975793 0.163090
N15   N     N_3   0.280384 0.744172 0.408038 -0.207305
H93   H     H_    0.264691 0.772646 0.484740 0.184831
H94   H     H_    0.318567 0.716741 0.470585 0.190452
N16   N     N_3   0.310114 0.278745 0.884858 -0.189242
H95   H     H_    0.356631 0.298284 0.933362 0.190171
H96   H     H_    0.290096 0.261937 0.974250 0.156508
C93   C     C_2   0.739992 0.340529 0.892492 1.064974
O73   O     O_2   0.758519 0.336282 0.771973 -0.549243
O74   O     O_R   0.673489 0.356352 0.887449 -0.833617
H97   H     H_    0.646686 0.363890 0.776438 0.353407
C94   C     C_2   0.736699 0.665175 0.393665 0.952318
O75   O     O_2   0.676626 0.667543 0.391118 -0.707686
O76   O     O_R   0.756307 0.654643 0.256147 -0.739437
H98   H     H_    0.715635 0.652084 0.163366 0.352339
C95   C     C_2   0.238920 0.842052 0.894545 1.059622
O77   O     O_2   0.256014 0.839116 0.771926 -0.546513
O78   O     O_R   0.173308 0.858766 0.895270 -0.848032
H99   H     H_    0.146519 0.870445 0.787263 0.348156
C96   C     C_2   0.244100 0.168994 0.378516 0.967202
O79   O     O_2   0.182707 0.168145 0.358070 -0.678540
O80   O     O_R   0.272268 0.168372 0.250232 -0.723136
H100  H     H_    0.236327 0.170863 0.148054 0.333851
N17   N     N_3   0.050673 0.611523 0.879539 -0.140607
H101  H     H_    0.011644 0.640417 0.830509 0.090902
H102  H     H_    0.059471 0.582502 0.795408 0.181785
N18   N     N_3   0.042836 0.380038 0.390281 -0.154679
H103  H     H_    0.008536 0.346574 0.349313 0.096868
H104  H     H_    0.041664 0.409671 0.299930 0.152788
N19   N     N_3   0.549332 0.112110 0.880784 -0.140627
H105  H     H_    0.510211 0.140851 0.830999 0.094394
H106  H     H_    0.558215 0.082969 0.796988 0.179799
N20   N     N_3   0.543229 0.879416 0.391437 -0.154955
H107  H     H_    0.508991 0.845812 0.351663 0.095023
H108  H     H_    0.541544 0.908927 0.300604 0.154019
C97   C     C_2   0.935932 0.233274 0.043107 0.978396
O81   O     O_2   0.923527 0.279162 0.970464 -0.573756
O82   O     O_R   0.886938 0.189168 0.018971 -0.725536
H109  H     H_    0.843170 0.201356 0.942396 0.346188
C98   C     C_2   0.935198 0.762651 0.488468 1.073956
O83   O     O_2   0.918288 0.712135 0.456690 -0.591306
O84   O     O_R   0.897127 0.808314 0.403107 -0.747965
H110  H     H_    0.856362 0.793904 0.320808 0.336912
C99   C     C_2   0.435662 0.734712 0.027695 0.990399
O85   O     O_2   0.422781 0.782067 0.962939 -0.571206
O86   O     O_R   0.388885 0.689020 0.988923 -0.726445
H111  H     H_    0.345965 0.701320 0.909484 0.348933
C100  C     C_2   0.432814 0.262348 0.506689 0.995358
O87   O     O_2   0.418862 0.211775 0.468687 -0.565027
O88   O     O_R   0.390125 0.307495 0.432260 -0.784620
H112  H     H_    0.348890 0.292587 0.352294 0.342196
C101  C     C_2   0.022910 0.117766 0.115069 1.169532
O89   O     O_2   0.076790 0.113055 0.078580 -0.626756
O90   O     O_R   0.969121 0.080329 0.049437 -0.716146
H113  H     H_    0.980932 0.051575 0.972782 0.330508
C102  C     C_2   0.014606 0.885163 0.569666 1.188963
O91   O     O_2   0.008003 0.874728 0.431389 -0.577639
O92   O     O_R   0.033099 0.941872 0.623397 -0.767107
H114  H     H_    0.038841 0.946218 0.740241 0.293742
C103  C     C_2   0.519876 0.618345 0.113488 1.163386
O93   O     O_2   0.573986 0.614445 0.077694 -0.638879
O94   O     O_R   0.467715 0.578837 0.051738 -0.712139
H115  H     H_    0.480768 0.549503 0.978100 0.340674
C104  C     C_2   0.512500 0.388469 0.592357 1.171042
O95   O     O_2   0.526942 0.436524 0.651976 -0.589343
O96   O     O_R   0.507028 0.383454 0.431884 -0.749949
H116  H     H_    0.496893 0.342872 0.388933 0.305808
C105  C     C_2   0.221558 0.452601 0.399573 0.932157
O97   O     O_2   0.256646 0.416599 0.485667 -0.614371
O98   O     O_R   0.161955 0.470927 0.428644 -0.747547
H117  H     H_    0.121614 0.471831 0.337026 0.286935
C106  C     C_2   0.233130 0.546658 0.900200 0.812528
O99   O     O_2   0.181706 0.533981 0.937066 -0.625131
O100  O     O_R   0.279008 0.587791 0.983833 -0.788719
H118  H     H_    0.270426 0.599866 0.086310 0.358867
C107  C     C_2   0.721441 0.952553 0.398188 0.927753
O101  O     O_2   0.756154 0.916133 0.483491 -0.615853
O102  O     O_R   0.661147 0.969936 0.425706 -0.748942
H119  H     H_    0.621378 0.970855 0.332778 0.287026
C108  C     C_2   0.732048 0.047309 0.899250 0.807418
O103  O     O_2   0.680248 0.035076 0.934964 -0.626512
O104  O     O_R   0.778162 0.088141 0.983443 -0.792577
H120  H     H_    0.769271 0.100614 0.085255 0.358918
N21   N     N_3   0.191987 0.439102 0.129232 -0.126154
H121  H     H_    0.203552 0.394838 0.152021 0.132682
H122  H     H_    0.141181 0.442686 0.129648 0.146063
N22   N     N_3   0.193142 0.557695 0.630187 -0.107133
H123  H     H_    0.144232 0.555578 0.646834 0.160959
H124  H     H_    0.205571 0.601940 0.648066 0.109693
N23   N     N_3   0.694508 0.940151 0.127168 -0.126574
H125  H     H_    0.705887 0.895823 0.149887 0.134733
H126  H     H_    0.643493 0.943681 0.125722 0.149841
N24   N     N_3   0.692742 0.057505 0.628696 -0.108732
H127  H     H_    0.643694 0.054892 0.644165 0.163225
H128  H     H_    0.703889 0.101970 0.646581 0.111429

loop_
_geom_bond_atom_site_label_1
_geom_bond_atom_site_label_2
_geom_bond_distance
_ccdc_geom_bond_type
Ba2   O45   3.053904 S    
N20   H108  1.038790 S    
C105  O97   1.219752 D    
C15   C19   1.597278 S    
C93   O74   1.391267 S    
C34   C38   1.406402 A    
N15   H93   1.044594 S    
P5    O37   1.799045 S    
C26   H30   1.112431 S    
C6    C98   1.511264 S    
C100  O87   1.216691 D    
P6    C53   1.899192 S    
P7    O39   1.801278 S    
C94   O75   1.219184 D    
P8    O40   1.806382 S    
C5    C97   1.513197 S    
P9    O33   1.546553 D    
O3    Ba3   2.859458 S    
C49   H45   1.067473 S    
P7    Ba3   3.469676 S    
C46   C50   1.445491 A    
O14   P13   1.545564 D    
C1    C29   1.523212 S    
O66   H85   1.012983 S    
C7    C99   1.511653 S    
O92   H114  1.013061 S    
C41   C45   1.425182 A    
C18   C82   1.508026 S    
N8    H76   1.045272 S    
C3    H39   1.103392 S    
C38   C42   1.406870 A    
O19   C23   1.395288 S    
C44   C48   1.425293 A    
C1    H37   1.102021 S    
C6    H10   1.116670 S    
C43   C47   1.425446 A    
P4    O8    1.593273 S    
O22   C30   1.405697 S    
C33   C37   1.405293 A    
C52   H48   1.067738 S    
C96   O80   1.389515 S    
C12   C92   1.501412 S    
P5    C54   1.896469 S    
C36   C56   1.394642 A    
C15   N23   1.441716 S    
C30   H34   1.108004 S    
P5    O25   1.604297 D    
C104  O96   1.396877 S    
N6    H72   1.044396 S    
C68   C80   1.393208 A    
C18   N2    1.458501 S    
C81   O50   1.394185 S    
C57   C61   1.416004 A    
C9    C101  1.510556 S    
C33   N17   1.423086 S    
N11   H81   1.044932 S    
C14   C18   1.597138 S    
C28   H32   1.112732 S    
C59   C63   1.417510 A    
C99   O85   1.217960 D    
N18   H103  1.038875 S    
Ba4   O48   2.887401 S    
O50   H61   1.007928 S    
C85   O57   1.213183 D    
C42   H42   1.074827 S    
O23   P16   1.749980 S    
C10   H14   1.099768 S    
O56   H64   1.006965 S    
O44   C8    1.416187 S    
O100  H118  1.001459 S    
C70   C74   1.461274 A    
C29   H33   1.112121 S    
C20   C84   1.512056 S    
C89   O66   1.397610 S    
O2    Ba2   2.857035 S    
N11   H82   1.044575 S    
C67   C71   1.436226 A    
P8    O47   1.604190 S    
C41   H41   1.067593 S    
C8    C100  1.511968 S    
P4    Ba4   3.467742 S    
P6    Ba2   3.469328 S    
C92   O71   1.220572 D    
N13   H90   1.041144 S    
C107  O101  1.219619 D    
O42   C6    1.413185 S    
O28   Ba4   2.862374 S    
O9    Ba1   2.882795 S    
P3    O7    1.597655 S    
O25   Ba1   2.859922 S    
O86   H111  1.014140 S    
C93   O73   1.216819 D    
C72   C96   1.466201 S    
C44   H44   1.077677 S    
C1    N9    1.455972 S    
O98   H117  0.999628 S    
C23   H23   1.109841 S    
C77   H49   1.078541 S    
C21   C25   1.543080 S    
O104  H120  1.000998 S    
N19   H106  1.044004 S    
C103  O93   1.222387 D    
C91   O69   1.221437 D    
C20   N4    1.457137 S    
O94   H115  1.014001 S    
C58   C74   1.428844 A    
C7    C11   1.553776 S    
Ba1   Ba2   4.824094 S    
C51   H47   1.065514 S    
P1    C65   1.919405 S    
C23   C27   1.545398 S    
N15   H94   1.041581 S    
C4    C32   1.533917 S    
O21   P14   1.749875 S    
N17   H102  1.043890 S    
C14   C106  1.468361 S    
C80   H52   1.079240 S    
C24   C88   1.505442 S    
C20   H20   1.104768 S    
C13   C105  1.468731 S    
C27   H31   1.108947 S    
N9    H77   1.045125 S    
C57   N13   1.427426 S    
C97   O82   1.397051 S    
O8    Ba3   2.888286 S    
C35   N19   1.424175 S    
H1    C29   1.112087 S    
C95   O78   1.390721 S    
C15   C107  1.473085 S    
P8    C55   1.895318 S    
C86   O59   1.217643 D    
P6    O38   1.809103 S    
O40   C15   1.428839 S    
O24   P15   1.755463 S    
C11   C91   1.510506 S    
P7    C56   1.898023 S    
P8    O28   1.606954 D    
P9    O29   1.754219 S    
C87   O61   1.214315 D    
P10   O34   1.546280 D    
N1    H54   1.029354 S    
N22   H124  1.043882 S    
O10   Ba2   2.872704 S    
C101  O90   1.398436 S    
O26   Ba2   2.862374 S    
C47   C51   1.444291 A    
C48   C52   1.443913 A    
C36   N20   1.425330 S    
O16   P15   1.543446 D    
C24   C28   1.547815 S    
C48   C74   1.576211 S    
O12   Ba4   2.872704 S    
C82   O51   1.222801 D    
P11   O35   1.546609 D    
C2    H38   1.107916 S    
O24   C32   1.404164 S    
N14   H92   1.045044 S    
P5    O46   1.599734 S    
O6    Ba1   2.888286 S    
C39   C43   1.403050 A    
O5    Ba2   2.898309 S    
P2    O18   1.761338 S    
C83   O53   1.220531 D    
C86   O60   1.398107 S    
C28   N8    1.463359 S    
C32   H36   1.105242 S    
C2    N10   1.460465 S    
N12   H84   1.044108 S    
P6    O26   1.606954 D    
O1    Ba1   2.859458 S    
C11   C103  1.511518 S    
N4    H60   1.047569 S    
P9    O41   1.760770 S    
C9    C89   1.510390 S    
C28   H28   1.100147 S    
Ba2   O46   2.887401 S    
O96   H116  1.003604 S    
C16   N24   1.446828 S    
C40   C44   1.409541 A    
N10   H79   1.041579 S    
C19   N3    1.461540 S    
C47   C73   1.582531 S    
C58   C62   1.411968 A    
C92   O72   1.393934 S    
C87   O62   1.393981 S    
O4    Ba4   2.857035 S    
C3    C31   1.525615 S    
C58   N14   1.422974 S    
C8    C12   1.557033 S    
P8    Ba4   3.469328 S    
C69   C73   1.461033 A    
C90   O68   1.393752 S    
P5    Ba1   3.469676 S    
C10   C102  1.518461 S    
C17   H17   1.110643 S    
O12   P15   1.738531 S    
C67   C79   1.392434 A    
P3    Ba3   3.467410 S    
C68   C72   1.446289 A    
N2    H55   1.037834 S    
P16   C63   1.870489 S    
O31   Ba3   2.872568 S    
O72   H88   1.007525 S    
N3    H58   1.029212 S    
N5    H69   1.040052 S    
P6    O45   1.604190 S    
Ba3   O48   3.052854 S    
C108  O104  1.400708 S    
N24   H127  1.042850 S    
O39   C16   1.428736 S    
C34   N18   1.425311 S    
O62   H67   1.012297 S    
C12   H16   1.103403 S    
C104  O95   1.221766 D    
O60   H66   1.008976 S    
C25   H29   1.109412 S    
N23   H125  1.044902 S    
C81   O49   1.220082 D    
C13   N21   1.442175 S    
C106  O100  1.400918 S    
C50   H46   1.065637 S    
P1    O1    1.607143 D    
C52   C56   1.414588 A    
Ba3   O47   2.897410 S    
P10   O42   1.757011 S    
P3    O3    1.607143 D    
N21   H122  1.038762 S    
N16   H95   1.039485 S    
P4    O20   1.758182 S    
O13   P14   1.538530 D    
C59   N15   1.429134 S    
O64   H68   1.008740 S    
P12   C39   1.865971 S    
O15   P16   1.539289 D    
N18   H104  1.039054 S    
C98   O83   1.216755 D    
C3    N11   1.457916 S    
C5    C9    1.556733 S    
C72   C76   1.464785 A    
O70   H87   1.011291 S    
C5    H9    1.109094 S    
C102  O92   1.398861 S    
C66   C70   1.446672 A    
P4    O4    1.604481 D    
C94   O76   1.389081 S    
N20   H107  1.038602 S    
C105  O98   1.366660 S    
C7    H11   1.108602 S    
C89   O65   1.221145 D    
C69   C93   1.459207 S    
C100  O88   1.399529 S    
C18   H18   1.105555 S    
C99   O86   1.397928 S    
N3    H57   1.043028 S    
P1    O5    1.597655 S    
O54   H63   1.008214 S    
N7    H73   1.039949 S    
C88   O64   1.398796 S    
O52   H62   1.005171 S    
C13   C17   1.596039 S    
H2    C30   1.109071 S    
C1    H5    1.108348 S    
O78   H99   1.008248 S    
C79   H51   1.078393 S    
O22   P13   1.757594 S    
C3    H7    1.108769 S    
O84   H110  1.013756 S    
N13   H89   1.044340 S    
O27   Ba3   2.859922 S    
O88   H112  1.013415 S    
C9    H13   1.104298 S    
C65   C77   1.392975 A    
C62   C78   1.399206 A    
P12   O44   1.761332 S    
P13   C62   1.879352 S    
O9    P14   1.735627 S    
P3    C67   1.916216 S    
O11   P16   1.738468 S    
N5    H70   1.045794 S    
C22   C26   1.543213 S    
C49   C53   1.419428 A    
C24   H24   1.113434 S    
N6    H71   1.043973 S    
C17   C81   1.503733 S    
C26   N6    1.461230 S    
C34   C54   1.393790 A    
C60   N16   1.423965 S    
Ba4   O47   3.053904 S    
H3    C31   1.111952 S    
O82   H109  1.013895 S    
C85   O58   1.395670 S    
C11   H15   1.102865 S    
P7    O27   1.604297 D    
N17   H101  1.039288 S    
O41   C5    1.418891 S    
O43   C7    1.418358 S    
C45   C49   1.444517 A    
C97   O81   1.218718 D    
N7    H74   1.045750 S    
O37   C14   1.428406 S    
P2    C66   1.935489 S    
N19   H105  1.039841 S    
C60   C64   1.411823 A    
C22   C86   1.503971 S    
C95   O77   1.217354 D    
P4    C68   1.925849 S    
C78   H50   1.078551 S    
C21   C85   1.480687 S    
C71   C95   1.458349 S    
C37   C41   1.402817 A    
C17   N1    1.459343 S    
O90   H113  1.014027 S    
C33   C53   1.398287 A    
C6    C10   1.551883 S    
O23   C31   1.405612 S    
N1    H53   1.042576 S    
P1    O17   1.742176 S    
P3    O19   1.743160 S    
O102  H119  0.999538 S    
C36   C40   1.408028 A    
O21   C29   1.403935 S    
C96   O79   1.218432 D    
C35   C39   1.403637 A    
N8    H75   1.044126 S    
O10   P13   1.744148 S    
C70   C94   1.463491 S    
C88   O63   1.217106 D    
C31   H35   1.112043 S    
C107  O102  1.367911 S    
N23   H126  1.038926 S    
P10   C37   1.868994 S    
C27   N7    1.459569 S    
C84   O56   1.391985 S    
C59   C75   1.436356 A    
C16   C20   1.595279 S    
C60   C76   1.432186 A    
C46   C76   1.578964 S    
Ba1   O45   2.897410 S    
C19   C83   1.508562 S    
C25   H25   1.113598 S    
O17   C21   1.393106 S    
C43   H43   1.067136 S    
C103  O94   1.398597 S    
O76   H98   1.011781 S    
P10   O30   1.756281 S    
P2    O2    1.604481 D    
P11   O43   1.760484 S    
P12   O36   1.547004 D    
C71   C75   1.459064 A    
C21   H21   1.109891 S    
O38   C13   1.429975 S    
P9    C38   1.863168 S    
C45   C75   1.580481 S    
C4    H8    1.108263 S    
N10   H80   1.043781 S    
P1    Ba1   3.467410 S    
O74   H97   1.009940 S    
C14   N22   1.447413 S    
O80   H100  1.011856 S    
O29   Ba1   2.872568 S    
P15   C64   1.871315 S    
C19   H19   1.109783 S    
O7    Ba4   2.898309 S    
O20   C24   1.412480 S    
Ba1   O46   3.052854 S    
C12   C104  1.526685 S    
Ba3   Ba4   4.824094 S    
C65   C69   1.437977 A    
C23   C87   1.485451 S    
C84   O55   1.222520 D    
C98   O84   1.399039 S    
C8    H12   1.115909 S    
C4    H40   1.109514 S    
C2    C30   1.536416 S    
C35   C55   1.397321 A    
O68   H86   1.005558 S    
N2    H56   1.047581 S    
C91   O70   1.395668 S    
C51   C55   1.418145 A    
O32   Ba4   2.882644 S    
P2    O6    1.593273 S    
H4    C32   1.104393 S    
N22   H123  1.043347 S    
P11   O31   1.756194 S    
C108  O103  1.206102 D    
C16   C108  1.467450 S    
P12   O32   1.757110 S    
C26   H26   1.098792 S    
P11   C40   1.866244 S    
N24   H128  1.043693 S    
C2    H6    1.107968 S    
C4    N12   1.460097 S    
O11   Ba3   2.882795 S    
C82   O52   1.391590 S    
C106  O99   1.206185 D    
O18   C22   1.412077 S    
C63   C79   1.393457 A    
C57   C73   1.437167 A    
N14   H91   1.037013 S    
C61   C77   1.394116 A    
C83   O54   1.393927 S    
P14   C61   1.871812 S    
N21   H121  1.044244 S    
C66   C78   1.397524 A    
N16   H96   1.045160 S    
C64   C80   1.392943 A    
C22   H22   1.113693 S    
N12   H83   1.042126 S    
C50   C54   1.413949 A    
C25   N5    1.460047 S    
P2    Ba2   3.467742 S    
N4    H59   1.039972 S    
C42   C46   1.424243 A    
O58   H65   1.012319 S    
C101  O89   1.222311 D    
O30   Ba2   2.882644 S    
C27   H27   1.112963 S    
C10   C90   1.496054 S    
C102  O91   1.217587 D    
N9    H78   1.044045 S    
P7    O48   1.599734 S    
C90   O67   1.221480 D    
