data_mof_unit_63202.cif
_audit_creation_date              2012-12-10T19:31:08-0500
_audit_creation_method            fapswitch 2.2
_symmetry_space_group_name_H-M    P1
_symmetry_Int_Tables_number       1
_space_group_crystal_system       triclinic
_cell_length_a                    30.508073
_cell_length_b                    29.125896
_cell_length_c                    30.81199
_cell_angle_alpha                 90.40764
_cell_angle_beta                  90.016612
_cell_angle_gamma                 89.797476
_cell_volume                      27377.8978992

loop_
_atom_site_label
_atom_site_type_symbol
_atom_type_description
_atom_site_fract_x
_atom_site_fract_y
_atom_site_fract_z
_atom_type_partial_charge
C1    C     C_R   0.309876 0.998412 0.690396 0.874275
C2    C     C_R   0.635296 0.028182 0.585685 -0.173007
C3    C     C_R   0.750384 0.085729 0.249697 0.914983
C4    C     C_R   0.249968 0.414263 0.249969 0.868972
C5    C     C_R   0.749913 0.585735 0.250121 0.872053
C6    C     C_R   0.750021 0.414265 0.249806 0.918602
C7    C     C_R   0.250243 0.585734 0.249845 0.919926
C8    C     C_R   0.122340 0.031459 0.901804 0.093413
C9    C     C_R   0.886795 0.961038 0.892536 0.125451
C10   C     C_R   0.627999 0.523490 0.909072 0.043986
C11   C     C_R   0.386408 0.461142 0.893004 0.083215
C12   C     C_R   0.610261 0.960009 0.389324 0.133014
C13   C     C_R   0.883501 0.543814 0.605596 -0.138213
C14   C     C_R   0.378275 0.034477 0.401163 0.087227
C15   C     C_R   0.121614 0.465730 0.400984 0.129115
C16   C     C_R   0.876185 0.530102 0.403260 0.077106
C17   C     C_3   0.140936 0.073606 0.923379 -0.123571
C18   C     C_3   0.862980 0.927054 0.920462 -0.141673
C19   C     C_3   0.635714 0.573778 0.917359 -0.142440
C20   C     C_3   0.361759 0.428190 0.921427 -0.130755
C21   C     C_3   0.631531 0.922072 0.414791 -0.134583
C22   C     C_3   0.347717 0.056548 0.433926 -0.132225
C23   C     C_3   0.152081 0.444480 0.434012 -0.126434
C24   C     C_R   0.087701 0.532095 0.631579 -0.153404
C25   C     C_3   0.854084 0.567694 0.429004 -0.146172
C26   C     C_3   0.178115 0.070455 0.889324 -0.536596
C27   C     C_3   0.826497 0.928114 0.886098 -0.559610
C28   C     C_3   0.674033 0.569712 0.885436 -0.559983
C29   C     C_3   0.325666 0.428936 0.886725 -0.552040
C30   C     C_3   0.668996 0.923915 0.381517 -0.562565
C31   C     C_3   0.313072 0.056259 0.397771 -0.513121
C32   C     C_3   0.186963 0.444439 0.398196 -0.511574
C33   C     C_3   0.817305 0.565315 0.394456 -0.532532
C34   C     C_R   0.940391 0.999999 0.938088 0.939983
C35   C     C_R   0.870221 0.035279 0.090937 -0.164736
C36   C     C_R   0.059009 0.999837 0.937865 0.984657
C37   C     C_R   0.440114 0.500054 0.938327 0.940814
C38   C     C_R   0.557987 0.499731 0.936925 0.956875
C39   C     C_R   0.439876 0.999936 0.438715 0.972936
C40   C     C_R   0.559125 0.999895 0.437654 0.906680
C41   C     C_R   0.940717 0.499789 0.438123 0.961001
C42   C     C_R   0.059683 0.499937 0.438364 0.970443
C43   C     C_R   0.439314 0.000572 0.560788 0.956025
C44   C     C_R   0.563079 0.000141 0.558082 0.909152
C45   C     C_R   0.938479 0.500473 0.560226 0.967261
C46   C     C_R   0.086036 0.029956 0.133049 -0.156428
C47   C     C_R   0.058506 0.500140 0.562638 0.953467
C48   C     C_R   0.937186 0.000327 0.058481 0.987111
C49   C     C_R   0.058428 0.000127 0.062669 0.971341
C50   C     C_R   0.437019 0.500319 0.058304 0.995836
C51   C     C_R   0.559167 0.500159 0.061952 0.980873
C52   C     C_R   0.189986 0.998407 0.809607 0.935577
C53   C     C_R   0.810072 0.000443 0.809679 0.921990
C54   C     C_R   0.689955 0.498573 0.809862 0.923136
C55   C     C_R   0.310057 0.500290 0.809670 0.919950
C56   C     C_R   0.689885 0.000525 0.309702 0.914742
C57   C     C_R   0.370462 0.535701 0.091248 -0.167683
C58   C     C_R   0.310114 0.998569 0.309634 0.933539
C59   C     C_R   0.189899 0.501176 0.309692 0.935766
C60   C     C_R   0.810005 0.498632 0.309631 0.932479
C61   C     C_1   0.250202 0.863434 0.749661 -0.168273
C62   C     C_1   0.749553 0.136560 0.750085 -0.133734
C63   C     C_1   0.750345 0.863443 0.749789 -0.180746
C64   C     C_1   0.250151 0.136558 0.750049 -0.179821
C65   C     C_1   0.750042 0.363439 0.749782 -0.165239
C66   C     C_1   0.249549 0.636559 0.750061 -0.135635
C67   C     C_1   0.250320 0.363445 0.749753 -0.183342
C68   C     C_R   0.583176 0.524225 0.135284 -0.159075
C69   C     C_1   0.750156 0.636557 0.750055 -0.178800
C70   C     C_1   0.749812 0.863444 0.250013 -0.183029
C71   C     C_1   0.249712 0.136558 0.250289 -0.178005
C72   C     C_1   0.250267 0.863443 0.249645 -0.145327
C73   C     C_1   0.750863 0.136553 0.249366 -0.173938
C74   C     C_1   0.249841 0.363443 0.249982 -0.180694
C75   C     C_1   0.749719 0.636559 0.250307 -0.178940
C76   C     C_1   0.750316 0.363441 0.249600 -0.143263
C77   C     C_1   0.250449 0.636558 0.249783 -0.167914
C78   C     C_1   0.250085 0.821123 0.749714 0.017754
C79   C     C_R   0.406629 0.002568 0.593892 -0.149652
C80   C     C_1   0.749564 0.178874 0.750094 0.030269
C81   C     C_1   0.750408 0.821128 0.749798 0.022958
C82   C     C_1   0.250235 0.178873 0.750002 0.025692
C83   C     C_1   0.749919 0.321128 0.749835 0.020044
C84   C     C_1   0.249594 0.678873 0.750051 0.028178
C85   C     C_1   0.250378 0.321130 0.749754 0.021331
C86   C     C_1   0.750248 0.678871 0.750017 0.026544
C87   C     C_1   0.749733 0.821131 0.250098 0.021233
C88   C     C_1   0.249656 0.178874 0.250311 0.024025
C89   C     C_1   0.250396 0.821129 0.249607 0.024831
C90   C     C_R   0.597397 0.000271 0.589541 -0.137698
C91   C     C_1   0.750981 0.178866 0.249268 0.018968
C92   C     C_1   0.249765 0.321129 0.250054 0.022558
C93   C     C_1   0.749656 0.678875 0.250341 0.024009
C94   C     C_1   0.750549 0.321126 0.249471 0.026644
C95   C     C_1   0.250503 0.678871 0.249732 0.021737
C96   C     C_1   0.249898 0.771155 0.749841 0.031279
C97   C     C_1   0.749660 0.228844 0.750026 0.031594
C98   C     C_1   0.750393 0.771157 0.749868 0.032014
C99   C     C_1   0.250318 0.228844 0.749910 0.032633
C100  C     C_1   0.749770 0.271159 0.749939 0.031626
C101  C     C_R   0.902298 0.501843 0.590237 -0.128969
C102  C     C_1   0.249743 0.728842 0.749954 0.030201
C103  C     C_1   0.250366 0.271159 0.749828 0.031034
C104  C     C_1   0.750340 0.728842 0.749941 0.033269
C105  C     C_1   0.749672 0.771161 0.250212 0.030646
C106  C     C_1   0.249661 0.228845 0.250250 0.030869
C107  C     C_1   0.250477 0.771157 0.249628 0.029029
C108  C     C_1   0.750917 0.228837 0.249286 0.037135
C109  C     C_1   0.249697 0.271159 0.250165 0.030488
C110  C     C_1   0.749647 0.728846 0.250293 0.031257
C111  C     C_1   0.750779 0.271153 0.249353 0.031739
C112  C     C_R   0.689955 0.000521 0.690096 0.871206
C113  C     C_R   0.090861 0.501105 0.596020 -0.165757
C114  C     C_1   0.250506 0.728841 0.249671 0.032426
C115  C     C_R   0.371013 0.964196 0.651966 0.115257
C116  C     C_R   0.623543 0.970010 0.657132 0.114926
C117  C     C_R   0.855273 0.459343 0.637861 0.105174
C118  C     C_R   0.162023 0.476569 0.619577 0.157632
C119  C     C_R   0.880874 0.975978 0.161420 0.147603
C120  C     C_R   0.163124 0.979670 0.118318 0.142315
C121  C     C_R   0.380450 0.475301 0.160996 0.144994
C122  C     C_R   0.665860 0.487819 0.115451 0.143661
C123  C     C_R   0.342418 0.000222 0.658332 -0.060059
C124  C     C_R   0.904461 0.002097 0.091584 -0.120718
C125  C     C_R   0.657844 0.001067 0.656619 -0.076929
C126  C     C_R   0.842108 0.500026 0.657454 -0.047174
C127  C     C_R   0.157237 0.502584 0.657239 -0.081617
C128  C     C_R   0.843521 0.003052 0.158137 -0.069963
C129  C     C_R   0.157068 0.002902 0.157353 -0.073405
C130  C     C_R   0.343488 0.502994 0.158131 -0.071188
C131  C     C_R   0.656993 0.503784 0.157176 -0.087833
C132  C     C_R   0.345994 0.039251 0.632484 -0.295796
C133  C     C_R   0.665418 0.027793 0.619790 -0.278491
C134  C     C_R   0.853386 0.542139 0.639551 -0.298435
C135  C     C_R   0.090650 0.001056 0.096129 -0.148912
C136  C     C_R   0.121338 0.532141 0.662367 -0.294141
C137  C     C_R   0.839331 0.034669 0.124432 -0.288804
C138  C     C_R   0.119685 0.030132 0.163882 -0.285537
C139  C     C_R   0.339633 0.535094 0.124802 -0.287971
C140  C     C_R   0.616587 0.524759 0.166346 -0.287744
C141  C     C_2   0.381719 0.085176 0.576195 1.007726
C142  C     C_2   0.644646 0.058664 0.548006 0.957742
C143  C     C_2   0.895189 0.589921 0.588966 1.020716
C144  C     C_2   0.048264 0.561227 0.639654 0.979842
C145  C     C_2   0.863719 0.068282 0.054676 0.980310
C146  C     C_R   0.404298 0.502055 0.091444 -0.123790
C147  C     C_2   0.045290 0.056612 0.142252 0.972943
C148  C     C_2   0.364276 0.569231 0.055371 0.980494
C149  C     C_2   0.539608 0.544041 0.146814 0.965809
C150  C     C_2   0.122425 0.927205 0.803884 0.995695
C151  C     C_2   0.866577 0.080517 0.814872 0.957274
C152  C     C_2   0.619371 0.431036 0.800600 0.988614
C153  C     C_2   0.365885 0.580762 0.815402 0.954243
C154  C     C_2   0.636477 0.082603 0.318738 0.956238
C155  C     C_2   0.378968 0.928401 0.303959 0.917884
C156  C     C_2   0.122227 0.572000 0.305521 0.974055
C157  C     C_R   0.591215 0.501300 0.095380 -0.151752
C158  C     C_2   0.879081 0.428072 0.303061 0.925298
C159  C     C_2   0.052020 0.930233 0.868419 0.994374
C160  C     C_2   0.939535 0.077399 0.876283 1.055783
C161  C     C_2   0.548997 0.434148 0.865264 0.990670
C162  C     C_2   0.437222 0.579047 0.878215 1.058234
C163  C     C_2   0.562023 0.079522 0.378210 1.054137
C164  C     C_2   0.449318 0.932786 0.368213 1.060936
C165  C     C_2   0.053337 0.570370 0.370836 1.045555
C166  C     C_2   0.947008 0.428680 0.369820 1.050461
C167  C     C_2   0.112744 0.116083 0.918506 0.918275
C168  C     C_R   0.401246 0.964994 0.620587 0.121764
C169  C     C_2   0.886027 0.880998 0.922720 0.962120
C170  C     C_2   0.848897 0.946385 0.964192 0.914959
C171  C     C_2   0.156891 0.065849 0.969164 0.911508
C172  C     C_2   0.598947 0.604448 0.901104 0.966406
C173  C     C_2   0.383875 0.381749 0.925049 0.958680
C174  C     C_2   0.347467 0.448834 0.964570 0.917464
C175  C     C_2   0.650180 0.583875 0.963428 0.955501
C176  C     C_2   0.645280 0.936163 0.460260 0.895971
C177  C     C_2   0.335774 0.026726 0.472195 0.901130
C178  C     C_2   0.360897 0.104459 0.447498 0.966125
C179  C     C_R   0.593818 0.969483 0.623784 0.169163
C180  C     C_2   0.606015 0.877608 0.412564 0.960777
C181  C     C_2   0.165245 0.474656 0.472200 0.864663
C182  C     C_2   0.838780 0.553321 0.473549 0.960528
C183  C     C_2   0.877921 0.613086 0.429302 0.965098
C184  C     C_2   0.138500 0.396758 0.447392 0.892836
C185  C     C_R   0.885532 0.460247 0.604997 0.160486
C186  C     C_R   0.128808 0.475333 0.589601 0.113266
C187  C     C_R   0.910670 0.975058 0.128162 0.163548
C188  C     C_R   0.809926 0.498941 0.690271 0.871692
C189  C     C_R   0.129980 0.978221 0.088429 0.100424
C190  C     C_R   0.410142 0.474374 0.127654 0.191106
C191  C     C_R   0.633209 0.486337 0.085023 0.121840
C192  C     C_3   0.417479 0.917808 0.630162 -0.443996
C193  C     C_3   0.556099 0.961476 0.653681 -0.508132
C194  C     C_3   0.908822 0.418650 0.621546 -0.442012
C195  C     C_3   0.133785 0.424779 0.582452 -0.417137
C196  C     C_3   0.917690 0.924466 0.131822 -0.445743
C197  C     C_3   0.138601 0.929086 0.077180 -0.435791
C198  C     C_3   0.416457 0.423632 0.130661 -0.440278
C199  C     C_R   0.189922 0.500064 0.690108 0.864623
C200  C     C_3   0.648422 0.441303 0.067068 -0.450632
C201  C     C_3   0.382400 0.916911 0.666108 -0.503408
C202  C     C_3   0.589014 0.962419 0.690634 -0.454693
C203  C     C_3   0.875293 0.417745 0.657899 -0.518165
C204  C     C_3   0.170912 0.426289 0.615142 -0.471452
C205  C     C_3   0.884757 0.925493 0.168749 -0.508080
C206  C     C_3   0.175448 0.930649 0.110289 -0.495524
C207  C     C_3   0.383632 0.424659 0.167683 -0.514809
C208  C     C_3   0.684683 0.442885 0.100813 -0.477691
C209  C     C_R   0.155041 0.028803 0.873095 0.044617
C210  C     C_R   0.810153 0.999930 0.190199 0.866985
C211  C     C_R   0.854177 0.961924 0.862420 0.049526
C212  C     C_R   0.661658 0.520338 0.880061 0.098665
C213  C     C_R   0.353928 0.461885 0.862657 0.049128
C214  C     C_R   0.643499 0.961152 0.359873 0.049043
C215  C     C_R   0.346868 0.033737 0.369833 0.021912
C216  C     C_R   0.153258 0.466298 0.369852 0.023717
C217  C     C_R   0.843718 0.527717 0.374315 0.039168
C218  C     C_R   0.156613 0.995492 0.841370 -0.138432
C219  C     C_R   0.843951 0.002241 0.841184 -0.106683
C220  C     C_R   0.657366 0.493757 0.842785 -0.132088
C221  C     C_R   0.189887 0.000154 0.190118 0.866964
C222  C     C_R   0.343861 0.502117 0.841199 -0.101755
C223  C     C_R   0.655850 0.002156 0.341162 -0.098692
C224  C     C_R   0.344093 0.997143 0.341130 -0.120016
C225  C     C_R   0.156031 0.502668 0.341324 -0.130326
C226  C     C_R   0.843351 0.495611 0.341420 -0.116712
C227  C     C_R   0.122457 0.962578 0.838839 -0.117235
C228  C     C_R   0.873182 0.039843 0.843098 -0.087817
C229  C     C_R   0.621586 0.463288 0.838129 -0.119198
C230  C     C_R   0.372669 0.539995 0.843483 -0.089543
C231  C     C_R   0.627776 0.040764 0.344467 -0.088609
C232  C     C_R   0.310145 0.499924 0.190202 0.869308
C233  C     C_R   0.378721 0.964653 0.338272 -0.112205
C234  C     C_R   0.121765 0.535479 0.339015 -0.091622
C235  C     C_R   0.878119 0.463150 0.338418 -0.120593
C236  C     C_R   0.088257 0.964276 0.870107 -0.151954
C237  C     C_R   0.908194 0.038415 0.873130 -0.218580
C238  C     C_R   0.587471 0.465158 0.869169 -0.128338
C239  C     C_R   0.407304 0.538926 0.873885 -0.206739
C240  C     C_R   0.592243 0.039392 0.373895 -0.225911
C241  C     C_R   0.412481 0.966465 0.369607 -0.254454
C242  C     C_R   0.088039 0.534166 0.370338 -0.245770
C243  C     C_R   0.689846 0.500330 0.190053 0.869289
C244  C     C_R   0.911799 0.464321 0.370221 -0.249990
C245  C     C_R   0.089253 0.999141 0.902731 -0.150589
C246  C     C_R   0.911764 0.999959 0.901088 -0.163238
C247  C     C_R   0.589984 0.498160 0.903163 -0.169095
C248  C     C_R   0.411241 0.500205 0.901536 -0.163249
C249  C     C_R   0.587084 0.999771 0.400073 -0.157463
C250  C     C_R   0.409802 0.999904 0.403195 -0.169550
C251  C     C_R   0.089803 0.499987 0.402925 -0.129410
C252  C     C_R   0.910283 0.498815 0.403225 -0.123187
C253  C     C_R   0.250210 0.914261 0.749745 0.912971
C254  C     C_R   0.378704 0.041585 0.600673 -0.129599
C255  C     C_R   0.749741 0.085733 0.749946 0.925163
C256  C     C_R   0.750118 0.914266 0.749919 0.871922
C257  C     C_R   0.250030 0.085737 0.750042 0.873281
C258  C     C_R   0.750131 0.414262 0.749815 0.912805
C259  C     C_R   0.249726 0.585732 0.749929 0.925297
C260  C     C_R   0.250104 0.414266 0.749904 0.865451
C261  C     C_R   0.750030 0.585737 0.750044 0.871142
C262  C     C_R   0.749956 0.914263 0.249981 0.865378
C263  C     C_R   0.249908 0.085734 0.250115 0.873092
C264  C     C_R   0.250023 0.914266 0.249818 0.916436
H1    H     H_    0.324075 0.068171 0.637844 0.161081
H2    H     H_    0.532530 0.990698 0.654506 0.204044
H3    H     H_    0.541079 0.927159 0.648474 0.210696
H4    H     H_    0.451639 0.917871 0.642730 0.197359
H5    H     H_    0.906028 0.388977 0.598838 0.214508
H6    H     H_    0.104912 0.405044 0.593887 0.206886
H7    H     H_    0.144819 0.416158 0.549046 0.242108
H8    H     H_    0.942635 0.426228 0.632990 0.211223
H9    H     H_    0.905980 0.905183 0.102792 0.235999
H10   H     H_    0.111236 0.906096 0.086622 0.214675
H11   H     H_    0.150408 0.924805 0.043259 0.224236
H12   H     H_    0.693776 0.050118 0.618804 0.169191
H13   H     H_    0.951519 0.915911 0.142549 0.211615
H14   H     H_    0.404404 0.404945 0.101425 0.234415
H15   H     H_    0.624477 0.413207 0.072441 0.214944
H16   H     H_    0.660656 0.444373 0.033234 0.224036
H17   H     H_    0.450192 0.414411 0.141191 0.216806
H18   H     H_    0.355511 0.892126 0.659648 0.206198
H19   H     H_    0.584757 0.992346 0.712877 0.220742
H20   H     H_    0.592819 0.928699 0.706905 0.210194
H21   H     H_    0.396228 0.916321 0.699478 0.217661
H22   H     H_    0.853119 0.387584 0.656166 0.211764
H23   H     H_    0.839287 0.573601 0.652584 0.152934
H24   H     H_    0.163856 0.407035 0.645383 0.193804
H25   H     H_    0.203550 0.419240 0.600463 0.238459
H26   H     H_    0.889551 0.424809 0.690488 0.221871
H27   H     H_    0.853938 0.906734 0.161265 0.209390
H28   H     H_    0.169597 0.908502 0.138961 0.200230
H29   H     H_    0.208531 0.927259 0.095477 0.220657
H30   H     H_    0.899581 0.917592 0.200810 0.221121
H31   H     H_    0.352529 0.406488 0.160050 0.210522
H32   H     H_    0.681879 0.415705 0.125829 0.200285
H33   H     H_    0.717866 0.446796 0.086444 0.219849
H34   H     H_    0.118707 0.553446 0.691258 0.168052
H35   H     H_    0.398422 0.416079 0.199600 0.223365
H36   H     H_    0.178015 0.098307 0.864801 0.207694
H37   H     H_    0.822852 0.895689 0.867157 0.206161
H38   H     H_    0.794837 0.943257 0.897078 0.249297
H39   H     H_    0.210999 0.061925 0.902695 0.224857
H40   H     H_    0.670079 0.589449 0.854880 0.217676
H41   H     H_    0.321847 0.396176 0.868343 0.204754
H42   H     H_    0.294050 0.444636 0.897119 0.248684
H43   H     H_    0.706997 0.573200 0.900526 0.217733
H44   H     H_    0.700877 0.936387 0.394473 0.247326
H45   H     H_    0.811020 0.057249 0.123382 0.166006
H46   H     H_    0.284419 0.033533 0.403146 0.255476
H47   H     H_    0.304205 0.090807 0.385263 0.211797
H48   H     H_    0.671818 0.892991 0.360287 0.207948
H49   H     H_    0.215338 0.467493 0.404390 0.230401
H50   H     H_    0.785273 0.552637 0.406655 0.227449
H51   H     H_    0.815028 0.595684 0.372863 0.210514
H52   H     H_    0.196260 0.409745 0.385899 0.213758
H53   H     H_    0.319055 0.081672 0.555193 0.323870
H54   H     H_    0.709135 0.041459 0.545124 0.303596
H55   H     H_    0.913157 0.613931 0.648040 0.322068
H56   H     H_    0.115990 0.049630 0.193770 0.170901
H57   H     H_    0.083354 0.616998 0.658019 0.304688
H58   H     H_    0.846924 0.121369 0.094292 0.308021
H59   H     H_    0.077658 0.112886 0.163983 0.308183
H60   H     H_    0.348293 0.622066 0.095610 0.307605
H61   H     H_    0.565002 0.600612 0.175912 0.307487
H62   H     H_    0.155698 0.877446 0.772177 0.346204
H63   H     H_    0.893167 0.125968 0.773497 0.354979
H64   H     H_    0.649903 0.382422 0.764743 0.348562
H65   H     H_    0.392429 0.626872 0.774654 0.355015
H66   H     H_    0.678440 0.133335 0.304402 0.344206
H67   H     H_    0.311605 0.558076 0.124076 0.165221
H68   H     H_    0.413341 0.893945 0.258190 0.358305
H69   H     H_    0.156222 0.621838 0.275678 0.346041
H70   H     H_    0.914551 0.394764 0.257360 0.358593
H71   H     H_    0.034231 0.863735 0.864076 0.360440
H72   H     H_    0.992416 0.037108 0.865213 0.315073
H73   H     H_    0.483220 0.427961 0.863533 0.377507
H74   H     H_    0.491603 0.541456 0.866118 0.329376
H75   H     H_    0.507888 0.041647 0.366546 0.311569
H76   H     H_    0.409733 0.877902 0.375114 0.302310
H77   H     H_    0.004098 0.525096 0.363725 0.313835
H78   H     H_    0.610459 0.539313 0.198256 0.177340
H79   H     H_    0.904424 0.376065 0.375208 0.304071
H80   H     H_    0.054745 0.143608 0.900645 0.368709
H81   H     H_    0.941365 0.844171 0.912982 0.343095
H82   H     H_    0.812724 0.993282 0.996866 0.362897
H83   H     H_    0.162140 0.023336 0.019940 0.341824
H84   H     H_    0.559144 0.621605 0.851416 0.382535
H85   H     H_    0.438634 0.343547 0.917142 0.353062
H86   H     H_    0.311498 0.497014 0.995774 0.363825
H87   H     H_    0.653611 0.562988 0.025602 0.342707
H88   H     H_    0.679655 0.979672 0.497912 0.344979
H89   H     H_    0.410956 0.893336 0.603095 0.218593
H90   H     H_    0.288208 0.998350 0.508635 0.346731
H91   H     H_    0.341676 0.165427 0.472549 0.369424
H92   H     H_    0.548661 0.845917 0.399831 0.361313
H93   H     H_    0.154931 0.531891 0.508104 0.348996
H94   H     H_    0.799690 0.567157 0.524798 0.350545
H95   H     H_    0.875220 0.680847 0.443012 0.356308
H96   H     H_    0.091026 0.348795 0.449839 0.349826
O1    O     O_R   0.321670 0.000000 0.730060 -0.615520
O2    O     O_R   0.730060 0.000000 0.678340 -0.615850
O3    O     O_R   0.687216 0.063384 0.531748 -0.736456
O4    O     O_2   0.891008 0.598366 0.550451 -0.545663
O5    O     O_R   0.909488 0.624691 0.617044 -0.733004
O6    O     O_2   0.011735 0.545814 0.632733 -0.610316
O7    O     O_R   0.051967 0.605972 0.655999 -0.741375
O8    O     O_2   0.870995 0.056356 0.017309 -0.564924
O9    O     O_R   0.848747 0.113063 0.062371 -0.737354
O10   O     O_2   0.009563 0.039920 0.134017 -0.605851
O11   O     O_R   0.046839 0.100426 0.161067 -0.744251
O12   O     O_2   0.371265 0.557647 0.017857 -0.565133
O13   O     O_R   0.769940 0.500000 0.678340 -0.610306
O14   O     O_R   0.349915 0.614127 0.063598 -0.736789
O15   O     O_2   0.506168 0.524258 0.135796 -0.617039
O16   O     O_R   0.535922 0.584780 0.170876 -0.746441
O17   O     O_2   0.089675 0.921345 0.781652 -0.588839
O18   O     O_R   0.159892 0.900600 0.796535 -0.808907
O19   O     O_2   0.830376 0.098393 0.812226 -0.634003
O20   O     O_R   0.901796 0.098319 0.791430 -0.771841
O21   O     O_2   0.586277 0.429119 0.778259 -0.583354
O22   O     O_R   0.655313 0.402955 0.790894 -0.810254
O23   O     O_2   0.329526 0.598229 0.812495 -0.632524
O24   O     O_R   0.230060 0.500000 0.678340 -0.611380
O25   O     O_R   0.401168 0.599198 0.792502 -0.773441
O26   O     O_2   0.607678 0.098911 0.295867 -0.588767
O27   O     O_R   0.677394 0.103733 0.321437 -0.791837
O28   O     O_2   0.345755 0.906353 0.296449 -0.644185
O29   O     O_R   0.417273 0.919405 0.280445 -0.757096
O30   O     O_2   0.089400 0.579617 0.283909 -0.586241
O31   O     O_R   0.160136 0.597802 0.299013 -0.809121
O32   O     O_2   0.845942 0.406577 0.293955 -0.643312
O33   O     O_R   0.918016 0.419449 0.280459 -0.754776
O34   O     O_2   0.013895 0.943240 0.870065 -0.621433
O35   O     O_R   0.769940 0.000000 0.178340 -0.612214
O36   O     O_R   0.061596 0.883376 0.864910 -0.769966
O37   O     O_2   0.925860 0.116276 0.882861 -0.532431
O38   O     O_R   0.984655 0.070237 0.871986 -0.719050
O39   O     O_2   0.554473 0.392835 0.860236 -0.583986
O40   O     O_R   0.506599 0.452301 0.867253 -0.830195
O41   O     O_2   0.422066 0.617129 0.885749 -0.526672
O42   O     O_R   0.482579 0.573939 0.873976 -0.746126
O43   O     O_2   0.576829 0.117661 0.385677 -0.519319
O44   O     O_R   0.516667 0.074256 0.374095 -0.727712
O45   O     O_2   0.486945 0.946575 0.365453 -0.566787
O46   O     O_R   0.230060 0.000000 0.178340 -0.613847
O47   O     O_R   0.441740 0.885551 0.370364 -0.733900
O48   O     O_2   0.063727 0.610719 0.373745 -0.531189
O49   O     O_R   0.008953 0.559125 0.368156 -0.720887
O50   O     O_2   0.985391 0.440190 0.368309 -0.582437
O51   O     O_R   0.936908 0.381939 0.371411 -0.731649
O52   O     O_2   0.127745 0.153680 0.928149 -0.570020
O53   O     O_R   0.070011 0.112707 0.902416 -0.741074
O54   O     O_2   0.866121 0.847504 0.935912 -0.590369
O55   O     O_R   0.929820 0.876655 0.909823 -0.765120
O56   O     O_2   0.861266 0.928340 0.997802 -0.615992
O57   O     O_R   0.269940 0.500000 0.178340 -0.612356
O58   O     O_R   0.821575 0.985011 0.966077 -0.760719
O59   O     O_2   0.178869 0.095335 0.987289 -0.567791
O60   O     O_R   0.147632 0.024811 0.990429 -0.828121
O61   O     O_2   0.582775 0.633735 0.924897 -0.572165
O62   O     O_R   0.583358 0.599007 0.858672 -0.776349
O63   O     O_2   0.363083 0.349011 0.938593 -0.585210
O64   O     O_R   0.427796 0.376177 0.913088 -0.794991
O65   O     O_2   0.359257 0.431505 0.998718 -0.618882
O66   O     O_R   0.320628 0.487867 0.965283 -0.759690
O67   O     O_2   0.668300 0.620247 0.971876 -0.581990
O68   O     O_R   0.730060 0.500000 0.178340 -0.617271
O69   O     O_R   0.642607 0.551989 0.996288 -0.818824
O70   O     O_2   0.633589 0.913790 0.491640 -0.600551
O71   O     O_R   0.671415 0.974984 0.466362 -0.775802
O72   O     O_2   0.364510 0.011520 0.495680 -0.684677
O73   O     O_R   0.291802 0.018022 0.481861 -0.777359
O74   O     O_2   0.398896 0.117138 0.443898 -0.566681
O75   O     O_R   0.329170 0.134330 0.464419 -0.746730
O76   O     O_2   0.624060 0.841501 0.422113 -0.584466
O77   O     O_R   0.561991 0.877749 0.399855 -0.737396
O78   O     O_2   0.196650 0.463466 0.494487 -0.590539
O79   O     O_R   0.275870 0.936860 0.775860 -0.597686
O80   O     O_R   0.142624 0.515269 0.481800 -0.816687
O81   O     O_2   0.853572 0.518773 0.490606 -0.658288
O82   O     O_R   0.807344 0.579918 0.495231 -0.726552
O83   O     O_2   0.915713 0.615697 0.416319 -0.563287
O84   O     O_R   0.856187 0.652427 0.444310 -0.733971
O85   O     O_2   0.164967 0.371632 0.465378 -0.588779
O86   O     O_R   0.095951 0.381228 0.439205 -0.762455
O87   O     O_R   0.724130 0.063140 0.775860 -0.591881
O88   O     O_R   0.724130 0.936860 0.775860 -0.601854
O89   O     O_R   0.678330 0.000000 0.730060 -0.621908
O90   O     O_R   0.275870 0.063140 0.775860 -0.596464
O91   O     O_R   0.775870 0.436860 0.775860 -0.599610
O92   O     O_R   0.224130 0.563140 0.775860 -0.592545
O93   O     O_R   0.224130 0.436860 0.775860 -0.598743
O94   O     O_R   0.775870 0.563140 0.775860 -0.597547
O95   O     O_R   0.775870 0.936860 0.275860 -0.601775
O96   O     O_R   0.224130 0.063140 0.275860 -0.598751
O97   O     O_R   0.224130 0.936860 0.275860 -0.601124
O98   O     O_R   0.775870 0.063140 0.275860 -0.580766
O99   O     O_R   0.275870 0.436860 0.275860 -0.600421
O100  O     O_R   0.821670 0.500000 0.730060 -0.615563
O101  O     O_R   0.724130 0.563140 0.275860 -0.598522
O102  O     O_R   0.724130 0.436860 0.275860 -0.601237
O103  O     O_R   0.275870 0.563140 0.275860 -0.591036
O104  O     O_R   0.224140 0.936870 0.724140 -0.595094
O105  O     O_R   0.775860 0.063130 0.724140 -0.598467
O106  O     O_R   0.775860 0.936870 0.724140 -0.591128
O107  O     O_R   0.224140 0.063130 0.724140 -0.594062
O108  O     O_R   0.724140 0.436870 0.724140 -0.592593
O109  O     O_R   0.275860 0.563130 0.724140 -0.596087
O110  O     O_R   0.275860 0.436870 0.724140 -0.594704
O111  O     O_R   0.178330 0.500000 0.730060 -0.615658
O112  O     O_R   0.724140 0.563130 0.724140 -0.591632
O113  O     O_R   0.724140 0.936870 0.224140 -0.592652
O114  O     O_R   0.275860 0.063130 0.224140 -0.592725
O115  O     O_R   0.275860 0.936870 0.224140 -0.585768
O116  O     O_R   0.724140 0.063130 0.224140 -0.598271
O117  O     O_R   0.224140 0.436870 0.224140 -0.592037
O118  O     O_R   0.775860 0.563130 0.224140 -0.593869
O119  O     O_R   0.775860 0.436870 0.224140 -0.584193
O120  O     O_R   0.224140 0.563130 0.224140 -0.595604
O121  O     O_R   0.230060 0.000000 0.821670 -0.603866
O122  O     O_R   0.821670 0.000000 0.230060 -0.613715
O123  O     O_R   0.769940 0.000000 0.821670 -0.593680
O124  O     O_R   0.730060 0.500000 0.821670 -0.607134
O125  O     O_R   0.269940 0.500000 0.821670 -0.593266
O126  O     O_R   0.730060 0.000000 0.321670 -0.586863
O127  O     O_R   0.269940 0.000000 0.321670 -0.614110
O128  O     O_R   0.230060 0.500000 0.321670 -0.608711
O129  O     O_R   0.769940 0.500000 0.321670 -0.610788
O130  O     O_R   0.178330 0.000000 0.769950 -0.610777
O131  O     O_R   0.821670 0.000000 0.769950 -0.614161
O132  O     O_R   0.678330 0.500000 0.769950 -0.601431
O133  O     O_R   0.178330 0.000000 0.230060 -0.615649
O134  O     O_R   0.321670 0.500000 0.769950 -0.614826
O135  O     O_R   0.678330 0.000000 0.269950 -0.615152
O136  O     O_R   0.321670 0.000000 0.269950 -0.602431
O137  O     O_R   0.178330 0.500000 0.269950 -0.608409
O138  O     O_R   0.821670 0.500000 0.269950 -0.601425
O139  O     O_R   0.954170 0.964330 0.954180 -0.586063
O140  O     O_R   0.045830 0.035670 0.954180 -0.587615
O141  O     O_R   0.045830 0.964330 0.954180 -0.621835
O142  O     O_R   0.954170 0.035670 0.954180 -0.600310
O143  O     O_R   0.454170 0.464330 0.954180 -0.592885
O144  O     O_R   0.321670 0.500000 0.230060 -0.611527
O145  O     O_R   0.545830 0.535670 0.954180 -0.594939
O146  O     O_R   0.545830 0.464330 0.954180 -0.621501
O147  O     O_R   0.454170 0.535670 0.954180 -0.598824
O148  O     O_R   0.454170 0.964330 0.454180 -0.623716
O149  O     O_R   0.545830 0.035670 0.454180 -0.600308
O150  O     O_R   0.545830 0.964330 0.454180 -0.593078
O151  O     O_R   0.454170 0.035670 0.454180 -0.563567
O152  O     O_R   0.954170 0.464330 0.454180 -0.629371
O153  O     O_R   0.045830 0.535670 0.454180 -0.606549
O154  O     O_R   0.045830 0.464330 0.454180 -0.578187
O155  O     O_R   0.678330 0.500000 0.230060 -0.616031
O156  O     O_R   0.954170 0.535670 0.454180 -0.572516
O157  O     O_R   0.454180 0.964360 0.545790 -0.630239
O158  O     O_R   0.545820 0.035640 0.545790 -0.578939
O159  O     O_R   0.545820 0.964360 0.545790 -0.619139
O160  O     O_R   0.454180 0.035640 0.545790 -0.588205
O161  O     O_R   0.954180 0.464360 0.545790 -0.638938
O162  O     O_R   0.045820 0.535640 0.545790 -0.604138
O163  O     O_R   0.045820 0.464360 0.545790 -0.638268
O164  O     O_R   0.954180 0.535640 0.545790 -0.588160
O165  O     O_R   0.954180 0.964360 0.045790 -0.626127
O166  O     O_R   0.269940 0.000000 0.678340 -0.614256
O167  O     O_R   0.045820 0.035640 0.045790 -0.610686
O168  O     O_R   0.045820 0.964360 0.045790 -0.634383
O169  O     O_R   0.954180 0.035640 0.045790 -0.594761
O170  O     O_R   0.454180 0.464360 0.045790 -0.623110
O171  O     O_R   0.545820 0.535640 0.045790 -0.603383
O172  O     O_R   0.545820 0.464360 0.045790 -0.634363
O173  O     O_R   0.454180 0.535640 0.045790 -0.599160
O174  O     O_2   0.415328 0.107748 0.577493 -0.542403
O175  O     O_R   0.345317 0.102845 0.554333 -0.745053
O176  O     O_2   0.615559 0.081630 0.531760 -0.523374
Zn1   Zn    Zn3+2 0.284540 0.000000 0.784540 1.003281
Zn2   Zn    Zn3+2 0.784540 0.000000 0.715470 1.017166
Zn3   Zn    Zn3+2 0.715460 0.500000 0.715470 1.027358
Zn4   Zn    Zn3+2 0.284540 0.500000 0.715470 1.019348
Zn5   Zn    Zn3+2 0.715460 0.000000 0.215470 1.021496
Zn6   Zn    Zn3+2 0.284540 0.000000 0.215470 1.023123
Zn7   Zn    Zn3+2 0.215460 0.500000 0.215470 1.023799
Zn8   Zn    Zn3+2 0.784540 0.500000 0.215470 1.019922
Zn9   Zn    Zn3+2 0.000000 0.952400 0.999990 1.051322
Zn10  Zn    Zn3+2 0.000000 0.047600 0.999990 1.113288
Zn11  Zn    Zn3+2 0.500000 0.452400 0.999990 1.050405
Zn12  Zn    Zn3+2 0.715460 0.000000 0.784540 1.008000
Zn13  Zn    Zn3+2 0.500000 0.547600 0.999990 1.131965
Zn14  Zn    Zn3+2 0.500000 0.952400 0.499990 1.061997
Zn15  Zn    Zn3+2 0.500000 0.047600 0.499990 1.174156
Zn16  Zn    Zn3+2 0.000000 0.452400 0.499990 1.045411
Zn17  Zn    Zn3+2 0.000000 0.547600 0.499990 1.139059
Zn18  Zn    Zn3+2 0.784540 0.500000 0.784540 1.002140
Zn19  Zn    Zn3+2 0.215460 0.500000 0.784540 1.016099
Zn20  Zn    Zn3+2 0.784540 0.000000 0.284540 1.024290
Zn21  Zn    Zn3+2 0.215460 0.000000 0.284540 1.004179
Zn22  Zn    Zn3+2 0.284540 0.500000 0.284540 1.010435
Zn23  Zn    Zn3+2 0.715460 0.500000 0.284540 1.003201
Zn24  Zn    Zn3+2 0.215460 0.000000 0.715470 1.018698

loop_
_geom_bond_atom_site_label_1
_geom_bond_atom_site_label_2
_ccdc_geom_bond_type
C154  O27   S    
C99   C103  T    
C105  C110  T    
C151  O20   S    
C36   C245  S    
C96   C102  T    
C257  O107  A    
C35   C124  A    
C159  C236  S    
C140  H78   S    
C16   C252  A    
C202  H20   S    
C122  C191  A    
C149  O15   D    
C242  C251  A    
C264  O97   A    
H88   O71   S    
C48   O165  A    
C176  O70   D    
O108  Zn3   S    
C184  O86   S    
C92   C109  S    
O156  Zn17  S    
C155  C233  S    
C155  O29   S    
C94   C111  S    
C180  O77   S    
O79   Zn1   S    
C192  H4    S    
C181  O80   S    
C74   C92   T    
C2    C90   A    
C30   H44   S    
H57   O7    S    
C131  C140  A    
O171  Zn13  S    
C76   C94   T    
H85   O64   S    
C78   C96   S    
C238  C247  A    
C34   C246  S    
O90   Zn1   S    
C209  C218  A    
C119  C205  S    
C12   C214  A    
C117  C126  A    
C143  O5    S    
C67   C260  S    
C85   C103  S    
C132  C254  A    
C93   C110  S    
C119  C128  A    
O135  Zn5   S    
C240  C249  A    
C200  C208  S    
C133  H12   S    
O157  Zn14  S    
O162  Zn17  S    
C197  C206  S    
C38   O146  A    
C164  C241  S    
C236  C245  A    
C18   C170  S    
C31   H46   S    
C118  C186  A    
C11   C20   S    
C67   C85   T    
C115  C123  A    
C166  O50   D    
C193  H3    S    
H63   O20   S    
C127  C136  A    
O104  Zn24  S    
C3    O116  A    
C69   C261  S    
C161  C238  S    
C212  C220  A    
C261  O112  A    
C51   C157  S    
O161  Zn16  S    
C167  O53   S    
C12   C249  A    
O123  Zn12  S    
C239  C248  A    
O147  Zn13  S    
C224  C233  A    
C157  C191  A    
O165  Zn9   S    
O164  Zn17  S    
C198  H17   S    
C213  C222  A    
C29   C213  S    
C174  O65   D    
C200  H15   S    
H96   O86   S    
C44   O159  A    
C86   C104  S    
C169  O55   S    
C194  H5    S    
O137  Zn7   S    
H90   O73   S    
C9    C246  A    
C112  C125  S    
C26   H39   S    
O153  Zn17  S    
C260  O93   A    
C42   C251  S    
C150  O18   S    
C83   C100  S    
H79   O51   S    
C68   C140  A    
C259  O109  A    
O169  Zn10  S    
C11   C248  A    
C201  H21   S    
C75   C93   T    
C179  C193  S    
C189  C197  S    
C16   C25   S    
C204  H24   S    
O115  Zn6   S    
C61   C253  S    
C58   O127  A    
C159  O36   S    
C258  O108  A    
C45   O164  A    
C118  C204  S    
H95   O84   S    
C8    C17   S    
C171  O59   D    
C143  O4    D    
O166  Zn24  S    
C261  O94   A    
C33   C217  S    
C253  O79   A    
C53   O131  A    
H61   O16   S    
O98   Zn20  S    
C259  O92   A    
C168  C192  S    
C108  C111  T    
C153  O25   S    
C257  O90   A    
O122  Zn20  S    
O101  Zn23  S    
C120  C189  A    
C35   C137  A    
C197  H10   S    
O68   Zn8   S    
C59   O128  A    
C115  C201  S    
C192  H89   S    
C60   C226  S    
C162  O41   D    
C164  O45   D    
C57   C139  A    
O119  Zn8   S    
C8    C209  A    
O173  Zn13  S    
C126  C134  A    
O130  Zn24  S    
O95   Zn20  S    
O116  Zn5   S    
C207  H31   S    
C208  H32   S    
C138  H56   S    
C230  C239  A    
O114  Zn6   S    
C41   O156  A    
C113  C186  A    
C80   C97   S    
C84   C102  S    
C121  C130  A    
C195  H7    S    
C56   O126  A    
C139  H67   S    
C255  O87   A    
C54   O124  A    
O136  Zn6   S    
C220  C229  A    
C203  H26   S    
C112  O2    A    
C225  C234  A    
C62   C80   T    
C35   C145  S    
O102  Zn23  S    
O133  Zn21  S    
C31   C215  S    
C32   H52   S    
C6    O119  A    
O117  Zn7   S    
H59   O11   S    
C142  O3    S    
O118  Zn8   S    
C196  H13   S    
C56   O135  A    
C132  H1    S    
O172  Zn11  S    
C20   C174  S    
C144  O7    S    
C156  C234  S    
C180  O76   D    
C210  O35   A    
C68   C149  S    
O121  Zn1   S    
C219  C228  A    
C51   O171  A    
C59   O137  A    
C24   C136  A    
C49   C135  S    
C145  O9    S    
C42   O154  A    
C163  O43   D    
C159  O34   D    
C7    O120  A    
C173  O63   D    
O103  Zn22  S    
C160  O37   D    
C175  O69   S    
C22   C177  S    
C101  C185  A    
C70   C87   T    
O89   Zn12  S    
C158  O32   D    
C55   O134  A    
O87   Zn12  S    
C260  O110  A    
C160  C237  S    
O124  Zn18  S    
C120  C129  A    
C49   O168  A    
C52   O121  A    
C16   C217  A    
C191  C200  S    
O151  Zn15  S    
C31   H47   S    
H80   O53   S    
C71   C88   T    
C231  C240  A    
O2    Zn2   S    
C205  H27   S    
C164  O47   S    
C206  H28   S    
O168  Zn9   S    
C262  O113  A    
C55   O125  A    
C253  O104  A    
C63   C256  S    
C87   C105  S    
C130  C232  S    
O111  Zn19  S    
C52   O130  A    
H77   O49   S    
C152  O22   S    
C19   C28   S    
C50   O173  A    
C234  C242  A    
C55   C222  S    
C141  O174  D    
H72   O38   S    
C116  C125  A    
C44   O158  A    
C43   O160  A    
C2    C142  S    
H83   O60   S    
C116  C179  A    
C194  H8    S    
C118  C127  A    
C122  C131  A    
C97   C100  T    
C64   C257  S    
O93   Zn19  S    
C70   C262  S    
O110  Zn4   S    
O142  Zn10  S    
C151  O19   D    
C147  O10   D    
C198  C207  S    
C177  O72   D    
O150  Zn14  S    
C123  C132  A    
C127  C199  S    
C201  H18   S    
C34   O142  A    
C56   C223  S    
C6    C76   S    
C165  C242  S    
C211  C219  A    
C217  C226  A    
C172  O61   D    
C14   C22   S    
C126  C188  S    
C33   H51   S    
C162  C239  S    
C39   C250  S    
O155  Zn23  S    
C178  O74   D    
O159  Zn14  S    
O125  Zn19  S    
C29   H42   S    
O94   Zn18  S    
C3    C73   S    
C19   C175  S    
O134  Zn4   S    
C214  C223  A    
C32   C216  S    
H84   O62   S    
C9    C18   S    
C222  C230  A    
C10   C247  A    
H69   O31   S    
C205  H30   S    
C57   C146  A    
C27   H38   S    
C255  O105  A    
C169  O54   D    
C25   C33   S    
C182  O81   D    
C53   C219  S    
H58   O9    S    
C187  C196  S    
C166  C244  S    
C82   C99   S    
C154  O26   D    
C185  C194  S    
C215  C224  A    
C50   O170  A    
C25   C182  S    
C227  C236  A    
C221  O46   A    
H94   O82   S    
C166  O51   S    
H82   O58   S    
C193  H2    S    
C47   O162  A    
C62   C255  S    
C23   C181  S    
C161  O40   S    
C262  O95   A    
C154  C231  S    
O92   Zn19  S    
C81   C98   S    
C95   C114  S    
C125  C133  A    
O35   Zn5   S    
C258  O91   A    
C207  H35   S    
C141  C254  S    
C128  C210  S    
C46   C135  A    
C60   O129  A    
C174  O66   S    
C200  H16   S    
O1    Zn1   S    
C192  C201  S    
C173  O64   S    
O167  Zn10  S    
C50   C146  S    
C151  C228  S    
C144  O6    D    
C183  O84   S    
C53   O123  A    
O99   Zn22  S    
C204  H25   S    
O132  Zn3   S    
C208  H33   S    
C130  C139  A    
C223  C231  A    
C202  H19   S    
H81   O55   S    
C149  O16   S    
C71   C263  S    
C34   O139  A    
C112  O89   A    
C72   C264  S    
C2    C133  A    
C6    O102  A    
C18   C27   S    
C165  O48   D    
C5    O101  A    
C3    O98   A    
C58   C224  S    
C184  O85   D    
C195  C204  S    
O141  Zn9   S    
C193  C202  S    
C1    O1    A    
O13   Zn3   S    
C1    C123  S    
C107  C114  T    
C48   C124  S    
C30   C214  S    
C46   C147  S    
C198  H14   S    
C167  O52   D    
C89   C107  S    
C134  H23   S    
C26   H36   S    
O113  Zn5   S    
H92   O77   S    
C162  O42   S    
C41   O152  A    
O138  Zn8   S    
H93   O80   S    
C45   C101  S    
C11   C213  A    
C199  O111  A    
O140  Zn10  S    
O148  Zn14  S    
C38   O145  A    
C39   O151  A    
C40   O149  A    
C68   C157  A    
C218  C227  A    
O127  Zn21  S    
C190  C198  S    
C18   C169  S    
C148  O12   D    
O109  Zn4   S    
C91   C108  S    
C241  C250  A    
C15   C216  A    
H68   O29   S    
C58   O136  A    
C14   C250  A    
C28   C212  S    
C156  O31   S    
O145  Zn13  S    
C21   C30   S    
C52   C218  S    
C216  C225  A    
C147  O11   S    
C40   O150  A    
C23   C32   S    
C65   C258  S    
H87   O69   S    
C228  C237  A    
C117  C185  A    
O107  Zn24  S    
H86   O66   S    
C36   O141  A    
O96   Zn21  S    
C32   H49   S    
C24   C144  S    
C41   C252  S    
C45   O161  A    
C79   C254  A    
C237  C246  A    
C13   C143  S    
C59   C225  S    
C235  C244  A    
C137  H45   S    
O105  Zn2   S    
H75   O44   S    
O154  Zn16  S    
C188  O13   A    
O120  Zn7   S    
C150  O17   D    
O129  Zn23  S    
C57   C148  S    
O143  Zn11  S    
O158  Zn15  S    
C1    O166  A    
C229  C238  A    
C37   O147  A    
C30   H48   S    
C188  O100  A    
C163  C240  S    
C221  O133  A    
C232  O144  A    
O139  Zn9   S    
H55   O5    S    
C72   C89   T    
C13   C134  A    
C160  O38   S    
C22   C178  S    
C176  O71   S    
C171  O60   S    
C153  O23   D    
C158  O33   S    
C243  O155  A    
C155  O28   D    
C37   C248  S    
C63   C81   T    
C17   C26   S    
C49   O167  A    
O144  Zn22  S    
O149  Zn15  S    
C177  O73   S    
C197  H11   S    
C98   C104  T    
C65   C83   T    
C38   C247  S    
C43   C79   S    
C165  O49   S    
C196  C205  S    
C47   O163  A    
C232  O57   A    
C28   H40   S    
C206  H29   S    
H60   O14   S    
C263  O114  A    
C21   C180  S    
C135  C189  A    
C129  C138  A    
C256  O88   A    
O160  Zn15  S    
C5    C75   S    
O170  Zn11  S    
C10   C19   S    
C4    C74   S    
C37   O143  A    
C46   C138  A    
H66   O27   S    
C148  O14   S    
H71   O36   S    
C24   C113  A    
O146  Zn11  S    
C47   C113  S    
O126  Zn20  S    
H53   O175  S    
C152  O21   D    
H74   O42   S    
C136  H34   S    
C119  C187  A    
C20   C29   S    
H73   O40   S    
O97   Zn21  S    
H65   O25   S    
O131  Zn2   S    
C22   C31   S    
O106  Zn2   S    
O112  Zn3   S    
C122  C208  S    
C186  C195  S    
C73   C91   T    
C129  C221  S    
C66   C259  S    
C17   C167  S    
C121  C190  A    
O152  Zn16  S    
O128  Zn22  S    
H54   O3    S    
C121  C207  S    
C12   C21   S    
C77   C95   T    
C170  O56   D    
C226  C235  A    
H64   O22   S    
C243  O68   A    
C175  O67   D    
C128  C137  A    
C170  O58   S    
H91   O75   S    
C33   H50   S    
C158  C235  S    
C88   C106  S    
C183  O83   D    
H62   O18   S    
C20   C173  S    
C54   O132  A    
C61   C78   T    
O88   Zn12  S    
C21   C176  S    
C27   C211  S    
C178  O75   S    
C19   C172  S    
C29   H41   S    
C181  O78   D    
O100  Zn18  S    
C64   C82   T    
C51   O172  A    
C203  H22   S    
C233  C241  A    
C42   O153  A    
C163  O44   S    
C79   C168  A    
C28   H43   S    
C153  C230  S    
C13   C101  A    
C4    O117  A    
H70   O33   S    
C44   C90   S    
C152  C229  S    
C182  O82   S    
C10   C212  A    
C90   C179  A    
C150  C227  S    
C244  C252  A    
C263  O96   A    
C60   O138  A    
C39   O148  A    
C8    C245  A    
C124  C187  A    
C116  C202  S    
C17   C171  S    
C54   C220  S    
O91   Zn18  S    
C7    C77   S    
C145  O8    D    
C120  C206  S    
C48   O169  A    
C27   H37   S    
C5    O118  A    
C115  C168  A    
C23   C184  S    
C264  O115  A    
C131  C243  S    
C161  O39   D    
C40   C249  S    
C210  O122  A    
C15   C251  A    
C9    C211  A    
C156  O30   D    
C194  C203  S    
C15   C23   S    
C14   C215  A    
C26   C209  S    
O163  Zn16  S    
C199  O24   A    
C69   C86   T    
C66   C84   T    
C36   O140  A    
H76   O47   S    
O57   Zn7   S    
C141  O175  S    
C7    O103  A    
C142  O176  D    
C43   O157  A    
O24   Zn4   S    
C146  C190  A    
C4    O99   A    
C172  O62   S    
O46   Zn6   S    
C256  O106  A    
C117  C203  S    
C195  H6    S    
C106  C109  T    
C196  H9    S    
C25   C183  S    
