data_mof_unit_30129.cif
_audit_creation_date              2012-12-10T19:07:36-0500
_audit_creation_method            fapswitch 2.2
_symmetry_space_group_name_H-M    P1
_symmetry_Int_Tables_number       1
_space_group_crystal_system       triclinic
_cell_length_a                    10.869489
_cell_length_b                    10.894458
_cell_length_c                    9.548053
_cell_angle_alpha                 91.074448
_cell_angle_beta                  89.926137
_cell_angle_gamma                 90.668292
_cell_volume                      1130.37727709

loop_
_atom_site_label
_atom_site_type_symbol
_atom_type_description
_atom_site_fract_x
_atom_site_fract_y
_atom_site_fract_z
_atom_type_partial_charge
C1    C     C_R   0.498156 0.263032 0.498698 0.823513
C2    C     C_R   0.938013 0.489297 0.620464 0.120171
C3    C     C_3   0.929411 0.463937 0.773079 -0.452692
C4    C     C_3   0.071012 0.463930 0.772543 -0.482805
C5    C     C_R   0.527083 0.065984 0.610889 0.131708
C6    C     C_R   0.492698 0.131048 0.495671 -0.160181
C7    C     C_R   0.448224 0.064229 0.378412 -0.331941
C8    C     C_R   0.444909 0.933165 0.377697 0.488216
C9    C     C_R   0.486832 0.870962 0.498961 -0.211833
C10   C     C_R   0.523251 0.942719 0.613775 0.062665
C11   C     C_3   0.574874 0.942184 0.758566 -0.482239
C12   C     C_R   0.262749 0.499536 0.499910 0.805245
C13   C     C_3   0.580280 0.082593 0.752819 -0.445598
C14   C     C_R   0.599307 0.544550 0.074787 0.238954
C15   C     C_R   0.408155 0.444125 0.073296 -0.088865
C16   C     C_R   0.408236 0.444025 0.924490 -0.083303
C17   C     C_R   0.599306 0.544269 0.927064 0.192640
C18   C     C_3   0.646416 0.672521 0.924881 -0.576288
C19   C     C_3   0.648219 0.672603 0.083615 0.270394
C20   C     C_R   0.495733 0.737616 0.500576 0.843696
C21   C     C_R   0.737330 0.499304 0.499818 0.807591
C22   C     C_R   0.061951 0.489215 0.620254 0.133715
C23   C     C_R   0.130235 0.500640 0.498381 -0.101473
C24   C     C_R   0.065005 0.512670 0.371730 -0.221813
C25   C     C_R   0.935962 0.511541 0.371731 -0.196764
C26   C     C_R   0.870059 0.500062 0.498428 -0.113671
Cu1   Cu    Cu3+1 0.499990 0.499980 0.640670 0.940733
Cu2   Cu    Cu3+1 0.500010 0.500020 0.359330 0.972309
H1    H     H_    0.112876 0.521703 0.272823 0.173408
H2    H     H_    0.667288 0.899789 0.762820 0.199047
H3    H     H_    0.675454 0.120950 0.750047 0.190635
H4    H     H_    0.332775 0.400501 0.128008 0.138932
H5    H     H_    0.738201 0.681516 0.874981 0.208439
H6    H     H_    0.574963 0.732275 0.883596 0.180825
H7    H     H_    0.582129 0.736407 0.134872 0.142184
H8    H     H_    0.888718 0.518074 0.272710 0.220319
H9    H     H_    0.887646 0.372402 0.793692 0.194164
H10   H     H_    0.113229 0.541867 0.832804 0.206367
H11   H     H_    0.110346 0.372193 0.792500 0.186859
H12   H     H_    0.413973 0.114605 0.290401 0.166325
H13   H     H_    0.505439 0.910892 0.835742 0.187780
N1    N     N_R   0.500790 0.500930 0.147930 -0.214541
N2    N     N_R   0.500790 0.500890 0.852020 -0.180994
O1    O     O_R   0.500000 0.319640 0.618810 -0.584314
O2    O     O_R   0.500010 0.319680 0.381230 -0.590724
O3    O     O_R   0.319650 0.499970 0.618810 -0.589591
O4    O     O_R   0.319660 0.500010 0.381230 -0.588044
O5    O     O_R   0.499990 0.680320 0.618770 -0.583686
O6    O     O_R   0.500000 0.680360 0.381190 -0.542388
O7    O     O_R   0.680340 0.499990 0.618770 -0.582191
O8    O     O_R   0.680350 0.500030 0.381190 -0.568130
H14   H     H_    0.516071 0.129041 0.826856 0.198690
H15   H     H_    0.333190 0.400047 0.868095 0.137355
O9    O     O_3   0.768840 0.675268 0.137972 -0.570985
C27   C     C_3   0.802064 0.797320 0.173381 -0.325598
H16   H     H_    0.745149 0.832523 0.262070 0.162566
H17   H     H_    0.794259 0.858338 0.081626 0.161032
H18   H     H_    0.899500 0.799270 0.207854 0.194562
H19   H     H_    0.890520 0.541627 0.834472 0.210226
O10   O     O_3   0.391585 0.863514 0.269013 -0.558170
C28   C     C_3   0.404415 0.918033 0.136739 -0.366627
H20   H     H_    0.388480 0.846087 0.054800 0.182567
H21   H     H_    0.498680 0.956307 0.120050 0.150155
H22   H     H_    0.333243 0.988990 0.122256 0.171462

loop_
_geom_bond_atom_site_label_1
_geom_bond_atom_site_label_2
_ccdc_geom_bond_type
Cu1   O5    S    
C2    C22   A    
C28   H22   S    
C27   H16   S    
C17   N2    A    
Cu2   O4    S    
C6    C7    A    
C13   H14   S    
C4    C22   S    
Cu2   O6    S    
C1    C6    S    
C9    C20   S    
C5    C13   S    
C28   H20   S    
C14   C17   A    
Cu1   O7    S    
C14   N1    A    
C23   C24   A    
C7    H12   S    
C27   H17   S    
C17   C18   S    
C5    C10   A    
C2    C26   A    
C19   H7    S    
C8    O10   S    
C11   C13   S    
C16   N2    A    
C1    O2    A    
C20   O5    A    
C12   O4    A    
C20   O6    A    
Cu1   O1    S    
C19   O9    S    
Cu2   N1    S    
C21   O7    A    
Cu2   O8    S    
C21   C26   S    
C4    H10   S    
C11   H13   S    
C2    C3    S    
C18   H6    S    
C5    C6    A    
C18   H5    S    
Cu2   O2    S    
C21   O8    A    
C7    C8    A    
C10   C11   S    
C25   H8    S    
C15   C16   A    
C15   N1    A    
Cu1   N2    S    
C15   H4    S    
Cu1   O3    S    
C24   C25   A    
C3    H9    S    
C12   O3    A    
C18   C19   S    
C9    C10   A    
C27   H18   S    
Cu1   Cu2   S    
C28   H21   S    
O9    C27   S    
O10   C28   S    
C12   C23   S    
C1    O1    A    
C25   C26   A    
C24   H1    S    
C4    H11   S    
C14   C19   S    
C13   H3    S    
C22   C23   A    
C3    C4    S    
C11   H2    S    
C8    C9    A    
C16   H15   S    
C3    H19   S    
