data_mof_unit_18694.cif
_audit_creation_date              2012-12-11T14:49:53-0500
_audit_creation_method            fapswitch 2.2
_symmetry_space_group_name_H-M    P1
_symmetry_Int_Tables_number       1
_space_group_crystal_system       triclinic
_cell_length_a                    16.830236
_cell_length_b                    16.719086
_cell_length_c                    19.605441
_cell_angle_alpha                 116.36665
_cell_angle_beta                  62.374087
_cell_angle_gamma                 100.528202
_cell_volume                      4377.4177556

loop_
_atom_site_label
_atom_site_type_symbol
_atom_type_description
_atom_site_fract_x
_atom_site_fract_y
_atom_site_fract_z
_atom_type_partial_charge
Br1   Br    Br    0.012890 0.380863 0.678026 -0.600989
Br2   Br    Br    0.143867 0.704886 0.334647 -0.530111
Br3   Br    Br    0.223500 0.551386 0.484200 -0.482432
Br4   Br    Br    0.561565 0.574391 0.236469 -0.571894
Br5   Br    Br    0.435460 0.427665 0.783347 -0.598933
C1    C     C_R   0.023483 0.760490 0.026510 -0.131953
C2    C     C_R   0.238444 0.578155 0.834860 -0.076647
C3    C     C_R   0.193378 0.434611 0.034688 -0.092570
C4    C     C_R   0.747942 0.478610 0.171924 -0.096658
C5    C     C_R   0.992607 0.335639 0.758673 0.326347
C6    C     C_R   0.275034 0.445182 0.973395 0.092267
C7    C     C_R   0.951051 0.256653 0.760632 -0.001608
C8    C     C_R   0.237894 0.557408 0.758497 0.064281
C9    C     C_R   0.994136 0.228598 0.036535 0.069347
C10   C     C_R   0.989304 0.100481 0.676625 -0.250416
C11   C     C_R   0.951234 0.177195 0.690975 0.125280
C12   C     C_R   0.741861 0.541683 0.250964 0.117657
C13   C     C_R   0.923760 0.179247 0.635093 -0.195436
C14   C     C_R   0.942854 0.105964 0.558930 0.117664
C15   C     C_R   0.987077 0.029893 0.541272 0.054839
C16   C     C_R   0.815457 0.510506 0.913345 -0.120897
C17   C     C_R   0.008213 0.026646 0.601502 0.136459
C18   C     C_R   0.922401 0.109135 0.498825 -0.166788
C19   C     C_R   0.947283 0.037734 0.420465 -0.182729
C20   C     C_R   0.992155 0.963054 0.402494 0.150533
C21   C     C_R   0.012032 0.958222 0.462850 -0.004762
C22   C     C_R   0.057043 0.882119 0.444696 0.019576
C23   C     C_R   0.740366 0.460972 0.937812 0.071300
C24   C     C_R   0.076359 0.879889 0.506235 -0.109932
C25   C     C_R   0.051980 0.951870 0.584251 -0.213656
C26   C     C_R   0.014619 0.891614 0.325790 -0.296028
C27   C     C_R   0.054521 0.815009 0.309350 -0.003407
C28   C     C_R   0.009812 0.661039 0.240020 -0.111705
C29   C     C_R   0.079342 0.809804 0.366175 0.251902
C30   C     C_R   0.381963 0.624968 0.697045 -0.211328
C31   C     C_R   0.300726 0.590137 0.694548 0.081851
C32   C     C_R   0.283440 0.580908 0.627785 -0.178632
C33   C     C_R   0.350935 0.595779 0.558461 0.011588
C34   C     C_R   0.055068 0.737877 0.237842 0.160828
C35   C     C_R   0.435850 0.621400 0.557847 0.020196
C36   C     C_R   0.449627 0.640239 0.629261 0.154654
C37   C     C_R   0.338024 0.580218 0.487442 0.307787
C38   C     C_R   0.411082 0.581829 0.414316 -0.180869
C39   C     C_R   0.498007 0.597670 0.409959 -0.022856
C40   C     C_R   0.748832 0.431888 0.990072 -0.076359
C41   C     C_R   0.509009 0.621560 0.483804 -0.000598
C42   C     C_R   0.594472 0.640346 0.482457 0.156957
C43   C     C_R   0.605570 0.667323 0.556070 -0.180980
C44   C     C_R   0.533304 0.667214 0.629292 -0.189586
C45   C     C_R   0.261558 0.515033 0.959406 -0.073937
C46   C     C_R   0.574769 0.584896 0.332939 0.277771
C47   C     C_R   0.660790 0.586179 0.329894 0.018293
C48   C     C_R   0.669045 0.623055 0.406118 -0.284390
C49   C     C_R   0.672263 0.431930 0.905261 0.120477
C50   C     C_R   0.360279 0.397836 0.938155 0.040098
C51   C     C_R   0.449130 0.337027 0.972645 -0.187930
C52   C     C_R   0.077032 0.738760 0.162003 -0.158052
C53   C     C_R   0.366593 0.352042 0.980770 -0.184563
C54   C     C_R   0.439183 0.410612 0.873144 0.224366
C55   C     C_R   0.521892 0.406443 0.872930 0.080842
C56   C     C_R   0.927799 0.258161 0.837387 -0.216245
C57   C     C_R   0.525097 0.372328 0.925907 0.139705
C58   C     C_R   0.601017 0.382143 0.938873 -0.213032
C59   C     C_R   0.673068 0.458858 0.846558 -0.181968
C60   C     C_R   0.599049 0.444253 0.828851 -0.141743
C61   C     C_R   0.804755 0.181417 0.176368 0.117913
C62   C     C_R   0.927505 0.863160 0.025306 0.127064
C63   C     C_R   0.849045 0.953068 0.004436 -0.213650
C64   C     C_R   0.828322 0.550032 0.245175 -0.133594
C65   C     C_R   0.888421 0.871886 0.979101 -0.159763
C66   C     C_R   0.927585 0.938037 0.097050 -0.264970
C67   C     C_R   0.160890 0.510367 0.759374 -0.078832
C68   C     C_R   0.887763 0.019698 0.123163 0.183817
C69   C     C_R   0.847634 0.027095 0.076700 0.183556
C70   C     C_R   0.806173 0.108261 0.103888 -0.272765
C71   C     C_R   0.844848 0.174418 0.221971 -0.150608
C72   C     C_R   0.886263 0.093945 0.195667 -0.217022
C73   C     C_R   0.944747 0.691683 0.950710 -0.108604
C74   C     C_R   0.964965 0.775510 0.000705 0.055231
C75   C     C_R   0.028025 0.310666 0.072851 -0.137497
C76   C     C_R   0.954079 0.242782 0.994663 -0.113278
H1    H     H_    0.054640 0.810278 0.064090 0.095107
H2    H     H_    0.931527 0.040802 0.373948 0.128869
H3    H     H_    0.995432 0.893293 0.280616 0.140592
H4    H     H_    0.068334 0.949556 0.630725 0.142782
H5    H     H_    0.396021 0.633841 0.748491 0.133169
H6    H     H_    0.399458 0.565300 0.359818 0.219171
H7    H     H_    0.733555 0.631276 0.407212 0.134822
H8    H     H_    0.671170 0.683266 0.555629 0.134915
H9    H     H_    0.599285 0.358504 0.982591 0.121182
H10   H     H_    0.728462 0.495004 0.817405 0.134023
H11   H     H_    0.451760 0.307774 0.011099 0.142724
H12   H     H_    0.888443 0.210291 0.862215 0.120165
H13   H     H_    0.599903 0.470502 0.787087 0.178087
H14   H     H_    0.308108 0.334497 0.026379 0.137687
H15   H     H_    0.774897 0.115269 0.069354 0.124610
H16   H     H_    0.988352 0.636856 0.288563 0.131681
H17   H     H_    0.819063 0.957731 0.967866 0.131004
H18   H     H_    0.916645 0.089627 0.232084 0.130654
H19   H     H_    0.956441 0.932544 0.134054 0.118737
H20   H     H_    0.711694 0.380545 0.010446 0.083795
H21   H     H_    0.118378 0.786108 0.137420 0.106209
H22   H     H_    0.850202 0.593530 0.292716 0.099028
H23   H     H_    0.053394 0.326038 0.118698 0.107636
H24   H     H_    0.901588 0.677757 0.919911 0.100882
H25   H     H_    0.310314 0.546735 0.920490 0.144366
H26   H     H_    0.132964 0.497001 0.716268 0.161284
H27   H     H_    0.279948 0.626329 0.861413 0.087788
H28   H     H_    0.110080 0.823141 0.495124 0.193847
H29   H     H_    0.219313 0.557709 0.627770 0.175933
H30   H     H_    0.837875 0.532536 0.863305 0.115498
H31   H     H_    0.544051 0.683261 0.684329 0.137723
H32   H     H_    0.843567 0.231527 0.277904 0.133807
H33   H     H_    0.888167 0.815965 0.923116 0.123721
H34   H     H_    0.913565 0.195632 0.966035 0.091925
H35   H     H_    0.179478 0.388590 0.063088 0.094865
H36   H     H_    0.009913 0.100523 0.721554 0.137496
H37   H     H_    0.891392 0.238774 0.649347 0.166162
H38   H     H_    0.888652 0.167176 0.511929 0.145986
H39   H     H_    0.694253 0.451932 0.153550 0.149326
N1    N     N_R   0.036080 0.671900 0.995420 -0.045920
N2    N     N_R   0.867430 0.509300 0.948100 -0.042069
N3    N     N_R   0.003360 0.617250 0.167070 -0.048094
N4    N     N_R   0.825450 0.461270 0.995400 -0.044631
N5    N     N_R   0.045340 0.665280 0.119770 -0.043980
N6    N     N_R   0.883740 0.497640 0.167070 -0.046175
N7    N     N_R   0.987050 0.628910 0.948110 -0.043251
N8    N     N_R   0.174550 0.538730 0.004600 -0.052978
N9    N     N_R   0.954660 0.334720 0.880230 -0.053995
N10   N     N_R   0.116260 0.502360 0.832930 -0.043507
N11   N     N_R   0.012950 0.371090 0.051890 -0.043291
N12   N     N_R   0.963920 0.328100 0.004580 -0.041673
N13   N     N_R   0.165290 0.545350 0.880240 -0.048809
N14   N     N_R   0.132570 0.490700 0.051900 -0.041348
N15   N     N_R   0.996640 0.382750 0.832930 -0.069230
N16   N     N_R   0.834710 0.454650 0.119760 -0.054500
Ni1   Ni    Ni4+2 0.104370 0.604370 0.000010 0.220791
Ni2   Ni    Ni4+2 0.895630 0.395630 0.999990 0.210847
Ni3   Ni    Ni4+2 0.991920 0.505780 0.891500 0.249815
Ni4   Ni    Ni4+2 0.008080 0.494220 0.108500 0.237482

loop_
_geom_bond_atom_site_label_1
_geom_bond_atom_site_label_2
_ccdc_geom_bond_type
C20   C26   A    
Br3   C37   S    
C12   C64   A    
C1    H1    S    
C50   C54   A    
C22   C24   A    
C68   C69   A    
C14   C15   A    
N13   Ni1   S    
C53   H14   S    
C65   H33   S    
C35   C41   A    
C52   H21   S    
N6    Ni4   S    
C21   C22   A    
C24   C25   A    
C15   C21   A    
C75   H23   S    
C73   H24   S    
N4    Ni2   S    
C31   C32   A    
C19   H2    S    
N2    Ni3   S    
N1    N7    A    
C18   H38   S    
C30   H5    S    
C56   H12   S    
N3    N5    A    
C49   C58   A    
C73   N7    A    
C63   C69   A    
C10   C11   A    
C34   C52   A    
C55   C57   A    
C13   C14   A    
C27   C34   S    
N1    Ni1   S    
C16   N2    A    
N11   Ni4   S    
N9    N15   A    
C10   C17   A    
N9    Ni2   S    
C7    C11   S    
C18   C19   A    
C9    C75   A    
C13   H37   S    
C62   C66   A    
C56   N9    A    
C42   C48   A    
Br2   C29   S    
N6    N16   A    
C54   C55   A    
C22   C29   A    
C75   N11   A    
N7    Ni3   S    
N10   Ni3   S    
C5    C7    A    
C12   C47   S    
C36   C44   A    
C16   H30   S    
C39   C41   A    
C70   H15   S    
C64   H22   S    
C40   N4    A    
C23   C40   A    
C69   C70   A    
Br5   C54   S    
Br4   C46   S    
C3    N14   A    
C46   C47   A    
C62   C74   S    
C71   C72   A    
C8    C31   S    
N16   Ni2   S    
C66   C68   A    
C23   C49   S    
C73   C74   A    
C76   N12   A    
N5    Ni1   S    
C20   C21   A    
N3    Ni4   S    
C26   H3    S    
C10   H36   S    
C30   C31   A    
C27   C29   A    
C14   C18   A    
C38   C39   A    
C4    N16   A    
C32   C33   A    
N8    N14   A    
C42   C43   A    
C67   H26   S    
C51   H11   S    
C61   C71   A    
C76   H34   S    
C57   C58   A    
C71   H32   S    
C28   C34   A    
C19   C20   A    
C25   H4    S    
C67   N10   A    
C32   H29   S    
C40   H20   S    
N8    Ni1   S    
C39   C46   A    
C4    C12   A    
C35   C36   A    
C16   C23   A    
C15   C17   A    
C64   N6    A    
C43   H8    S    
C44   H31   S    
C51   C57   A    
N10   N13   A    
C45   N8    A    
C37   C38   A    
N2    N4    A    
N11   N12   A    
C6    C50   S    
C47   C48   A    
C45   H25   S    
C24   H28   S    
C4    H39   S    
C41   C42   A    
C60   H13   S    
C17   C25   A    
C59   H10   S    
C26   C27   A    
Br1   C5    S    
C55   C60   A    
C2    N13   A    
C8    C67   A    
C66   H19   S    
N15   Ni3   S    
C9    C76   A    
C62   C65   A    
C38   H6    S    
C59   C60   A    
C5    N15   A    
C6    C45   A    
C52   N5    A    
C33   C35   A    
C7    C56   A    
C1    C74   A    
C49   C59   A    
C3    C6    A    
C43   C44   A    
C61   C70   A    
C58   H9    S    
C51   C53   A    
C72   H18   S    
C48   H7    S    
C28   H16   S    
C30   C36   A    
C63   H17   S    
C3    H35   S    
C33   C37   A    
C2    C8    A    
N14   Ni4   S    
C11   C13   A    
C50   C53   A    
C28   N3    A    
C63   C65   A    
C68   C72   A    
C2    H27   S    
C1    N1    A    
N12   Ni2   S    
