data_mof_unit_14452.cif
_audit_creation_date              2012-12-10T17:02:57-0500
_audit_creation_method            fapswitch 2.2
_symmetry_space_group_name_H-M    P1
_symmetry_Int_Tables_number       1
_space_group_crystal_system       triclinic
_cell_length_a                    9.854863
_cell_length_b                    11.051036
_cell_length_c                    13.406526
_cell_angle_alpha                 95.294506
_cell_angle_beta                  80.930796
_cell_angle_gamma                 111.887823
_cell_volume                      1336.97760094

loop_
_atom_site_label
_atom_site_type_symbol
_atom_type_description
_atom_site_fract_x
_atom_site_fract_y
_atom_site_fract_z
_atom_type_partial_charge
C1    C     C_R   0.557654 0.745745 0.506686 0.867091
C2    C     C_R   0.438050 0.496755 0.972263 0.091354
C3    C     C_R   0.475260 0.539700 0.871475 0.081272
C4    C     C_R   0.548542 0.541579 0.038263 0.079267
C5    C     C_R   0.688479 0.636413 0.005471 0.120372
C6    C     C_R   0.717071 0.687147 0.909805 -0.202988
C7    C     C_R   0.611728 0.640832 0.844253 -0.184319
C8    C     C_R   0.524614 0.494999 0.135901 -0.262751
C9    C     C_R   0.769685 0.640208 0.168219 0.149112
C10   C     C_R   0.374487 0.480923 0.800461 -0.104418
C11   C     C_2   0.589611 0.885587 0.512181 -0.341064
C12   C     C_R   0.422811 0.491928 0.690848 0.776768
C13   C     C_2   0.493472 0.930049 0.483954 -0.067560
C14   C     C_2   0.407986 0.112597 0.484470 -0.186101
C15   C     C_2   0.512800 0.067518 0.498313 -0.235966
C16   C     C_2   0.921277 0.487466 0.492065 -0.088892
C17   C     C_2   0.070384 0.499951 0.515429 0.062454
C18   C     C_R   0.442761 0.253893 0.491462 0.794536
C19   C     C_R   0.579647 0.517386 0.309812 0.816966
C20   C     C_R   0.797909 0.682461 0.069594 -0.199108
C21   C     C_R   0.630119 0.547205 0.202565 -0.104640
C22   C     C_R   0.231284 0.395970 0.833652 -0.137423
C23   C     C_R   0.189450 0.364526 0.934569 -0.138324
C24   C     C_R   0.291529 0.411814 0.002977 -0.171739
Cu1   Cu    Cu3+1 0.362000 0.479240 0.482530 0.999763
Cu2   Cu    Cu3+1 0.638000 0.520760 0.517470 0.973499
H1    H     H_    0.398702 0.863330 0.450322 0.224008
H2    H     H_    0.688450 0.951377 0.542263 0.158141
H3    H     H_    0.874504 0.421034 0.431008 0.162251
H4    H     H_    0.116765 0.402245 0.390103 0.198727
H5    H     H_    0.890509 0.617541 0.600120 0.212770
H6    H     H_    0.821695 0.763228 0.885352 0.151325
H7    H     H_    0.904489 0.755264 0.044038 0.162033
H8    H     H_    0.422627 0.419253 0.163407 0.159986
H9    H     H_    0.152806 0.349817 0.780790 0.187896
H10   H     H_    0.251138 0.381795 0.079615 0.138056
H11   H     H_    0.078253 0.299193 0.959391 0.152884
H12   H     H_    0.637932 0.687453 0.772617 0.161237
H13   H     H_    0.618537 0.134448 0.518461 0.186686
N1    N     N_2   0.845330 0.551960 0.543750 -0.272924
N2    N     N_2   0.154690 0.448120 0.456210 -0.324338
O1    O     O_R   0.426290 0.668220 0.490680 -0.545465
O2    O     O_R   0.659360 0.703290 0.520190 -0.574307
O3    O     O_R   0.326580 0.473880 0.629020 -0.567004
O4    O     O_R   0.559660 0.508940 0.658530 -0.573009
O5    O     O_R   0.340640 0.296710 0.479810 -0.544289
O6    O     O_R   0.573710 0.331780 0.509320 -0.578961
O7    O     O_R   0.440340 0.491060 0.341470 -0.578349
O8    O     O_R   0.673420 0.526120 0.370980 -0.551841
I1    I     I_    0.940906 0.732485 0.259727 -0.333298
C25   C     C_2   0.258079 0.024862 0.462752 0.865560
O9    O     O_2   0.202655 0.051083 0.396286 -0.565640
O10   O     O_R   0.178705 0.915112 0.520373 -0.734592
H14   H     H_    0.078263 0.863908 0.498599 0.347349
C26   C     C_2   0.113861 0.566437 0.612340 0.917112
O11   O     O_2   0.059250 0.508542 0.690786 -0.627171
O12   O     O_R   0.205020 0.697899 0.615472 -0.727624
H15   H     H_    0.223570 0.732766 0.686678 0.325629

loop_
_geom_bond_atom_site_label_1
_geom_bond_atom_site_label_2
_ccdc_geom_bond_type
Cu1   O1    S    
C6    H6    S    
C23   C24   A    
H4    N2    S    
C6    C7    A    
C12   O4    A    
C14   C18   S    
C9    C20   A    
C2    C4    A    
C14   C25   S    
C1    C11   S    
C4    C8    A    
C26   O11   D    
C15   H13   S    
C18   O6    A    
C13   C15   S    
C2    C3    A    
C16   H3    S    
C12   O3    A    
C3    C10   A    
C8    H8    S    
O10   H14   S    
C10   C22   A    
C22   H9    S    
C11   C13   D    
Cu1   O7    S    
Cu2   N1    S    
O12   H15   S    
C24   H10   S    
C10   C12   S    
C11   H2    S    
C16   N1    D    
C20   H7    S    
C18   O5    A    
Cu1   O3    S    
C19   C21   S    
C7    H12   S    
Cu2   O2    S    
C8    C21   A    
C3    C7    A    
C26   O12   S    
C2    C24   A    
C5    C6    A    
C17   N2    D    
C19   O8    A    
C25   O9    D    
C9    C21   A    
C1    O1    A    
H5    N1    S    
Cu2   O8    S    
Cu1   N2    S    
C5    C20   A    
C17   C26   S    
C14   C15   D    
C16   C17   S    
C19   O7    A    
Cu2   O6    S    
C25   O10   S    
Cu1   Cu2   S    
C23   H11   S    
Cu1   O5    S    
C1    O2    A    
C22   C23   A    
C13   H1    S    
C9    I1    S    
C4    C5    A    
Cu2   O4    S    
