data_mof_unit_22823.cif
_audit_creation_date              2012-12-10T19:45:39-0500
_audit_creation_method            fapswitch 2.2
_symmetry_space_group_name_H-M    P1
_symmetry_Int_Tables_number       1
_space_group_crystal_system       triclinic
_cell_length_a                    10.880871
_cell_length_b                    14.698722
_cell_length_c                    14.852724
_cell_angle_alpha                 64.609362
_cell_angle_beta                  103.707974
_cell_angle_gamma                 102.56047
_cell_volume                      2066.63950755

loop_
_atom_site_label
_atom_site_type_symbol
_atom_type_description
_atom_site_fract_x
_atom_site_fract_y
_atom_site_fract_z
_atom_type_partial_charge
C1    C     C_R   0.475977 0.120521 0.312338 0.846050
C2    C     C_R   0.520750 0.880073 0.687547 0.844351
C3    C     C_R   0.871164 0.994978 0.502467 -0.089204
C4    C     C_R   0.130971 0.997278 0.509112 -0.078917
C5    C     C_R   0.910547 0.928977 0.470795 0.034969
C6    C     C_R   0.093305 0.055697 0.550309 0.058164
C7    C     C_R   0.447065 0.190576 0.205369 -0.220217
C8    C     C_R   0.520484 0.813324 0.794865 -0.214043
C9    C     C_R   0.337339 0.219919 0.033944 0.513739
C10   C     C_R   0.512534 0.791410 0.966100 0.551916
C11   C     C_R   0.375366 0.153524 0.133666 -0.390635
C12   C     C_R   0.518041 0.854083 0.863747 -0.420702
C13   C     C_R   0.482392 0.296284 0.176565 0.489905
C14   C     C_R   0.515848 0.708189 0.827797 0.453457
C15   C     C_R   0.434823 0.364633 0.079051 -0.140789
C16   C     C_R   0.482934 0.643146 0.923359 -0.136770
C17   C     C_R   0.372527 0.325866 0.004808 -0.166175
C18   C     C_R   0.490586 0.684648 0.995450 -0.137783
C19   C     C_R   0.451784 0.471202 0.052248 0.005225
C20   C     C_R   0.445499 0.537485 0.949559 -0.006899
C21   C     C_R   0.389545 0.497661 0.875979 -0.230986
C22   C     C_R   0.463084 0.513129 0.123717 -0.248359
C23   C     C_R   0.263481 0.998657 0.503871 0.785692
C24   C     C_R   0.737421 0.998560 0.500421 0.780263
C25   C     C_R   0.346626 0.394420 0.903539 0.658277
C26   C     C_R   0.476506 0.617833 0.095157 0.598148
C27   C     C_R   0.708523 0.283390 0.669448 -0.383520
C28   C     C_R   0.286905 0.718353 0.330136 -0.374840
C29   C     C_R   0.682441 0.203140 0.637540 0.611871
C30   C     C_R   0.317323 0.799123 0.361665 0.620921
C31   C     C_R   0.512487 0.282140 0.511699 0.647386
C32   C     C_R   0.477880 0.712438 0.492866 0.660061
C33   C     C_R   0.538678 0.367611 0.537759 -0.145059
C34   C     C_R   0.441615 0.624579 0.470164 -0.136443
C35   C     C_R   0.633398 0.362479 0.623031 0.073463
C36   C     C_R   0.349267 0.632338 0.383285 0.061854
C37   C     C_R   0.473801 0.455988 0.485599 0.179691
C38   C     C_R   0.498383 0.532596 0.525445 0.148290
C39   C     C_R   0.577420 0.513947 0.619738 -0.092721
C40   C     C_R   0.388145 0.472295 0.394031 -0.090818
C41   C     C_R   0.648732 0.433702 0.664710 -0.022385
C42   C     C_R   0.323373 0.556299 0.346723 -0.052276
C43   C     C_R   0.344799 0.103115 0.756206 -0.364285
C44   C     C_R   0.682567 0.790688 0.320058 -0.315030
C45   C     C_R   0.263983 0.054467 0.697173 -0.180159
C46   C     C_R   0.741132 0.868652 0.352524 -0.220465
C47   C     C_R   0.183965 0.109071 0.609559 0.066447
C48   C     C_R   0.827537 0.846977 0.443585 0.104179
C49   C     C_R   0.183437 0.212658 0.583469 -0.284562
C50   C     C_R   0.853724 0.746450 0.501209 -0.259794
C51   C     C_R   0.263466 0.261376 0.642833 0.620350
C52   C     C_R   0.799591 0.669969 0.466460 0.545323
C53   C     C_R   0.346962 0.208416 0.728956 0.522195
C54   C     C_R   0.716027 0.692305 0.374381 0.453123
C55   C     C_R   0.963583 0.056870 0.542371 -0.241193
C56   C     C_R   0.039316 0.934769 0.470994 -0.266921
Cu1   Cu    Cu3+1 0.466270 0.918260 0.475690 1.047609
Cu2   Cu    Cu3+1 0.533730 0.081740 0.524310 1.049160
H1    H     H_    0.368165 0.546972 0.797020 0.217599
H2    H     H_    0.451394 0.465457 0.200984 0.215434
H3    H     H_    0.713805 0.425624 0.734607 0.117969
H4    H     H_    0.256362 0.564048 0.277735 0.136997
H5    H     H_    0.785465 0.284081 0.730696 0.167098
H6    H     H_    0.217200 0.722850 0.263381 0.162730
H7    H     H_    0.584242 0.559351 0.661543 0.207434
H8    H     H_    0.370476 0.423629 0.354243 0.194316
H9    H     H_    0.403025 0.057116 0.823362 0.160715
H10   H     H_    0.613408 0.806646 0.251584 0.231770
H11   H     H_    0.263059 0.973708 0.720273 0.150104
H12   H     H_    0.721155 0.945744 0.306057 0.150988
H13   H     H_    0.120430 0.255690 0.517223 0.177556
H14   H     H_    0.921508 0.728490 0.570923 0.169787
H15   H     H_    0.935136 0.102880 0.572737 0.202412
H16   H     H_    0.068006 0.886926 0.442972 0.179906
H17   H     H_    0.521030 0.935104 0.837485 0.184274
H18   H     H_    0.348349 0.072551 0.154743 0.226842
N1    N     N_R   0.584450 0.204570 0.560790 -0.256840
N2    N     N_R   0.415550 0.795430 0.439210 -0.259752
O1    O     O_R   0.455540 0.022090 0.338120 -0.561052
O2    O     O_R   0.544460 0.977910 0.661880 -0.577315
O3    O     O_R   0.512510 0.160150 0.379180 -0.486494
O4    O     O_R   0.487490 0.839850 0.620820 -0.500375
O5    O     O_R   0.291160 0.930970 0.479480 -0.568310
O6    O     O_R   0.708840 0.069030 0.520520 -0.553331
O7    O     O_R   0.348130 0.069020 0.520540 -0.531938
O8    O     O_R   0.651870 0.930980 0.479460 -0.538479
O9    O     O_3   0.423857 0.264149 0.782583 -0.486029
C57   C     C_3   0.516454 0.210921 0.860925 -0.283712
H19   H     H_    0.579287 0.183254 0.832008 0.111636
H20   H     H_    0.471439 0.147502 0.922733 0.196187
H21   H     H_    0.577573 0.263975 0.893517 0.171522
O10   O     O_3   0.662005 0.616899 0.339707 -0.519966
C58   C     C_3   0.747871 0.608047 0.287068 -0.200799
H22   H     H_    0.840635 0.587676 0.336500 0.161530
H23   H     H_    0.763341 0.679189 0.219073 0.141029
H24   H     H_    0.705965 0.545956 0.260985 0.194660
O11   O     O_3   0.271242 0.180384 0.964082 -0.515780
C59   C     C_3   0.142998 0.149477 0.979069 -0.237659
H25   H     H_    0.098047 0.213770 0.972481 0.155171
H26   H     H_    0.134388 0.084684 0.053151 0.130692
H27   H     H_    0.089161 0.123173 0.919300 0.179996
O12   O     O_3   0.515915 0.832044 0.036070 -0.508019
C60   C     C_3   0.612128 0.916266 0.025621 -0.325237
H28   H     H_    0.578072 0.986418 0.964518 0.134941
H29   H     H_    0.702788 0.903224 0.013256 0.138271
H30   H     H_    0.633567 0.929823 0.095827 0.176716
F1    F     F_    0.582169 0.721247 0.560746 -0.660132
F2    F     F_    0.409784 0.269455 0.444359 -0.669782
O13   O     O_3   0.260081 0.887611 0.310604 -0.537480
C61   C     C_3   0.129302 0.869364 0.272925 -0.396811
H31   H     H_    0.083290 0.935632 0.258824 0.187408
H32   H     H_    0.078946 0.801085 0.327745 0.157081
H33   H     H_    0.117218 0.863321 0.199234 0.166987
O14   O     O_3   0.756994 0.124720 0.677462 -0.537266
C62   C     C_3   0.784763 0.086228 0.783879 -0.354174
H34   H     H_    0.813291 0.009462 0.812008 0.188607
H35   H     H_    0.700376 0.077509 0.818219 0.129490
H36   H     H_    0.866721 0.134370 0.809173 0.159209
F3    F     F_    0.259404 0.361306 0.616580 -0.619056
F4    F     F_    0.831504 0.574801 0.520694 -0.662533
F5    F     F_    0.281109 0.362722 0.830043 -0.571224
F6    F     F_    0.475980 0.652791 0.166005 -0.626005
O15   O     O_3   0.555340 0.669907 0.770464 -0.549695
C63   C     C_3   0.688337 0.667486 0.800399 -0.237515
H37   H     H_    0.711317 0.613479 0.880319 0.132029
H38   H     H_    0.741023 0.744507 0.789468 0.143652
H39   H     H_    0.723528 0.640978 0.752870 0.198108
O16   O     O_3   0.568661 0.332447 0.242577 -0.556130
C64   C     C_3   0.692889 0.340280 0.224626 -0.326441
H40   H     H_    0.716243 0.265016 0.237798 0.144181
H41   H     H_    0.705430 0.396112 0.146870 0.152746
H42   H     H_    0.762005 0.367927 0.278446 0.189421

loop_
_geom_bond_atom_site_label_1
_geom_bond_atom_site_label_2
_ccdc_geom_bond_type
O9    C57   S    
C58   H22   S    
C27   C29   A    
C62   H35   S    
C31   F2    S    
Cu1   O1    S    
C5    C56   A    
C36   C42   A    
C19   C20   A    
C18   C26   A    
C41   H3    S    
C6    C55   A    
C29   O14   S    
O16   C64   S    
O14   C62   S    
O15   C63   S    
C39   C41   A    
C15   C19   A    
C23   O5    A    
C30   N2    A    
C16   C20   A    
C21   H1    S    
C37   C40   A    
C11   H18   S    
C22   H2    S    
C38   C39   A    
C1    O3    A    
C62   H34   S    
O11   C59   S    
Cu1   O8    S    
C50   H14   S    
C61   H31   S    
Cu2   N1    S    
C13   O16   S    
C3    C55   A    
C43   C53   A    
C44   C46   A    
C49   C51   A    
C32   F1    S    
C51   F3    S    
Cu1   O5    S    
C42   H4    S    
Cu2   O2    S    
C64   H42   S    
C48   C50   A    
C58   H23   S    
C34   C38   A    
C4    C56   A    
C39   H7    S    
C3    C24   S    
C52   C54   A    
C31   N1    A    
C45   C47   A    
C5    C48   S    
C46   C48   A    
C56   H16   S    
C6    C47   S    
C30   O13   S    
C45   H11   S    
C10   O12   S    
C19   C22   A    
C2    O2    A    
C60   H29   S    
Cu2   O3    S    
C4    C23   S    
C27   C35   A    
C33   C37   A    
C51   C53   A    
C32   C34   A    
C7    C11   A    
C43   H9    S    
C54   O10   S    
C37   C38   A    
Cu2   O6    S    
C43   C45   A    
C50   C52   A    
C57   H21   S    
C8    C12   A    
C62   H36   S    
C31   C33   A    
C53   O9    S    
C20   C21   A    
C9    C11   A    
C61   H33   S    
C10   C12   A    
C63   H39   S    
C9    O11   S    
C52   F4    S    
C4    C6    A    
C57   H20   S    
C58   H24   S    
C59   H26   S    
C13   C15   A    
C23   O7    A    
C1    O1    A    
C14   C16   A    
C2    O4    A    
Cu2   O7    S    
C28   H6    S    
C63   H38   S    
C64   H40   S    
C9    C17   A    
C15   C17   A    
C21   C25   A    
C8    C14   A    
C14   O15   S    
C1    C7    S    
Cu1   N2    S    
C2    C8    S    
C3    C5    A    
C47   C49   A    
C59   H27   S    
C25   F5    S    
C17   C25   A    
C28   C30   A    
C24   O6    A    
O13   C61   S    
Cu1   Cu2   S    
C49   H13   S    
C10   C18   A    
C40   C42   A    
O10   C58   S    
C33   C35   A    
C60   H30   S    
C34   C36   A    
O12   C60   S    
C35   C41   A    
C61   H32   S    
C46   H12   S    
C44   H10   S    
C32   N2    A    
C55   H15   S    
C44   C54   A    
C7    C13   A    
C29   N1    A    
C57   H19   S    
C28   C36   A    
C16   C18   A    
C59   H25   S    
C22   C26   A    
C12   H17   S    
C60   H28   S    
Cu1   O4    S    
C27   H5    S    
C40   H8    S    
C26   F6    S    
C24   O8    A    
C63   H37   S    
C64   H41   S    
