data_mof_unit_65356.cif
_audit_creation_date              2012-12-10T19:27:00-0500
_audit_creation_method            fapswitch 2.2
_symmetry_space_group_name_H-M    P1
_symmetry_Int_Tables_number       1
_space_group_crystal_system       triclinic
_cell_length_a                    17.738226
_cell_length_b                    16.449871
_cell_length_c                    14.360629
_cell_angle_alpha                 90.0
_cell_angle_beta                  91.063093
_cell_angle_gamma                 89.999959
_cell_volume                      4189.58862494

loop_
_atom_site_label
_atom_site_type_symbol
_atom_type_description
_atom_site_fract_x
_atom_site_fract_y
_atom_site_fract_z
_atom_type_partial_charge
C1    C     C_R   0.355442 0.499980 0.501844 0.877491
C2    C     C_R   0.644557 0.499980 0.498156 0.877499
C3    C     C_1   0.966170 0.510677 0.498968 0.001932
C4    C     C_1   0.033830 0.510677 0.501022 0.001932
C5    C     C_R   0.550827 0.828572 0.557080 0.164262
C6    C     C_R   0.449869 0.171402 0.442005 0.157619
C7    C     C_R   0.449172 0.828572 0.442920 0.164263
C8    C     C_R   0.550131 0.171401 0.557995 0.157620
C9    C     C_R   0.549671 0.742831 0.555866 0.037779
C10   C     C_R   0.450987 0.257150 0.443273 0.058695
C11   C     C_R   0.450329 0.742831 0.444134 0.037778
C12   C     C_R   0.549013 0.257149 0.556727 0.058689
C13   C     C_R   0.500000 0.873018 0.500000 -0.038236
C14   C     C_R   0.500000 0.126957 0.500000 -0.033271
C15   C     C_1   0.500000 0.962730 0.500000 0.158353
C16   C     C_1   0.500000 0.037244 0.500000 0.162271
C17   C     C_R   0.500997 0.499960 0.330723 0.876648
C18   C     C_R   0.499002 0.499960 0.669277 0.876642
C19   C     C_1   0.501387 0.499814 0.228515 -0.162586
C20   C     C_1   0.498612 0.499814 0.771485 -0.162588
C21   C     C_1   0.501104 0.499724 0.143204 0.025313
C22   C     C_1   0.498895 0.499724 0.856796 0.025310
C23   C     C_1   0.500361 0.499677 0.042663 0.051992
C24   C     C_1   0.499638 0.499677 0.957336 0.051991
C25   C     C_R   0.846538 0.541809 0.571698 -0.153026
C26   C     C_R   0.153368 0.474359 0.577653 -0.146618
C27   C     C_R   0.153463 0.541818 0.428302 -0.153028
C28   C     C_R   0.846629 0.474370 0.422335 -0.146618
C29   C     C_R   0.767790 0.537630 0.573846 -0.039756
C30   C     C_R   0.232328 0.469367 0.578529 -0.042771
C31   C     C_R   0.232211 0.537640 0.426156 -0.039754
C32   C     C_R   0.767670 0.469378 0.421461 -0.042768
C33   C     C_R   0.727507 0.500252 0.498773 -0.175137
C34   C     C_R   0.272492 0.500252 0.501224 -0.175140
C35   C     C_R   0.885522 0.509502 0.497224 0.078971
C36   C     C_R   0.114477 0.509500 0.502768 0.078972
Cu1   Cu    Cu3+1 0.500000 0.580420 0.500000 0.986426
Cu2   Cu    Cu3+1 0.500000 0.419580 0.500000 1.027782
H1    H     H_    0.877919 0.568788 0.629435 0.177945
H2    H     H_    0.121813 0.450167 0.635412 0.176072
H3    H     H_    0.122084 0.568805 0.370568 0.177946
H4    H     H_    0.878183 0.450187 0.364570 0.176071
H5    H     H_    0.588803 0.709313 0.599974 0.173898
H6    H     H_    0.412363 0.290655 0.398498 0.167566
H7    H     H_    0.411197 0.709313 0.400026 0.173899
H8    H     H_    0.587637 0.290655 0.601502 0.167569
N1    N     N_R   0.500000 0.701220 0.500000 -0.213606
N2    N     N_R   0.500000 0.298780 0.500000 -0.202517
O1    O     O_R   0.391260 0.567930 0.500000 -0.582880
O2    O     O_R   0.608740 0.432070 0.500000 -0.525544
O3    O     O_R   0.608740 0.567930 0.500000 -0.582884
O4    O     O_R   0.391260 0.432070 0.500000 -0.525546
O5    O     O_R   0.500000 0.567920 0.376050 -0.562646
O6    O     O_R   0.500000 0.432080 0.623950 -0.547390
O7    O     O_R   0.500000 0.567920 0.623950 -0.562649
O8    O     O_R   0.500000 0.432080 0.376050 -0.547393
C37   C     C_2   0.730055 0.571242 0.656831 0.852601
O9    O     O_2   0.755616 0.631840 0.695417 -0.547948
O10   O     O_R   0.667212 0.532332 0.693229 -0.780845
H9    H     H_    0.648211 0.560412 0.751083 0.335091
C38   C     C_2   0.269958 0.435105 0.663381 0.826263
O11   O     O_2   0.243224 0.448170 0.739870 -0.563155
O12   O     O_R   0.333798 0.385920 0.656785 -0.737648
H10   H     H_    0.353380 0.366554 0.719750 0.341077
C39   C     C_2   0.269948 0.571265 0.343179 0.852602
O13   O     O_2   0.244388 0.631868 0.304603 -0.547946
O14   O     O_R   0.332792 0.532361 0.306776 -0.780844
H11   H     H_    0.351796 0.560451 0.248929 0.335091
C40   C     C_2   0.730036 0.435125 0.336607 0.826262
O15   O     O_2   0.756766 0.448200 0.260119 -0.563156
O16   O     O_R   0.666199 0.385937 0.343200 -0.737655
H12   H     H_    0.646613 0.366578 0.280234 0.341075
Br1   Br    Br    0.622606 0.881949 0.637539 -0.360669
Br2   Br    Br    0.379135 0.117973 0.360186 -0.376189
Br3   Br    Br    0.377394 0.881949 0.362461 -0.360664
Br4   Br    Br    0.620865 0.117973 0.639814 -0.376188

loop_
_geom_bond_atom_site_label_1
_geom_bond_atom_site_label_2
_ccdc_geom_bond_type
C4    C36   S    
C11   N1    A    
C12   N2    A    
C7    C11   A    
C19   C21   T    
Cu1   O3    S    
C37   O10   S    
Cu2   O4    S    
C15   C16   T    
C29   C33   A    
C8    Br4   S    
C18   C20   S    
C40   O16   S    
C38   O12   S    
C2    O2    A    
C28   C35   A    
C39   O14   S    
C23   C24   T    
Cu1   N1    S    
Cu2   N2    S    
Cu1   O5    S    
O10   H9    S    
C40   O15   D    
C1    C34   S    
C6    Br2   S    
C25   C29   A    
C9    H5    S    
C30   C34   A    
C10   H6    S    
O14   H11   S    
C28   C32   A    
C12   H8    S    
C7    Br3   S    
C27   C31   A    
C5    C9    A    
Cu1   Cu2   S    
C6    C14   A    
Cu1   O1    S    
C27   H3    S    
Cu2   O6    S    
C3    C35   S    
C8    C12   A    
C31   C34   A    
C17   O8    A    
C18   O7    A    
C25   C35   A    
C2    C33   S    
C26   C36   A    
C29   C37   S    
C9    N1    A    
C13   C15   S    
C10   N2    A    
C22   C24   S    
C11   H7    S    
C3    C4    T    
C17   O5    A    
C31   C39   S    
C8    C14   A    
C5    C13   A    
C20   C22   T    
C6    C10   A    
C26   C30   A    
C32   C40   S    
Cu2   O2    S    
C27   C36   A    
C32   C33   A    
C21   C23   S    
O16   H12   S    
C25   H1    S    
C26   H2    S    
C37   O9    D    
C28   H4    S    
C17   C19   S    
C14   C16   S    
C5    Br1   S    
C38   O11   D    
C1    O4    A    
C2    O3    A    
C18   O6    A    
O12   H10   S    
Cu1   O7    S    
C7    C13   A    
Cu2   O8    S    
C39   O13   D    
C30   C38   S    
C1    O1    A    
