data_mof_unit_7436.cif
_audit_creation_date              2012-12-10T18:57:04-0500
_audit_creation_method            fapswitch 2.2
_symmetry_space_group_name_H-M    P1
_symmetry_Int_Tables_number       1
_space_group_crystal_system       triclinic
_cell_length_a                    10.695272
_cell_length_b                    9.838879
_cell_length_c                    10.69272
_cell_angle_alpha                 90.029842
_cell_angle_beta                  90.111669
_cell_angle_gamma                 90.848424
_cell_volume                      1125.06377596

loop_
_atom_site_label
_atom_site_type_symbol
_atom_type_description
_atom_site_fract_x
_atom_site_fract_y
_atom_site_fract_z
_atom_type_partial_charge
C1    C     C_R   0.259846 0.498513 0.501456 0.903479
C2    C     C_R   0.739743 0.500912 0.503717 0.903758
C3    C     C_R   0.445735 0.071128 0.595356 -0.083373
C4    C     C_R   0.555473 0.072771 0.405262 -0.073531
C5    C     C_R   0.444742 0.927276 0.594811 -0.082443
C6    C     C_R   0.555802 0.928899 0.405460 -0.079975
C7    C     C_R   0.503436 0.500015 0.259924 0.872863
C8    C     C_R   0.502481 0.500029 0.740171 0.879640
C9    C     C_R   0.527420 0.622872 0.063973 0.125865
C10   C     C_R   0.526847 0.622860 0.936309 0.140007
C11   C     C_R   0.521909 0.500145 0.128599 -0.097590
C12   C     C_R   0.520163 0.500094 0.871702 -0.103111
C13   C     C_R   0.538232 0.377241 0.064659 -0.229913
C14   C     C_R   0.536651 0.377142 0.935549 -0.239783
C15   C     C_3   0.443908 0.743650 0.929625 -0.496685
C16   C     C_3   0.444371 0.743511 0.071375 -0.476880
C17   C     C_R   0.062081 0.393948 0.573337 0.142747
C18   C     C_R   0.932580 0.403319 0.583036 0.161766
C19   C     C_R   0.871887 0.502647 0.511883 -0.079495
C20   C     C_R   0.127002 0.495027 0.504639 -0.090626
C21   C     C_R   0.937142 0.600475 0.443211 -0.248651
C22   C     C_R   0.064932 0.598013 0.441345 -0.243183
H1    H     H_    0.543224 0.280908 0.113307 0.164801
H2    H     H_    0.540522 0.280710 0.886850 0.170978
H3    H     H_    0.492707 0.833797 0.888960 0.199264
H4    H     H_    0.351417 0.718897 0.112741 0.204148
H5    H     H_    0.350658 0.719369 0.888383 0.200206
H6    H     H_    0.493142 0.833693 0.112256 0.195321
H7    H     H_    0.889098 0.677182 0.389378 0.164888
H8    H     H_    0.115381 0.674607 0.387848 0.168025
H9    H     H_    0.399760 0.872254 0.670189 0.126535
H10   H     H_    0.600806 0.875147 0.330084 0.122249
N1    N     N_R   0.500000 0.857200 0.500000 -0.074543
N2    N     N_R   0.500000 0.142810 0.500000 -0.074646
O1    O     O_R   0.316770 0.614620 0.499990 -0.627753
O2    O     O_R   0.683230 0.614620 0.500010 -0.629480
O3    O     O_R   0.316800 0.385290 0.500000 -0.593770
O4    O     O_R   0.683200 0.385290 0.500000 -0.594907
O5    O     O_R   0.500000 0.614690 0.316780 -0.625608
O6    O     O_R   0.500000 0.614690 0.683220 -0.625002
O7    O     O_R   0.500020 0.385360 0.316780 -0.633842
O8    O     O_R   0.499980 0.385360 0.683220 -0.618351
Zn1   Zn    Zn3+2 0.500000 0.653120 0.500000 0.939829
Zn2   Zn    Zn3+2 0.500000 0.346880 0.500000 0.956817
N3    N     N_2   0.127081 0.288456 0.636332 -0.301408
H11   H     H_    0.101190 0.275566 0.728433 0.219023
C23   C     C_3   0.130620 0.161184 0.568014 -0.758631
H12   H     H_    0.034918 0.121968 0.547702 0.217005
H13   H     H_    0.179731 0.083941 0.624560 0.221743
H14   H     H_    0.180890 0.174550 0.478062 0.267182
N4    N     N_2   0.862994 0.317390 0.665975 -0.293795
H15   H     H_    0.893944 0.219309 0.674375 0.230808
C24   C     C_3   0.836718 0.378775 0.785792 -0.788117
H16   H     H_    0.925200 0.401124 0.836952 0.224700
H17   H     H_    0.779073 0.307523 0.842698 0.242217
H18   H     H_    0.784252 0.474388 0.773177 0.240121
H19   H     H_    0.402703 0.124944 0.671846 0.137945
H20   H     H_    0.600019 0.127845 0.329583 0.121159

loop_
_geom_bond_atom_site_label_1
_geom_bond_atom_site_label_2
_ccdc_geom_bond_type
C16   H6    S    
C6    H10   S    
O4    Zn2   S    
C7    O7    A    
O1    Zn1   S    
C9    C10   A    
C2    O4    A    
C15   H5    S    
C23   H12   S    
C6    N1    A    
C1    O3    A    
C8    C12   S    
O3    Zn2   S    
C24   H17   S    
C17   C18   A    
O2    Zn1   S    
C23   H13   S    
N3    H11   S    
C7    C11   S    
C11   C13   A    
C9    C11   A    
O8    Zn2   S    
C10   C12   A    
C21   C22   A    
C19   C21   A    
C9    C16   S    
C8    O8    A    
C18   N4    S    
C23   H14   S    
C10   C15   S    
N3    C23   S    
C16   H4    S    
O7    Zn2   S    
C4    N2    A    
C15   H3    S    
C5    H9    S    
C17   N3    S    
C2    O2    A    
N4    H15   S    
N1    Zn1   S    
C3    H19   S    
C12   C14   A    
C17   C20   A    
N2    Zn2   S    
N4    C24   S    
C13   H1    S    
C4    C6    A    
C18   C19   A    
C24   H18   S    
C14   H2    S    
C8    O6    A    
C1    O1    A    
C7    O5    A    
C1    C20   S    
O5    Zn1   S    
C22   H8    S    
C3    N2    A    
C4    H20   S    
C2    C19   S    
C13   C14   A    
C21   H7    S    
O6    Zn1   S    
C15   C16   S    
C24   H16   S    
C20   C22   A    
C3    C5    A    
C5    N1    A    
