data_mof_unit_25213.cif
_audit_creation_date              2012-12-10T18:52:57-0500
_audit_creation_method            fapswitch 2.2
_symmetry_space_group_name_H-M    P1
_symmetry_Int_Tables_number       1
_space_group_crystal_system       triclinic
_cell_length_a                    9.880122
_cell_length_b                    10.650617
_cell_length_c                    16.565105
_cell_angle_alpha                 90.505337
_cell_angle_beta                  84.867907
_cell_angle_gamma                 91.012849
_cell_volume                      1735.83083437

loop_
_atom_site_label
_atom_site_type_symbol
_atom_type_description
_atom_site_fract_x
_atom_site_fract_y
_atom_site_fract_z
_atom_type_partial_charge
C1    C     C_R   0.500962 0.739513 0.500408 0.995880
C2    C     C_R   0.499056 0.260379 0.499441 0.930770
C3    C     C_R   0.584080 0.935207 0.440338 0.032247
C4    C     C_R   0.415681 0.064311 0.559220 0.027612
C5    C     C_R   0.581527 0.065447 0.439233 0.017511
C6    C     C_R   0.418413 0.934138 0.560407 0.023404
C7    C     C_R   0.497555 0.127784 0.498812 -0.050608
C8    C     C_R   0.502430 0.871918 0.500884 -0.050369
C9    C     C_R   0.930120 0.400174 0.469593 -0.126605
C10   C     C_R   0.070302 0.600178 0.529635 -0.079804
C11   C     C_R   0.074328 0.400340 0.468229 0.206615
C12   C     C_R   0.926816 0.601979 0.528410 0.196784
C13   C     C_R   0.480276 0.497569 0.653856 0.951324
C14   C     C_R   0.519246 0.497504 0.346245 0.949337
C15   C     C_R   0.463828 0.463252 0.739380 -0.178501
C16   C     C_R   0.531808 0.464580 0.260386 -0.203808
C17   C     C_R   0.550649 0.509246 0.796036 0.398329
C18   C     C_R   0.437647 0.504505 0.207450 0.444774
C19   C     C_R   0.543260 0.455352 0.872435 -0.273688
C20   C     C_R   0.440222 0.450324 0.130608 -0.263578
C21   C     C_R   0.449113 0.358189 0.894271 0.104530
C22   C     C_R   0.535711 0.358198 0.105151 0.093546
C23   C     C_R   0.356493 0.317891 0.839805 0.145120
C24   C     C_R   0.633993 0.323439 0.156434 0.146666
C25   C     C_R   0.364673 0.370958 0.762628 -0.280791
C26   C     C_R   0.630900 0.376772 0.233860 -0.288939
C27   C     C_2   0.436001 0.313622 0.978217 -0.193749
C28   C     C_2   0.544830 0.313576 0.020725 -0.169309
H1    H     H_    0.703709 0.346467 0.274524 0.182427
H2    H     H_    0.295884 0.337196 0.719605 0.185917
H3    H     H_    0.645711 0.308599 0.988881 0.171384
H4    H     H_    0.334335 0.308170 0.009177 0.181775
H5    H     H_    0.369633 0.483374 0.089545 0.203431
H6    H     H_    0.608738 0.492693 0.916212 0.195522
H7    H     H_    0.876823 0.321165 0.444888 0.141862
H8    H     H_    0.123966 0.679871 0.553220 0.144649
N1    N     N_R   0.142790 0.500030 0.500020 -0.089998
N2    N     N_R   0.857210 0.499970 0.499980 -0.093723
O1    O     O_R   0.385380 0.683250 0.500010 -0.606192
O2    O     O_R   0.614620 0.316750 0.499990 -0.627115
O3    O     O_R   0.614710 0.683220 0.500000 -0.598604
O4    O     O_R   0.385290 0.316780 0.500000 -0.603617
O5    O     O_R   0.371780 0.500040 0.615800 -0.621931
O6    O     O_R   0.628220 0.499960 0.384200 -0.616285
O7    O     O_R   0.601110 0.500010 0.615800 -0.579480
O8    O     O_R   0.398890 0.499990 0.384200 -0.567039
Zn1   Zn    Zn3+2 0.346870 0.500020 0.500000 1.013243
Zn2   Zn    Zn3+2 0.653130 0.499980 0.500000 1.000605
S1    S     S_3+6 0.663808 0.637935 0.776681 0.008734
O9    O     O_2   0.797812 0.589175 0.740648 -0.286145
O10   O     O_2   0.608476 0.728131 0.719078 -0.360010
O11   O     O_3   0.688835 0.714113 0.863615 -0.515003
H9    H     H_    0.598429 0.746527 0.883462 0.356477
S2    S     S_3+6 0.319144 0.624591 0.233317 0.016858
O12   O     O_2   0.195647 0.568117 0.279884 -0.308582
O13   O     O_2   0.381385 0.723340 0.284608 -0.318663
O14   O     O_3   0.272253 0.691482 0.148759 -0.556567
H10   H     H_    0.204242 0.754641 0.168210 0.388583
N3    N     N_3   0.256092 0.222426 0.862815 -0.446284
H11   H     H_    0.307402 0.138512 0.868997 0.195120
H12   H     H_    0.191861 0.207353 0.816678 0.189507
N4    N     N_3   0.734534 0.232322 0.130241 -0.438924
H13   H     H_    0.807208 0.277325 0.090238 0.192776
H14   H     H_    0.785445 0.202791 0.179235 0.182401
N5    N     N_3   0.665507 0.866010 0.379595 -0.421940
H15   H     H_    0.635094 0.887585 0.322581 0.213791
H16   H     H_    0.767286 0.893248 0.381661 0.196969
N6    N     N_3   0.333829 0.133170 0.619832 -0.460877
H17   H     H_    0.363597 0.110956 0.676898 0.179601
H18   H     H_    0.232080 0.106145 0.617347 0.195989
N7    N     N_3   0.660570 0.135411 0.377375 -0.473596
H19   H     H_    0.630905 0.107857 0.320781 0.192374
H20   H     H_    0.763175 0.114864 0.379722 0.179283
N8    N     N_3   0.339371 0.864058 0.622270 -0.436841
H21   H     H_    0.369076 0.891427 0.678886 0.214580
H22   H     H_    0.236770 0.884653 0.619939 0.182456
N9    N     N_3   0.149178 0.296993 0.432269 -0.404881
H23   H     H_    0.083085 0.225120 0.416172 0.146335
H24   H     H_    0.200758 0.329149 0.378388 0.220877
N10   N     N_3   0.854971 0.712665 0.554553 -0.393790
H25   H     H_    0.921871 0.782727 0.572286 0.159229
H26   H     H_    0.791661 0.689146 0.605872 0.288631

loop_
_geom_bond_atom_site_label_1
_geom_bond_atom_site_label_2
_ccdc_geom_bond_type
C1    C8    S    
C2    C7    S    
C14   O8    A    
N9    H23   S    
C23   N3    S    
N8    H22   S    
C10   N1    A    
O1    Zn1   S    
C19   C21   A    
C24   C26   A    
C15   C25   A    
C18   C20   A    
O2    Zn2   S    
C11   N1    A    
N4    H14   S    
C11   N9    S    
S2    O12   D    
N6    H17   S    
S1    O10   D    
N1    Zn1   S    
N2    Zn2   S    
C21   C27   S    
N3    H11   S    
C22   C28   S    
C3    N5    S    
C4    C7    A    
C6    N8    S    
N9    H24   S    
C16   C26   A    
S2    O13   D    
N3    H12   S    
N8    H21   S    
N10   H26   S    
C3    C8    A    
C17   S1    S    
C5    C7    A    
C18   S2    S    
C6    C8    A    
N5    H16   S    
C4    N6    S    
N4    H13   S    
S1    O11   S    
C9    C11   A    
C10   C12   A    
C20   H5    S    
C4    C6    A    
C20   C22   A    
S1    O9    D    
C13   C15   S    
C14   C16   S    
C13   O5    A    
O11   H9    S    
C14   O6    A    
O7    Zn2   S    
C1    O3    A    
C25   H2    S    
C15   C17   A    
O8    Zn1   S    
C24   N4    S    
C27   H4    S    
C28   H3    S    
N10   H25   S    
C3    C5    A    
C19   H6    S    
C21   C23   A    
N7    H19   S    
C5    N7    S    
C13   O7    A    
O14   H10   S    
C2    O4    A    
C12   N10   S    
C9    N2    A    
C17   C19   A    
O3    Zn2   S    
C22   C24   A    
O4    Zn1   S    
C23   C25   A    
C12   N2    A    
C1    O1    A    
C2    O2    A    
C26   H1    S    
C16   C18   A    
N5    H15   S    
N7    H20   S    
C27   C28   D    
C9    H7    S    
N6    H18   S    
C10   H8    S    
O5    Zn1   S    
O6    Zn2   S    
S2    O14   S    
