data_mof_unit_48959.cif
_audit_creation_date              2013-03-05T15:43:10-0500
_audit_creation_method            fapswitch 2.2
_symmetry_space_group_name_H-M    P1
_symmetry_Int_Tables_number       1
_space_group_crystal_system       triclinic
_cell_length_a                    6.953973
_cell_length_b                    13.776473
_cell_length_c                    17.956458
_cell_angle_alpha                 112.574832
_cell_angle_beta                  95.410024
_cell_angle_gamma                 90.38358
_cell_volume                      1579.64538517

loop_
_atom_site_label
_atom_site_type_symbol
_atom_site_description
_atom_site_fract_x
_atom_site_fract_y
_atom_site_fract_z
_atom_type_partial_charge
O1    O     O_R   0.484560 0.544530 0.414330 -0.565949
O2    O     O_R   0.197040 0.638810 0.585080 -0.565714
O3    O     O_R   0.026800 0.455470 0.585670 -0.566083
C1    C     C_R   0.374007 0.678792 0.610691 0.802397
O4    O     O_R   0.155000 0.556150 0.414940 -0.565561
O5    O     O_R   0.984450 0.372220 0.414320 -0.558134
C2    C     C_R   0.317847 0.565029 0.386630 0.833339
O6    O     O_R   0.526900 0.627780 0.585680 -0.570552
O7    O     O_3   0.339170 0.439750 0.499990 -0.265207
V1    V     V_3+5 0.064350 0.511180 0.500000 1.122286
O8    O     O_R   0.654880 0.361190 0.414920 -0.543485
C3    C     C_R   0.816949 0.324400 0.386565 0.899114
O9    O     O_R   0.696930 0.443850 0.585060 -0.547600
C4    C     C_R   0.872811 0.433699 0.612063 0.904239
V2    V     V_3+5 0.564340 0.488820 0.500000 1.141443
O10   O     O_3   0.839390 0.560250 0.500010 -0.298062
C5    C     C_R   0.042338 0.856306 0.820842 -0.094568
C6    C     C_R   0.903638 0.391978 0.676052 -0.156806
C7    C     C_R   0.915900 0.812736 0.681425 -0.052881
C8    C     C_R   0.972245 0.781678 0.744914 -0.082655
C9    C     C_R   0.055069 0.963119 0.833079 -0.116429
C10   C     C_R   0.996676 0.997251 0.769190 0.058354
C11   C     C_R   0.925806 0.919219 0.693013 0.043482
C12   C     C_R   0.002254 0.105571 0.778526 0.035020
C13   C     C_R   0.937199 0.134147 0.711378 0.031850
C14   C     C_R   0.856371 0.052471 0.639253 -0.053405
C15   C     C_R   0.856702 0.947791 0.629568 -0.130699
C16   C     C_R   0.066809 0.186098 0.853532 -0.089115
C17   C     C_R   0.068072 0.290529 0.863778 -0.093466
C18   C     C_R   0.010664 0.320147 0.799550 0.022283
C19   C     C_R   0.947654 0.243468 0.720803 -0.024555
C20   C     C_R   0.018625 0.427657 0.814937 -0.055999
C21   C     C_R   0.964254 0.463060 0.754151 -0.155262
C22   C     C_R   0.900061 0.282216 0.657287 0.287591
H1    H     H_    0.793712 0.888603 0.572478 0.077429
H2    H     H_    0.973671 0.546722 0.767850 0.072244
H3    H     H_    0.117651 0.349344 0.923187 0.061070
H4    H     H_    0.859869 0.753440 0.623368 0.114488
H5    H     H_    0.957390 0.699325 0.735125 0.047966
H6    H     H_    0.106311 0.016796 0.893478 0.041572
H7    H     H_    0.778648 0.065584 0.589982 0.157671
H8    H     H_    0.117147 0.171618 0.906635 0.065412
H9    H     H_    0.114016 0.223755 0.309219 0.115792
H10   H     H_    0.834760 0.034043 0.193975 0.115631
C23   C     C_2   0.135792 0.037489 0.184221 -0.227840
C24   C     C_2   0.972959 0.077518 0.217344 -0.089371
H11   H     H_    0.674856 0.177065 0.294749 0.065199
C25   C     C_2   0.812803 0.220620 0.318637 -0.188574
C26   C     C_2   0.975770 0.180354 0.285772 -0.079936
H12   H     H_    0.273693 0.081116 0.208050 0.067642
C27   C     C_R   0.409225 0.784885 0.678055 -0.101307
C28   C     C_R   0.539394 0.472222 0.826757 -0.095707
C29   C     C_R   0.532590 0.886475 0.817979 -0.054994
C30   C     C_R   0.480295 0.790019 0.754923 -0.079866
C31   C     C_R   0.395750 0.879938 0.664892 -0.118002
C32   C     C_R   0.451610 0.980421 0.728779 0.063096
C33   C     C_R   0.518425 0.981034 0.805972 0.046640
C34   C     C_R   0.446394 0.079903 0.719212 0.013711
C35   C     C_R   0.503641 0.177295 0.787120 0.036787
C36   C     C_R   0.565134 0.171684 0.862241 -0.092495
C37   C     C_R   0.572886 0.075799 0.871126 -0.114253
C38   C     C_R   0.390508 0.085063 0.643545 -0.104980
C39   C     C_R   0.390045 0.180294 0.633937 -0.029119
C40   C     C_R   0.437508 0.275364 0.699333 0.016581
C41   C     C_R   0.498194 0.276754 0.777290 0.049108
C42   C     C_R   0.423824 0.369284 0.686415 -0.041538
C43   C     C_R   0.472586 0.466133 0.749251 -0.091717
C44   C     C_R   0.550031 0.377763 0.841119 -0.113452
H13   H     H_    0.623657 0.075822 0.930099 0.065101
H14   H     H_    0.596068 0.385769 0.902281 0.040161
H15   H     H_    0.457443 0.536939 0.737138 0.054502
H16   H     H_    0.352997 0.179497 0.573823 0.165502
H17   H     H_    0.586487 0.887114 0.876723 0.116133
H18   H     H_    0.497157 0.718739 0.766242 0.055517
H19   H     H_    0.344252 0.872633 0.604408 0.049269
H20   H     H_    0.349906 0.016066 0.589628 0.093562
H21   H     H_    0.334287 0.667388 0.194804 0.115398
H22   H     H_    0.614937 0.591014 0.307959 0.112086
C45   C     C_2   0.314613 0.602277 0.319042 -0.229520
C46   C     C_2   0.476654 0.611058 0.285384 -0.094142
H23   H     H_    0.772525 0.636280 0.206667 0.065694
C47   C     C_2   0.634559 0.656075 0.183636 -0.228816
C48   C     C_2   0.472590 0.647332 0.217352 -0.090509
H24   H     H_    0.176689 0.622073 0.295975 0.068216
O11   O     O_R   0.421600 0.630430 0.917010 -0.559914
O12   O     O_R   0.793840 0.702190 0.087630 -0.560873
O13   O     O_R   0.964010 0.886170 0.088190 -0.557204
C49   C     C_R   0.631110 0.693285 0.116018 0.842761
O14   O     O_R   0.751460 0.619510 0.917500 -0.562250
O15   O     O_R   0.921330 0.802900 0.916840 -0.566259
C50   C     C_R   0.574561 0.578886 0.893097 0.807302
O16   O     O_R   0.464290 0.713700 0.088350 -0.559498
O17   O     O_3   0.609200 0.818520 0.002630 -0.281736
V3    V     V_3+5 0.884140 0.747190 0.002530 1.103114
O18   O     O_R   0.251150 0.814630 0.917340 -0.567398
C51   C     C_R   0.075054 0.823238 0.889468 0.817237
O19   O     O_R   0.293530 0.897310 0.087470 -0.559211
C52   C     C_R   0.131546 0.933924 0.116029 0.848338
V4    V     V_3+5 0.384070 0.769710 0.002370 1.104415
O20   O     O_3   0.109180 0.698190 0.002460 -0.281050
H25   H     H_    0.067926 0.485207 0.874827 0.112343
N1    N     N_R   0.863981 0.214339 0.573192 0.040223
O21   O     O_R   0.002025 0.160077 0.535076 -0.409249
O22   O     O_R   0.702214 0.217844 0.531726 -0.404427
H26   H     H_    0.610787 0.240598 0.915574 0.066902
H27   H     H_    0.373488 0.367795 0.627030 0.134186

loop_
_geom_bond_atom_site_label_1
_geom_bond_atom_site_label_2
_geom_bond_distance
_ccdc_geom_bond_type
C34   C38   1.406110 A    
C31   C32   1.439697 A    
C13   C19   1.450058 A    
O17   V3    2.155357 S    
C4    C6    1.469293 S    
O2    C1    1.311126 A    
O18   C51   1.302326 A    
C20   H25   1.083907 S    
C1    O6    1.297582 A    
C21   H2    1.082349 S    
H23   C47   1.086806 S    
O11   C50   1.296984 A    
C23   C24   1.350400 D    
C24   C26   1.475063 S    
C14   C15   1.384751 A    
C38   C39   1.387335 A    
C33   C37   1.397756 A    
C16   C17   1.378417 A    
C23   C52   1.478899 S    
O5    C3    1.291247 A    
C45   H24   1.086814 S    
O18   V4    2.008869 S    
H21   C48   1.086865 S    
V2    O10   2.145074 S    
O13   V3    1.975811 S    
O19   C52   1.305449 A    
C5    C8    1.394718 A    
O12   C49   1.307820 A    
C32   C33   1.416609 A    
O14   V3    1.981705 S    
O12   V3    2.004191 S    
C30   H18   1.081510 S    
O8    V2    1.988910 S    
V4    O20   2.145117 S    
O1    V2    2.003629 S    
C11   C15   1.388282 A    
O14   C50   1.311238 A    
O7    V1    2.155398 S    
O17   V4    1.698598 S    
C27   C31   1.419338 A    
C28   C44   1.421530 A    
C3    C25   1.478713 S    
O13   C52   1.291294 A    
C31   H19   1.077127 S    
C42   C43   1.390759 A    
C35   C36   1.407174 A    
O9    C4    1.301186 A    
C38   H20   1.076509 S    
C42   H27   1.082943 S    
C46   C48   1.485005 S    
O19   V4    1.988831 S    
H10   C24   1.087052 S    
O15   V3    2.000636 S    
C19   C22   1.447022 A    
C1    C27   1.497110 S    
C49   O16   1.294085 A    
C12   C13   1.441330 A    
O4    C2    1.307758 A    
C8    H5    1.081951 S    
C29   C33   1.402342 A    
H9    C26   1.087053 S    
C15   H1    1.084636 S    
C13   C14   1.412348 A    
C29   C30   1.393101 A    
C5    C9    1.402768 A    
C45   C46   1.353651 D    
C36   C37   1.390825 A    
C40   C42   1.401761 A    
C7    C11   1.400573 A    
C17   C18   1.390215 A    
O11   V4    1.980726 S    
C7    H4    1.082222 S    
H11   C25   1.086900 S    
V3    O20   1.708372 S    
C41   C44   1.439042 A    
H22   C46   1.086863 S    
C5    C51   1.468790 S    
C22   N1    1.434890 S    
N1    O22   1.300990 A    
C6    C22   1.416836 A    
O3    C4    1.289102 A    
C25   C26   1.350351 D    
O6    V2    1.980027 S    
O9    V2    2.008840 S    
C10   C12   1.436106 A    
O2    V1    1.981674 S    
C2    C45   1.486569 S    
C37   H13   1.084098 S    
O1    C2    1.294098 A    
C29   H17   1.082355 S    
C12   C16   1.406547 A    
C28   C43   1.395606 A    
O5    V1    1.975806 S    
O8    C3    1.305386 A    
O15   C51   1.289817 A    
C27   C30   1.396550 A    
C20   C21   1.380431 A    
C7    C8    1.388813 A    
C34   C35   1.445945 A    
O4    V1    2.004222 S    
O3    V1    2.000804 S    
V1    O10   1.708318 S    
C40   C41   1.416309 A    
C18   C20   1.398174 A    
C18   C19   1.427400 A    
C9    H6    1.076048 S    
C23   H12   1.086921 S    
C47   C49   1.486642 S    
C16   H8    1.074997 S    
C32   C34   1.445464 A    
C43   H15   1.081594 S    
O7    V2    1.701318 S    
N1    O21   1.299788 A    
C6    C21   1.389933 A    
C39   C40   1.394120 A    
C39   H16   1.081708 S    
C14   H7    1.068346 S    
C44   H14   1.077511 S    
C47   C48   1.353667 D    
C17   H3    1.084743 S    
C10   C11   1.416472 A    
C28   C50   1.494802 S    
C9    C10   1.425135 A    
C35   C41   1.447456 A    
C36   H26   1.076953 S    
O16   V4    2.012021 S    
