data_mof_unit_47438.cif
_audit_creation_date              2012-12-10T17:58:18-0500
_audit_creation_method            fapswitch 2.2
_symmetry_space_group_name_H-M    P1
_symmetry_Int_Tables_number       1
_space_group_crystal_system       triclinic
_cell_length_a                    9.521544
_cell_length_b                    10.833816
_cell_length_c                    15.402267
_cell_angle_alpha                 89.88479
_cell_angle_beta                  74.080847
_cell_angle_gamma                 90.00126
_cell_volume                      1527.8805981

loop_
_atom_site_label
_atom_site_type_symbol
_atom_type_description
_atom_site_fract_x
_atom_site_fract_y
_atom_site_fract_z
_atom_type_partial_charge
C1    C     C_R   0.999932 0.262073 0.500073 0.787946
C2    C     C_R   0.000056 0.737922 0.499957 0.793619
C3    C     C_R   0.563280 0.635527 0.083705 0.145923
C4    C     C_R   0.404474 0.541482 0.898492 0.142177
C5    C     C_R   0.709735 0.651740 0.036155 -0.288184
C6    C     C_R   0.258559 0.523615 0.945793 -0.294383
C7    C     C_R   0.872134 0.063822 0.500523 -0.186348
C8    C     C_R   0.127832 0.936152 0.499568 -0.183015
C9    C     C_R   0.872188 0.936119 0.500442 -0.182050
C10   C     C_R   0.127777 0.063855 0.499652 -0.185067
C11   C     C_R   0.000032 0.871768 0.499975 -0.018246
C12   C     C_R   0.999941 0.128212 0.500100 -0.019715
C13   C     C_R   0.547567 0.429345 0.560254 -0.012131
C14   C     C_R   0.452397 0.570776 0.439811 -0.027869
C15   C     C_R   0.398769 0.429455 0.560277 -0.036261
C16   C     C_R   0.601206 0.570657 0.439781 -0.033008
C17   C     C_R   0.917748 0.503277 0.672455 0.797666
C18   C     C_R   0.082163 0.500353 0.327392 0.803158
C19   C     C_R   0.871256 0.527211 0.769926 -0.069949
C20   C     C_R   0.126550 0.506812 0.228244 -0.074811
C21   C     C_R   0.910942 0.624501 0.902365 -0.207746
C22   C     C_R   0.068465 0.498498 0.085078 -0.195886
C23   C     C_R   0.964888 0.584399 0.813484 -0.204030
C24   C     C_R   0.023854 0.493573 0.178935 -0.196304
C25   C     C_R   0.724546 0.509337 0.816464 -0.187762
C26   C     C_R   0.273145 0.528915 0.182601 -0.196849
C27   C     C_R   0.664752 0.560235 0.902517 0.102498
C28   C     C_R   0.318151 0.546142 0.088484 0.101299
C29   C     C_R   0.762085 0.611584 0.947443 0.123031
C30   C     C_R   0.214997 0.522551 0.039575 0.125405
C31   C     C_R   0.512123 0.557492 0.946219 0.011184
C32   C     C_R   0.464535 0.578126 0.041241 0.009691
Cu1   Cu    Cu3+1 0.140660 0.500020 0.500000 0.940157
Cu2   Cu    Cu3+1 0.859340 0.499980 0.500000 0.945908
H1    H     H_    0.783119 0.695930 0.069403 0.149586
H2    H     H_    0.179114 0.509028 0.908262 0.151422
H3    H     H_    0.351912 0.527163 0.221203 0.181007
H4    H     H_    0.659149 0.453720 0.784482 0.169608
H5    H     H_    0.909878 0.476252 0.212670 0.154383
H6    H     H_    0.078514 0.600721 0.778320 0.150161
H7    H     H_    0.984861 0.668251 0.935301 0.141873
H8    H     H_    0.988380 0.482972 0.048050 0.146079
H9    H     H_    0.772162 0.111829 0.500919 0.149163
H10   H     H_    0.227805 0.888141 0.499168 0.149841
H11   H     H_    0.772264 0.888082 0.500759 0.150539
H12   H     H_    0.227700 0.111890 0.499338 0.149709
H13   H     H_    0.582095 0.372513 0.608442 0.114876
H14   H     H_    0.417808 0.627741 0.391713 0.125051
H15   H     H_    0.321259 0.372833 0.608503 0.114970
H16   H     H_    0.678696 0.627368 0.391603 0.114293
N1    N     N_R   0.352080 0.500030 0.499980 -0.154362
N2    N     N_R   0.647920 0.499970 0.500020 -0.152796
O1    O     O_R   0.118740 0.319660 0.500000 -0.585391
O2    O     O_R   0.881260 0.680340 0.500000 -0.583866
O3    O     O_R   0.881170 0.319630 0.500010 -0.588581
O4    O     O_R   0.118830 0.680370 0.499990 -0.586830
O5    O     O_R   0.055570 0.500030 0.629830 -0.586055
O6    O     O_R   0.944430 0.499970 0.370170 -0.584742
O7    O     O_R   0.818000 0.500000 0.629840 -0.573979
O8    O     O_R   0.182000 0.500000 0.370160 -0.584226
N3    N     N_3   0.513534 0.691243 0.171136 -0.616516
H17   H     H_    0.535054 0.785947 0.164345 0.228017
H18   H     H_    0.574412 0.654561 0.212208 0.198937
N4    N     N_3   0.438098 0.557830 0.802546 -0.599741
H19   H     H_    0.378082 0.632982 0.789351 0.225801
H20   H     H_    0.403410 0.479210 0.774912 0.201723

loop_
_geom_bond_atom_site_label_1
_geom_bond_atom_site_label_2
_ccdc_geom_bond_type
C21   C29   A    
C10   H12   S    
C18   C20   S    
C19   C23   A    
C8    C10   A    
C26   H3    S    
C9    H11   S    
C15   N1    A    
C25   H4    S    
Cu1   N1    S    
C13   N2    A    
Cu1   O5    S    
C4    N4    S    
Cu2   N2    S    
C31   C32   A    
C13   C15   A    
C25   C27   A    
N4    H19   S    
N3    H17   S    
Cu1   O4    S    
C28   C30   A    
Cu1   Cu2   S    
C1    O3    A    
Cu2   O3    S    
C20   C24   A    
C2    O4    A    
C15   H15   S    
C9    C11   A    
C22   H8    S    
C1    C12   S    
C20   C26   A    
C17   O7    A    
C8    C11   A    
C21   H7    S    
C2    C11   S    
C10   C12   A    
C22   C24   A    
C18   O8    A    
C13   H13   S    
C17   C19   S    
C6    H2    S    
Cu2   O2    S    
Cu1   O8    S    
C5    C29   A    
C3    N3    S    
C21   C23   A    
Cu1   O1    S    
C3    C32   A    
C19   C25   A    
C14   C16   A    
C7    C12   A    
C4    C31   A    
C27   C29   A    
C27   C31   A    
C23   H6    S    
C5    H1    S    
C28   C32   A    
C24   H5    S    
C14   N1    A    
C4    C6    A    
C2    O2    A    
C17   O5    A    
C7    H9    S    
Cu2   O6    S    
C1    O1    A    
C14   H14   S    
C22   C30   A    
C6    C30   A    
Cu2   O7    S    
C26   C28   A    
C18   O6    A    
N3    H18   S    
C16   N2    A    
C8    H10   S    
C16   H16   S    
C3    C5    A    
C7    C9    A    
N4    H20   S    
