data_mof_unit_68596.cif
_audit_creation_date              2012-12-11T14:04:10-0500
_audit_creation_method            fapswitch 2.2
_symmetry_space_group_name_H-M    P1
_symmetry_Int_Tables_number       1
_space_group_crystal_system       triclinic
_cell_length_a                    20.106341
_cell_length_b                    22.433377
_cell_length_c                    8.641388
_cell_angle_alpha                 89.712457
_cell_angle_beta                  105.246472
_cell_angle_gamma                 90.1271
_cell_volume                      3760.48988793

loop_
_atom_site_label
_atom_site_type_symbol
_atom_type_description
_atom_site_fract_x
_atom_site_fract_y
_atom_site_fract_z
_atom_type_partial_charge
Ba1   Ba    Ba6+2 0.999900 0.456810 0.844860 1.606045
Ba2   Ba    Ba6+2 0.999900 0.543190 0.344860 1.616083
Ba3   Ba    Ba6+2 0.499900 0.956810 0.844860 1.605888
Ba4   Ba    Ba6+2 0.499900 0.043190 0.344860 1.614047
C1    C     C_3   0.079455 0.190913 0.723352 -0.430502
C2    C     C_3   0.084750 0.821233 0.198448 -0.368289
C3    C     C_3   0.578054 0.689695 0.722081 -0.427452
C4    C     C_3   0.593118 0.314093 0.189488 -0.364540
C5    C     C_R   0.126105 0.693963 0.837905 0.037555
C6    C     C_R   0.137053 0.314130 0.335412 0.045410
C7    C     C_R   0.624521 0.194914 0.840530 0.027923
C8    C     C_R   0.637094 0.814416 0.335101 0.041919
C9    C     C_R   0.173567 0.738183 0.909444 -0.156977
C10   C     C_R   0.184478 0.269900 0.406920 -0.146305
C11   C     C_R   0.672988 0.238496 0.911344 -0.157458
C12   C     C_R   0.684327 0.770095 0.406678 -0.143294
C13   C     C_R   0.213766 0.733124 0.070865 0.002498
C14   C     C_R   0.217937 0.270116 0.573121 -0.008722
C15   C     C_R   0.713729 0.233087 0.072320 0.001037
C16   C     C_R   0.716764 0.769677 0.573351 -0.008729
C17   C     C_R   0.199004 0.682839 0.161004 -0.133630
C18   C     C_R   0.200047 0.318356 0.663773 -0.145409
C19   C     C_R   0.698803 0.182904 0.162647 -0.136002
C20   C     C_R   0.698334 0.817575 0.664310 -0.148471
C21   C     C_R   0.149355 0.639026 0.090241 0.062524
C22   C     C_R   0.152077 0.363121 0.590335 0.064596
C23   C     C_R   0.648930 0.139247 0.091669 0.065325
C24   C     C_R   0.651172 0.862854 0.590421 0.067217
C25   C     C_R   0.817779 0.268544 0.294618 -0.141253
C26   C     C_R   0.814025 0.729522 0.806358 -0.132512
C27   C     C_R   0.317139 0.768978 0.294459 -0.140049
C28   C     C_R   0.315137 0.229759 0.806443 -0.131431
C29   C     C_R   0.875352 0.304989 0.355256 0.019143
C30   C     C_R   0.870601 0.692368 0.870533 -0.015459
C31   C     C_R   0.374809 0.805271 0.355368 0.016962
C32   C     C_R   0.372019 0.192779 0.870114 -0.014683
C33   C     C_R   0.851378 0.360728 0.101313 0.111487
C34   C     C_R   0.847184 0.636561 0.612410 0.081273
C35   C     C_R   0.351451 0.860634 0.100846 0.112781
C36   C     C_R   0.348080 0.136791 0.612390 0.084527
C37   C     C_R   0.793261 0.323022 0.042475 -0.141674
C38   C     C_R   0.790366 0.675307 0.552943 -0.113306
C39   C     C_R   0.293399 0.822936 0.041583 -0.142086
C40   C     C_R   0.291414 0.175661 0.552835 -0.115286
C41   C     C_R   0.775348 0.275445 0.136645 -0.000549
C42   C     C_R   0.773610 0.723849 0.645404 0.023026
C43   C     C_R   0.275183 0.775579 0.135818 0.000435
C44   C     C_R   0.274738 0.224242 0.645296 0.023288
C45   C     C_3   0.993568 0.224674 0.041012 0.491741
C46   C     C_3   0.017224 0.790123 0.529918 0.527449
C47   C     C_3   0.494481 0.724278 0.039900 0.494823
C48   C     C_3   0.519252 0.291683 0.517013 0.521912
C49   C     C_R   0.892927 0.349787 0.257146 -0.205713
C50   C     C_R   0.886843 0.646493 0.771640 -0.227626
C51   C     C_R   0.392950 0.849600 0.256727 -0.206294
C52   C     C_R   0.388072 0.146862 0.771343 -0.228124
C53   C     C_3   0.978562 0.161155 0.975922 -0.358474
C54   C     C_3   0.014485 0.855148 0.474597 -0.379304
C55   C     C_3   0.480805 0.660108 0.978563 -0.365491
C56   C     C_3   0.521277 0.356288 0.460349 -0.370721
C57   C     C_3   0.213937 0.467393 0.247384 0.287941
C58   C     C_3   0.215777 0.532152 0.744914 0.278844
C59   C     C_3   0.713715 0.967595 0.254462 0.289823
C60   C     C_3   0.716315 0.031709 0.749243 0.278056
C61   C     C_3   0.285422 0.445634 0.237358 0.241858
C62   C     C_3   0.289568 0.552997 0.745922 0.247910
C63   C     C_3   0.784520 0.944059 0.244090 0.242199
C64   C     C_3   0.790264 0.052758 0.752533 0.250210
C65   C     C_3   0.758321 0.503360 0.824104 0.468532
C66   C     C_3   0.753826 0.502022 0.317988 0.506291
C67   C     C_3   0.259337 0.004677 0.824992 0.471599
C68   C     C_3   0.253663 0.002977 0.316301 0.506331
C69   C     C_3   0.682591 0.490985 0.738880 -0.360122
C70   C     C_3   0.675608 0.495963 0.288938 -0.390396
C71   C     C_3   0.184448 0.991902 0.733482 -0.354201
C72   C     C_3   0.175682 0.995115 0.286533 -0.389822
C73   C     C_3   0.036619 0.248102 0.699193 0.336560
C74   C     C_3   0.032078 0.775539 0.107572 0.308880
C75   C     C_3   0.536211 0.747412 0.698163 0.333893
C76   C     C_3   0.536808 0.270993 0.098939 0.310049
C77   C     C_R   0.113722 0.645393 0.928669 -0.267403
C78   C     C_R   0.120830 0.359926 0.426505 -0.274890
C79   C     C_R   0.612409 0.146154 0.930856 -0.267366
C80   C     C_R   0.620648 0.860114 0.426196 -0.275212
H1    H     H_    0.043797 0.272237 0.811089 0.115752
H2    H     H_    0.059334 0.733393 0.100220 0.031566
H3    H     H_    0.544344 0.771806 0.810031 0.113881
H4    H     H_    0.559981 0.227366 0.089571 0.029158
H5    H     H_    0.289527 0.458522 0.116073 0.072523
H6    H     H_    0.300017 0.534783 0.635672 0.069780
H7    H     H_    0.787241 0.952999 0.119013 0.073301
H8    H     H_    0.800456 0.036412 0.640239 0.065581
H9    H     H_    0.790205 0.496895 0.741768 0.075888
H10   H     H_    0.760790 0.530190 0.219566 0.038136
H11   H     H_    0.292717 0.999904 0.745509 0.066537
H12   H     H_    0.259858 0.031134 0.217313 0.039621
H13   H     H_    0.675912 0.444450 0.694387 0.082063
H14   H     H_    0.651433 0.540878 0.279808 0.093036
H15   H     H_    0.179218 0.945800 0.685514 0.081209
H16   H     H_    0.150304 0.039597 0.277269 0.093775
H17   H     H_    0.664248 0.522341 0.636897 0.092635
H18   H     H_    0.653035 0.472218 0.174503 0.079855
H19   H     H_    0.167035 0.024090 0.633109 0.095510
H20   H     H_    0.153841 0.971244 0.171808 0.080486
H21   H     H_    0.649845 0.497230 0.823894 0.106634
H22   H     H_    0.662999 0.470370 0.388011 0.109547
H23   H     H_    0.149969 0.996477 0.815273 0.103703
H24   H     H_    0.163548 0.969087 0.385461 0.110079
H25   H     H_    0.111664 0.189209 0.636444 0.089704
H26   H     H_    0.123041 0.830752 0.129412 0.059842
H27   H     H_    0.607475 0.685955 0.629908 0.088359
H28   H     H_    0.631854 0.321171 0.120110 0.062580
H29   H     H_    0.114615 0.188946 0.846422 0.132429
H30   H     H_    0.115918 0.805171 0.315650 0.169591
H31   H     H_    0.615656 0.688839 0.842224 0.129108
H32   H     H_    0.623199 0.296680 0.306786 0.168301
H33   H     H_    0.966204 0.130664 0.066365 0.097933
H34   H     H_    0.991046 0.883837 0.551672 0.078177
H35   H     H_    0.464955 0.630833 0.066850 0.096908
H36   H     H_    0.498425 0.387169 0.534180 0.081222
H37   H     H_    0.761107 0.333910 0.925119 0.073826
H38   H     H_    0.758924 0.665724 0.433850 0.054743
H39   H     H_    0.261606 0.833668 0.923826 0.074437
H40   H     H_    0.260061 0.166188 0.433420 0.056445
H41   H     H_    0.935406 0.379478 0.307452 0.062299
H42   H     H_    0.931409 0.618658 0.818890 0.060226
H43   H     H_    0.435790 0.879001 0.306681 0.061096
H44   H     H_    0.432178 0.118543 0.818938 0.059747
H45   H     H_    0.079457 0.610329 0.870196 0.065571
H46   H     H_    0.085391 0.394342 0.367986 0.065669
H47   H     H_    0.577575 0.111403 0.872699 0.065798
H48   H     H_    0.585629 0.894768 0.367461 0.065125
H49   H     H_    0.045897 0.150875 0.701833 0.134668
H50   H     H_    0.059820 0.864604 0.208447 0.099365
H51   H     H_    0.543910 0.650106 0.708873 0.136061
H52   H     H_    0.572055 0.359082 0.199134 0.099439
H53   H     H_    0.965763 0.256845 0.949084 0.076328
H54   H     H_    0.970355 0.768868 0.453728 0.099153
H55   H     H_    0.466785 0.755622 0.945691 0.077098
H56   H     H_    0.473329 0.271713 0.434116 0.108247
H57   H     H_    0.934616 0.161329 0.867045 0.134851
H58   H     H_    0.980487 0.859726 0.351319 0.123930
H59   H     H_    0.439730 0.659382 0.864166 0.135086
H60   H     H_    0.489234 0.361779 0.335244 0.120456
H61   H     H_    0.023716 0.141351 0.945637 0.122608
H62   H     H_    0.066581 0.873209 0.481087 0.106961
H63   H     H_    0.527777 0.639427 0.958900 0.123136
H64   H     H_    0.574782 0.371794 0.469190 0.107265
H65   H     H_    0.202816 0.451308 0.359627 -0.045807
H66   H     H_    0.199956 0.549755 0.849555 -0.042718
H67   H     H_    0.703765 0.954841 0.370723 -0.043372
H68   H     H_    0.700524 0.047390 0.855712 -0.037924
H69   H     H_    0.173674 0.451298 0.142061 0.042808
H70   H     H_    0.178866 0.547040 0.632705 0.068140
H71   H     H_    0.672514 0.949415 0.153527 0.035954
H72   H     H_    0.679459 0.048110 0.638727 0.068885
O1    O     O_2   0.866180 0.413660 0.823810 -0.493291
O2    O     O_2   0.866180 0.586340 0.323810 -0.507072
O3    O     O_2   0.366180 0.913660 0.823810 -0.494038
O4    O     O_2   0.366180 0.086340 0.323810 -0.508538
O5    O     O_3   0.219269 0.470338 0.754981 -0.664190
O6    O     O_3   0.218810 0.529391 0.251223 -0.646784
O7    O     O_3   0.719546 0.969914 0.751846 -0.665242
O8    O     O_3   0.718907 0.029450 0.246471 -0.646937
O9    O     O_3   0.065639 0.234333 0.077137 -0.627699
O10   O     O_3   0.075535 0.759857 0.509328 -0.594087
O11   O     O_3   0.566488 0.734466 0.077732 -0.627266
O12   O     O_3   0.578206 0.259668 0.507731 -0.596569
O13   O     O_3   0.077880 0.530130 0.092320 -0.499666
O14   O     O_3   0.077880 0.469870 0.592320 -0.494980
O15   O     O_3   0.577880 0.030130 0.092320 -0.498835
O16   O     O_3   0.577880 0.969870 0.592320 -0.494695
O17   O     O_3   0.922050 0.469730 0.097400 -0.498737
O18   O     O_3   0.922050 0.530270 0.597400 -0.481929
O19   O     O_3   0.422050 0.969730 0.097400 -0.499056
O20   O     O_3   0.422050 0.030270 0.597400 -0.485138
O21   O     O_3   0.976760 0.360270 0.628090 -0.501358
O22   O     O_3   0.976760 0.639730 0.128090 -0.472908
O23   O     O_3   0.476760 0.860270 0.628090 -0.501913
O24   O     O_3   0.476760 0.139730 0.128090 -0.472389
O25   O     O_2   0.869845 0.305253 0.681111 -0.493307
O26   O     O_2   0.878011 0.695744 0.200741 -0.482640
O27   O     O_2   0.369682 0.805640 0.681543 -0.492335
O28   O     O_2   0.380449 0.198450 0.202128 -0.487817
O29   O     O_3   0.776842 0.466480 0.960059 -0.669641
O30   O     O_3   0.780928 0.527923 0.468608 -0.665692
O31   O     O_3   0.276825 0.966647 0.958856 -0.669240
O32   O     O_3   0.279432 0.030030 0.465792 -0.668262
O33   O     O_3   0.966460 0.234956 0.635040 -0.628167
O34   O     O_3   0.974847 0.766486 0.170001 -0.591206
O35   O     O_3   0.465740 0.734886 0.635466 -0.627845
O36   O     O_3   0.479575 0.265983 0.162934 -0.595940
O37   O     O_2   0.133470 0.412980 0.865660 -0.454128
O38   O     O_2   0.133470 0.587020 0.365660 -0.446995
O39   O     O_2   0.633470 0.912980 0.865660 -0.452499
O40   O     O_2   0.633470 0.087020 0.365660 -0.448824
O41   O     O_3   0.022720 0.360150 0.061220 -0.482624
O42   O     O_3   0.022720 0.639850 0.561220 -0.471423
O43   O     O_3   0.522720 0.860150 0.061220 -0.481442
O44   O     O_3   0.522720 0.139850 0.561220 -0.467890
O45   O     O_2   0.142089 0.319773 0.020937 -0.510848
O46   O     O_2   0.150548 0.665387 0.558942 -0.489063
O47   O     O_2   0.642393 0.820139 0.020739 -0.510406
O48   O     O_2   0.650930 0.163769 0.569349 -0.488499
P1    P     P_3+3 0.859590 0.433890 0.993820 0.956275
P2    P     P_3+3 0.859590 0.566110 0.493820 0.981096
P3    P     P_3+3 0.359590 0.933890 0.993820 0.955566
P4    P     P_3+3 0.359590 0.066110 0.493820 0.977468
P5    P     P_3+3 0.140130 0.433190 0.695710 0.970429
P6    P     P_3+3 0.140130 0.566810 0.195710 0.980157
P7    P     P_3+3 0.640130 0.933190 0.695710 0.972163
P8    P     P_3+3 0.640130 0.066810 0.195710 0.980888
P9    P     P_3+3 0.090616 0.308812 0.122812 0.919342
P10   P     P_3+3 0.091185 0.691334 0.617269 0.980959
P11   P     P_3+3 0.590893 0.809096 0.122487 0.920174
P12   P     P_3+3 0.590723 0.191710 0.619982 0.976788
P13   P     P_3+3 0.925157 0.702768 0.085588 0.927422
P14   P     P_3+3 0.920457 0.300887 0.573655 0.905369
P15   P     P_3+3 0.426850 0.203344 0.084323 0.923671
P16   P     P_3+3 0.420176 0.801031 0.573886 0.905664
N1    N     N_2   0.339197 0.476222 0.357251 -0.392677
H73   H     H_    0.338680 0.471210 0.475413 0.186960
C81   C     C_3   0.405946 0.484218 0.326060 -0.222628
H74   H     H_    0.411069 0.531266 0.289416 0.112236
H75   H     H_    0.412826 0.453276 0.230810 0.111113
H76   H     H_    0.447108 0.475859 0.437981 0.090365
N2    N     N_2   0.341480 0.530353 0.885452 -0.402996
H77   H     H_    0.330707 0.535868 0.994858 0.191630
C82   C     C_3   0.375463 0.475012 0.866937 -0.217042
H78   H     H_    0.340991 0.436411 0.869074 0.130069
H79   H     H_    0.422714 0.469931 0.966285 0.091671
H80   H     H_    0.391282 0.474907 0.753357 0.092748
N3    N     N_2   0.839538 0.977282 0.354780 -0.391745
H81   H     H_    0.839887 0.976509 0.474457 0.187006
C83   C     C_3   0.906434 0.979917 0.319598 -0.217798
H82   H     H_    0.912525 0.024990 0.263924 0.109440
H83   H     H_    0.912544 0.942618 0.235211 0.111498
H84   H     H_    0.947469 0.975869 0.435529 0.090482
N4    N     N_2   0.841870 0.028026 0.889294 -0.401761
H85   H     H_    0.829768 0.029472 0.998110 0.195356
C84   C     C_3   0.877697 0.974921 0.861238 -0.225951
H86   H     H_    0.842456 0.935876 0.840044 0.129857
H87   H     H_    0.921346 0.965604 0.967070 0.092389
H88   H     H_    0.899079 0.981354 0.756410 0.095231
N5    N     N_2   0.293582 0.381422 0.251533 -0.446445
H89   H     H_    0.257165 0.357484 0.168972 0.207723
C85   C     C_3   0.314376 0.355213 0.410221 -0.238921
H90   H     H_    0.314230 0.305966 0.400016 0.126156
H91   H     H_    0.278762 0.369520 0.480849 0.092750
H92   H     H_    0.367550 0.368759 0.473526 0.125522
N6    N     N_2   0.295994 0.616966 0.734731 -0.433787
H93   H     H_    0.270687 0.635728 0.626178 0.217477
C86   C     C_3   0.296345 0.651748 0.874948 -0.206949
H94   H     H_    0.295079 0.699998 0.844728 0.127128
H95   H     H_    0.343112 0.642879 0.972320 0.108682
H96   H     H_    0.251788 0.639555 0.919732 0.085211
N7    N     N_2   0.792579 0.880150 0.271259 -0.444443
H97   H     H_    0.755230 0.854450 0.195584 0.204250
C87   C     C_3   0.814716 0.858475 0.435102 -0.241747
H98   H     H_    0.817656 0.809062 0.434656 0.125053
H99   H     H_    0.778226 0.873533 0.502451 0.093891
H100  H     H_    0.866958 0.874940 0.496118 0.121076
N8    N     N_2   0.797462 0.116870 0.748882 -0.435096
H101  H     H_    0.773422 0.137379 0.641848 0.216816
C88   C     C_3   0.797061 0.149288 0.892245 -0.211981
H102  H     H_    0.798438 0.197983 0.868556 0.125475
H103  H     H_    0.842185 0.137765 0.991716 0.110877
H104  H     H_    0.750626 0.137628 0.930079 0.089666
N9    N     N_2   0.765527 0.564983 0.872824 -0.489374
H105  H     H_    0.722845 0.584427 0.894240 0.173449
C89   C     C_3   0.827616 0.575770 0.996672 -0.132231
H106  H     H_    0.823499 0.619683 0.046165 0.132910
H107  H     H_    0.874010 0.567399 0.956621 0.091582
H108  H     H_    0.832805 0.544064 0.093169 0.161523
N10   N     N_2   0.783552 0.443249 0.314833 -0.469137
H109  H     H_    0.757043 0.415627 0.224753 0.165478
C90   C     C_3   0.810053 0.413548 0.467688 -0.102190
H110  H     H_    0.793780 0.365729 0.459325 0.064125
H111  H     H_    0.784677 0.429233 0.563819 0.115273
H112  H     H_    0.867773 0.420095 0.503811 0.144589
N11   N     N_2   0.264954 0.065785 0.878095 -0.489107
H113  H     H_    0.222393 0.082720 0.906424 0.173655
C91   C     C_3   0.327882 0.076460 0.999559 -0.135971
H114  H     H_    0.324626 0.120450 0.050449 0.135874
H115  H     H_    0.373645 0.068317 0.956972 0.088663
H116  H     H_    0.333881 0.043936 0.094695 0.163460
N12   N     N_2   0.285469 0.944967 0.314449 -0.469495
H117  H     H_    0.259622 0.916424 0.225762 0.164532
C92   C     C_3   0.315274 0.916210 0.466984 -0.109711
H118  H     H_    0.296271 0.868864 0.466308 0.067794
H119  H     H_    0.295832 0.935593 0.568129 0.127676
H120  H     H_    0.373396 0.921295 0.495005 0.138736
H121  H     H_    0.058306 0.278989 0.625446 -0.003464
H122  H     H_    0.012612 0.798610 0.993721 0.023960
H123  H     H_    0.557956 0.777669 0.623252 -0.004044
H124  H     H_    0.518251 0.293296 0.983976 0.018162
H125  H     H_    0.805976 0.236423 0.376248 0.076984
H126  H     H_    0.804162 0.763903 0.883619 0.063993
H127  H     H_    0.305178 0.736975 0.376158 0.077244
H128  H     H_    0.305038 0.263964 0.883857 0.063943
H129  H     H_    0.181718 0.773425 0.832230 0.071162
H130  H     H_    0.195376 0.236479 0.328428 0.083810
H131  H     H_    0.681233 0.273594 0.833987 0.072026
H132  H     H_    0.695818 0.737010 0.327985 0.085031
H133  H     H_    0.227200 0.674935 0.283793 0.081974
H134  H     H_    0.223945 0.323418 0.789938 0.091589
H135  H     H_    0.727013 0.174970 0.285480 0.081997
H136  H     H_    0.721581 0.822172 0.790878 0.095324
N13   N     N_2   0.966974 0.230749 0.179488 -0.457962
H137  H     H_    0.916461 0.217996 0.166709 0.163217
C93   C     C_3   0.012547 0.222407 0.336003 -0.198733
H138  H     H_    0.989461 0.191406 0.407491 0.133185
H139  H     H_    0.019537 0.267429 0.385705 0.078516
H140  H     H_    0.063366 0.203805 0.335839 0.121082
N14   N     N_2   0.016692 0.790336 0.695477 -0.473696
H141  H     H_    0.051866 0.815275 0.779279 0.171801
C94   C     C_3   0.967651 0.751807 0.736703 -0.289677
H142  H     H_    0.927141 0.779873 0.763543 0.103413
H143  H     H_    0.994902 0.722283 0.836288 0.052459
H144  H     H_    0.943603 0.721778 0.637426 0.106191
N15   N     N_2   0.466636 0.731502 0.176106 -0.457074
H145  H     H_    0.415973 0.718947 0.162024 0.162771
C95   C     C_3   0.511088 0.724541 0.334271 -0.198484
H146  H     H_    0.487845 0.693367 0.405004 0.132878
H147  H     H_    0.516529 0.769926 0.382339 0.077372
H148  H     H_    0.562578 0.706660 0.337466 0.120125
N16   N     N_2   0.512192 0.293855 0.678465 -0.475006
H149  H     H_    0.549133 0.313986 0.768891 0.171317
C96   C     C_3   0.461217 0.255486 0.712206 -0.276133
H150  H     H_    0.422226 0.283376 0.747064 0.106467
H151  H     H_    0.487614 0.223269 0.806580 0.050452
H152  H     H_    0.434044 0.228417 0.606991 0.105834

loop_
_geom_bond_atom_site_label_1
_geom_bond_atom_site_label_2
_ccdc_geom_bond_type
C36   P4    S    
C71   H23   S    
Ba4   O15   S    
C53   H61   S    
C83   H83   S    
C81   H74   S    
O19   P3    S    
C75   H3    S    
C81   H76   S    
C61   H5    S    
C60   H68   S    
O47   P11   D    
C65   H9    S    
C24   C80   A    
C89   H106  S    
C25   C29   A    
C8    C80   A    
N8    C88   S    
C5    C9    A    
C25   H125  S    
C7    C11   A    
C76   H124  S    
C8    C12   A    
C62   N2    S    
C66   C70   S    
N12   C92   S    
C7    P12   S    
C69   H17   S    
C48   N16   S    
C75   O35   S    
N5    H89   S    
C21   C77   A    
C76   O36   S    
Ba4   P4    S    
Ba2   P6    S    
C95   H146  S    
N6    H93   S    
C58   C62   S    
O1    P1    D    
O30   P2    S    
O6    P6    S    
C6    C78   A    
Ba3   O39   S    
C15   C41   S    
C25   C41   A    
C94   H144  S    
C15   C19   A    
C79   H47   S    
C82   H78   S    
C77   H45   S    
N2    H77   S    
C12   C16   A    
C12   H132  S    
C10   H130  S    
O46   P10   D    
C30   C50   A    
N9    C89   S    
C1    C73   S    
O42   P10   S    
O34   P13   S    
C65   O29   S    
C3    C75   S    
C85   H92   S    
Ba4   O40   S    
C58   H66   S    
C1    H29   S    
C67   O31   S    
C87   H99   S    
C46   H54   S    
C6    P9    S    
O3    P3    D    
C72   H16   S    
C18   H134  S    
Ba3   P3    S    
O20   P4    S    
C76   H4    S    
O8    P8    S    
C64   H8    S    
C52   H44   S    
C4    H32   S    
Ba2   O13   S    
C68   H12   S    
C57   C61   S    
Ba3   O20   S    
C67   H11   S    
N15   H145  S    
O31   P3    S    
O18   P2    S    
C37   C41   A    
C56   H64   S    
N7    C87   S    
C39   C43   A    
C40   C44   A    
C55   H63   S    
C45   H53   S    
O22   P13   S    
C47   O11   S    
O11   P11   S    
C30   P13   S    
C70   H14   S    
C24   P7    S    
C1    H49   S    
O43   P11   S    
C60   C64   S    
C82   H80   S    
C86   H94   S    
C2    C74   S    
C58   O5    S    
O4    P4    D    
C45   C53   S    
C84   H86   S    
C2    H30   S    
C48   C56   S    
Ba4   O19   S    
Ba2   P2    S    
N3    H81   S    
C75   H123  S    
C55   H59   S    
C90   H110  S    
C91   H116  S    
Ba3   O3    S    
C96   H151  S    
C68   N12   S    
C32   P15   S    
N13   C93   S    
Ba3   P7    S    
C26   C30   A    
Ba1   P5    S    
C57   O6    S    
C6    C10   A    
N16   C96   S    
C26   H126  S    
C80   H48   S    
C95   H147  S    
O40   P8    D    
N1    H73   S    
O38   P6    D    
C69   H21   S    
C11   H131  S    
C71   H15   S    
C92   H118  S    
C46   C54   S    
N4    C84   S    
C88   H103  S    
C49   H41   S    
C46   N14   S    
O9    P9    S    
N2    C82   S    
C51   H43   S    
C93   H139  S    
C83   H84   S    
Ba3   Ba4   S    
C39   H39   S    
N7    H97   S    
C17   C21   A    
Ba4   O16   S    
C14   C18   A    
C33   P1    S    
C26   C42   A    
Ba1   O41   S    
C20   C24   A    
C14   C44   S    
O35   P16   S    
C86   H96   S    
C81   H75   S    
N11   C91   S    
O48   P12   D    
C9    C13   A    
C84   H88   S    
C73   O33   S    
O12   P12   S    
O15   P8    S    
C57   H65   S    
O13   P6    S    
C23   P8    S    
O44   P12   S    
C33   C37   A    
C21   P6    S    
C3    H51   S    
C66   O30   S    
C73   H121  S    
Ba4   O44   S    
O26   P13   D    
C22   C78   A    
C90   H112  S    
C91   H114  S    
O24   P15   S    
Ba2   O22   S    
O36   P15   S    
C16   C42   S    
C47   H55   S    
C72   H20   S    
C89   H108  S    
C71   H19   S    
C4    H52   S    
C19   H135  S    
N4    H85   S    
O16   P7    S    
C61   N1    S    
C28   H128  S    
N8    H101  S    
C62   H6    S    
C11   C15   A    
C50   H42   S    
C66   H10   S    
C4    H28   S    
Ba2   O17   S    
Ba3   O16   S    
Ba1   O14   S    
C92   H120  S    
C38   C42   A    
C94   H143  S    
C35   C51   A    
C36   C52   A    
C46   O10   S    
C83   H82   S    
C65   C69   S    
C70   H18   S    
N14   H141  S    
C72   H24   S    
C27   C43   A    
N9    H105  S    
C28   C44   A    
Ba4   O24   S    
C60   O7    S    
C85   H91   S    
C59   O8    S    
C67   N11   S    
C13   C43   S    
C7    C79   A    
N13   H137  S    
O5    P5    S    
C40   H40   S    
Ba2   O38   S    
O2    P2    D    
C45   O9    S    
C32   C52   A    
C54   H58   S    
N12   H117  S    
C34   C50   A    
Ba2   O2    S    
C63   H7    S    
O45   P9    D    
C63   N7    S    
Ba2   O14   S    
N5    C85   S    
C27   C31   A    
C28   C32   A    
O41   P9    S    
O33   P14   S    
C53   H33   S    
C61   N5    S    
C62   N6    S    
O32   P4    S    
C55   H35   S    
C64   N4    S    
C5    P10   S    
C53   H57   S    
C23   C79   A    
N16   H149  S    
C82   H79   S    
C56   H60   S    
C1    H25   S    
C48   H56   S    
C3    H27   S    
C56   H36   S    
C13   C17   A    
C74   H122  S    
C65   N9    S    
N1    C81   S    
C18   C22   A    
O17   P1    S    
C8    P11   S    
C93   H138  S    
O27   P16   D    
O23   P16   S    
C91   H115  S    
C96   H150  S    
C10   C14   A    
Ba1   O37   S    
C74   O34   S    
O21   P14   S    
C68   C72   S    
C87   H100  S    
C31   P16   S    
C29   P14   S    
C69   H13   S    
N10   C90   S    
C34   C38   A    
N6    C86   S    
C37   H37   S    
C54   H34   S    
Ba1   Ba2   S    
C3    H31   S    
Ba3   O23   S    
C68   O32   S    
Ba1   O21   S    
O28   P15   D    
C16   C20   A    
N15   C95   S    
C35   P3    S    
Ba3   O43   S    
C19   C23   A    
C78   H46   S    
Ba1   P1    S    
C88   H102  S    
C74   H2    S    
C9    H129  S    
C2    H26   S    
C45   N13   S    
C29   C49   A    
C59   C63   S    
Ba1   O18   S    
N14   C94   S    
C31   C51   A    
O29   P1    S    
C59   H71   S    
C86   H95   S    
O7    P7    S    
C35   C39   A    
N11   H113  S    
C58   H70   S    
C84   H87   S    
C20   H136  S    
O39   P7    D    
C70   H22   S    
O37   P5    D    
C36   C40   A    
C59   H67   S    
C17   H133  S    
N3    C83   S    
C27   H127  S    
O10   P10   S    
N10   H109  S    
C90   H111  S    
C96   H152  S    
C47   C55   S    
C87   H98   S    
C38   H38   S    
C47   N15   S    
C89   H107  S    
C63   N3    S    
C66   N10   S    
C34   P2    S    
Ba2   O42   S    
C57   H69   S    
C85   H90   S    
C54   H62   S    
C60   H72   S    
Ba4   P8    S    
C95   H148  S    
Ba1   O1    S    
C33   C49   A    
C2    H50   S    
C48   O12   S    
C67   C71   S    
Ba3   O15   S    
Ba4   O4    S    
O14   P5    S    
Ba1   O13   S    
C92   H119  S    
C22   P5    S    
C94   H142  S    
C88   H104  S    
C73   H1    S    
C93   H140  S    
O25   P14   D    
C4    C76   S    
C64   N8    S    
C5    C77   A    
