data_mof_unit_41691.cif
_audit_creation_date              2012-12-10T19:48:42-0500
_audit_creation_method            fapswitch 2.2
_symmetry_space_group_name_H-M    P1
_symmetry_Int_Tables_number       1
_space_group_crystal_system       triclinic
_cell_length_a                    12.991348
_cell_length_b                    14.173504
_cell_length_c                    14.927033
_cell_angle_alpha                 90.813832
_cell_angle_beta                  90.581661
_cell_angle_gamma                 69.403052
_cell_volume                      2572.56707788

loop_
_atom_site_label
_atom_site_type_symbol
_atom_type_description
_atom_site_fract_x
_atom_site_fract_y
_atom_site_fract_z
_atom_type_partial_charge
C1    C     C_R   0.496138 0.501760 0.672534 0.872114
C2    C     C_R   0.826924 0.406211 0.497104 -0.271695
C3    C     C_R   0.428835 0.442629 0.902735 -0.012840
C4    C     C_R   0.705775 0.443436 0.498057 0.905255
C5    C     C_R   0.442149 0.439177 0.810334 -0.179247
C6    C     C_R   0.481094 0.507465 0.768478 -0.071734
C7    C     C_R   0.502508 0.582717 0.817827 -0.306796
C8    C     C_R   0.495179 0.585607 0.910399 0.065332
C9    C     C_R   0.458407 0.514566 0.952896 0.065754
C10   C     C_R   0.385316 0.581772 0.101774 0.567880
C11   C     C_R   0.398044 0.576601 0.194626 -0.361165
C12   C     C_R   0.982139 0.463866 0.506101 -0.051692
C13   C     C_R   0.488414 0.501753 0.232552 -0.187319
C14   C     C_R   0.565922 0.429331 0.179337 0.487975
C15   C     C_R   0.551314 0.432057 0.087498 -0.285861
C16   C     C_R   0.499300 0.499604 0.327918 0.901346
C17   C     C_R   0.462401 0.508171 0.049302 -0.047704
C18   C     C_R   0.590324 0.870239 0.523369 -0.167454
C19   C     C_R   0.588849 0.770614 0.529757 0.506361
C20   C     C_R   0.409259 0.821748 0.468020 -0.073577
C21   C     C_R   0.403306 0.923449 0.464795 -0.123395
C22   C     C_R   0.494468 0.949178 0.494148 -0.067027
C23   C     C_R   0.879185 0.471943 0.469201 -0.050539
C24   C     C_R   0.447761 0.121900 0.566819 -0.162168
C25   C     C_R   0.453065 0.219536 0.568656 0.084368
C26   C     C_R   0.540196 0.191126 0.427520 0.019922
C27   C     C_R   0.537029 0.092870 0.423261 -0.245449
C28   C     C_R   0.295286 0.556491 0.499035 0.862957
C29   C     C_R   0.490714 0.056787 0.493664 0.175633
C30   C     C_R   0.021646 0.685329 0.392617 -0.009117
C31   C     C_R   0.177757 0.595208 0.485436 -0.214879
C32   C     C_R   0.890143 0.311484 0.531879 0.338395
C33   C     C_R   0.000283 0.293718 0.557246 -0.169832
C34   C     C_R   0.021752 0.544059 0.488030 0.138298
C35   C     C_R   0.042569 0.373812 0.554207 0.451160
C36   C     C_2   0.531367 0.661398 0.958556 0.346963
C37   C     C_3   0.289598 0.752824 0.084604 0.060965
C38   C     C_3   0.182232 0.806995 0.134341 -0.326696
C39   C     C_3   0.172923 0.913641 0.162481 -0.850878
C40   C     C_3   0.738757 0.399198 0.235947 0.062566
C41   C     C_3   0.842831 0.343553 0.182718 -0.332749
C42   C     C_3   0.937227 0.378316 0.210788 -0.928749
C43   C     C_2   0.695187 0.887123 0.544015 0.379232
C44   C     C_3   0.684218 0.700189 0.656262 0.091534
C45   C     C_R   0.970894 0.616553 0.420222 0.027755
C46   C     C_3   0.759110 0.598218 0.691890 -0.294624
C47   C     C_3   0.786689 0.604697 0.790882 -0.916767
C48   C     C_2   0.303147 0.001002 0.427623 0.471517
C49   C     C_2   0.965631 0.773916 0.335021 0.383096
C50   C     C_2   0.120010 0.558608 0.630544 0.450436
C51   C     C_3   0.871518 0.159981 0.487948 0.119697
C52   C     C_3   0.832689 0.190815 0.391745 -0.398496
C53   C     C_3   0.847727 0.098605 0.332075 -0.865795
C54   C     C_3   0.164898 0.334621 0.680015 0.126460
C55   C     C_3   0.062914 0.368405 0.742119 -0.458801
C56   C     C_R   0.874716 0.614891 0.379132 -0.234030
C57   C     C_3   0.095738 0.374592 0.839881 -0.820141
C58   C     C_2   0.068903 0.192545 0.589468 0.399945
C59   C     C_2   0.385664 0.370224 0.946074 0.380524
C60   C     C_R   0.829042 0.545306 0.404265 -0.047656
C61   C     C_R   0.113798 0.552746 0.531755 0.011610
C62   C     C_R   0.130431 0.666591 0.419601 -0.174171
H1    H     H_    0.178463 0.706590 0.389417 0.191827
H2    H     H_    0.574268 0.218449 0.372120 0.145589
H3    H     H_    0.571400 0.045005 0.365836 0.139415
H4    H     H_    0.755193 0.547113 0.369159 0.128837
H5    H     H_    0.534499 0.726475 0.922758 0.059143
H6    H     H_    0.289121 0.793726 0.021558 0.164722
H7    H     H_    0.360761 0.756963 0.125050 0.162872
H8    H     H_    0.111420 0.810779 0.090291 0.240358
H9    H     H_    0.178610 0.763891 0.194932 0.253499
H10   H     H_    0.240990 0.911251 0.209095 0.274183
H11   H     H_    0.093552 0.951337 0.197216 0.296642
H12   H     H_    0.421504 0.383569 0.770742 0.179695
H13   H     H_    0.175958 0.958471 0.102782 0.244263
H14   H     H_    0.757594 0.389361 0.308451 0.131427
H15   H     H_    0.713797 0.481741 0.222489 0.134851
H16   H     H_    0.867906 0.261167 0.193720 0.235849
H17   H     H_    0.825559 0.357901 0.110117 0.225315
H18   H     H_    0.957952 0.361838 0.282644 0.264775
H19   H     H_    0.011055 0.337699 0.170157 0.270595
H20   H     H_    0.914379 0.460558 0.199897 0.270378
H21   H     H_    0.772755 0.824410 0.539906 0.109916
H22   H     H_    0.601323 0.719214 0.686687 0.117334
H23   H     H_    0.529705 0.636797 0.784419 0.146068
H24   H     H_    0.718666 0.758602 0.677241 0.146647
H25   H     H_    0.718153 0.541887 0.682726 0.213030
H26   H     H_    0.836787 0.571855 0.653210 0.256060
H27   H     H_    0.837166 0.653171 0.800128 0.295803
H28   H     H_    0.834109 0.528210 0.815947 0.265932
H29   H     H_    0.710583 0.636361 0.830918 0.248240
H30   H     H_    0.299416 0.078070 0.419617 0.104698
H31   H     H_    0.879176 0.796005 0.318420 0.058665
H32   H     H_    0.199085 0.541363 0.663860 0.039274
H33   H     H_    0.833277 0.105674 0.510706 0.207385
H34   H     H_    0.337956 0.630265 0.237318 0.159272
H35   H     H_    0.961408 0.118188 0.487919 0.152809
H36   H     H_    0.744756 0.239204 0.391379 0.257481
H37   H     H_    0.881591 0.233629 0.363644 0.213761
H38   H     H_    0.935980 0.050182 0.329102 0.299037
H39   H     H_    0.818342 0.123153 0.263217 0.266991
H40   H     H_    0.799394 0.054125 0.358230 0.264509
H41   H     H_    0.224185 0.369086 0.705726 0.155110
H42   H     H_    0.209554 0.252604 0.687202 0.178690
H43   H     H_    0.003557 0.442563 0.722549 0.269923
H44   H     H_    0.019687 0.313522 0.737587 0.199663
H45   H     H_    0.611464 0.377193 0.045561 0.172090
H46   H     H_    0.153969 0.300319 0.861958 0.280840
H47   H     H_    0.021489 0.396103 0.882755 0.250509
H48   H     H_    0.134872 0.432383 0.848456 0.282118
H49   H     H_    0.032959 0.149692 0.630487 0.089510
H50   H     H_    0.367594 0.376036 0.017146 0.081902
H51   H     H_    0.340877 0.801300 0.444265 0.191227
H52   H     H_    0.834657 0.664835 0.325381 0.124840
H53   H     H_    0.411657 0.096887 0.622609 0.151231
H54   H     H_    0.419045 0.269131 0.625000 0.114648
N1    N     N_R   0.500000 0.747530 0.500020 -0.136158
N2    N     N_R   0.499940 0.252470 0.500020 -0.094409
O1    O     O_R   0.499990 0.420530 0.630930 -0.625123
O2    O     O_3   0.295855 0.653662 0.061098 -0.651087
O3    O     O_3   0.657225 0.356778 0.216051 -0.652565
O4    O     O_2   0.697010 0.969336 0.567532 -0.567797
O5    O     O_3   0.680490 0.694497 0.561731 -0.628679
O6    O     O_2   0.223175 0.979808 0.405117 -0.576623
O7    O     O_2   0.015008 0.826840 0.307958 -0.592745
O8    O     O_2   0.036272 0.590794 0.674953 -0.607984
O9    O     O_3   0.839776 0.242086 0.550015 -0.625687
O10   O     O_3   0.147407 0.360440 0.587175 -0.636905
O11   O     O_2   0.164893 0.154310 0.567068 -0.584072
O12   O     O_R   0.499990 0.579480 0.630940 -0.614869
O13   O     O_2   0.369408 0.303016 0.902738 -0.597056
O14   O     O_R   0.653620 0.381060 0.499970 -0.570552
O15   O     O_R   0.653620 0.540010 0.499980 -0.558818
O16   O     O_R   0.500010 0.420520 0.369060 -0.608867
O17   O     O_R   0.500010 0.579470 0.369070 -0.629894
O18   O     O_R   0.346380 0.459990 0.500020 -0.591747
O19   O     O_R   0.346380 0.618940 0.500030 -0.622462
O20   O     O_2   0.562051 0.650996 0.036525 -0.591210
Zn1   Zn    Zn3+2 0.500000 0.393860 0.499990 0.980015
Zn2   Zn    Zn3+2 0.500000 0.606140 0.500010 0.959846

loop_
_geom_bond_atom_site_label_1
_geom_bond_atom_site_label_2
_ccdc_geom_bond_type
C11   H34   S    
C51   H35   S    
C38   H8    S    
C42   H18   S    
C33   C58   S    
C22   C29   S    
C37   H7    S    
C27   C29   A    
C43   H21   S    
C41   C42   S    
C31   C61   A    
C30   C45   A    
C42   H20   S    
O12   Zn2   S    
C25   N2    A    
C36   H5    S    
C7    C8    A    
C4    O14   A    
C7    H23   S    
O14   Zn1   S    
C40   O3    S    
C12   C23   A    
C19   O5    S    
C26   C27   A    
C37   C38   S    
C55   H43   S    
C3    C9    A    
C32   O9    S    
C54   H42   S    
C8    C36   S    
C20   H51   S    
C10   C17   A    
C37   H6    S    
C2    C32   A    
C18   C19   A    
C1    O1    A    
C15   H45   S    
C5    H12   S    
C26   H2    S    
C24   C29   A    
C54   C55   S    
C57   H47   S    
C45   C56   A    
C53   H39   S    
C8    C9    A    
C39   H10   S    
C50   O8    D    
C39   H13   S    
C21   C48   S    
C60   H4    S    
C14   O3    S    
C18   C22   A    
C13   C14   A    
C47   H27   S    
C31   C62   A    
O17   Zn2   S    
C42   H19   S    
O18   Zn1   S    
C44   H24   S    
C20   N1    A    
C44   C46   S    
C46   H26   S    
C53   H38   S    
C23   C60   A    
O19   Zn2   S    
C55   H44   S    
C58   H49   S    
C54   H41   S    
C38   C39   S    
C24   C25   A    
C1    O12   A    
C25   H54   S    
C41   H16   S    
C50   H32   S    
C44   H22   S    
C54   O10   S    
C34   C61   A    
C51   C52   S    
C2    C4    S    
C41   H17   S    
C62   H1    S    
C27   H3    S    
C57   H48   S    
C14   C15   A    
C53   H40   S    
C59   O13   D    
C59   H50   S    
C34   C45   A    
C12   C35   A    
C43   O4    D    
C24   H53   S    
C9    C17   S    
C40   C41   S    
C30   C49   S    
C55   C57   S    
C47   H28   S    
N1    Zn2   S    
C12   C34   A    
N2    Zn1   S    
O16   Zn1   S    
C52   C53   S    
C46   H25   S    
C15   C17   A    
C46   C47   S    
C52   H37   S    
C28   O18   A    
C47   H29   S    
C28   C31   S    
C28   O19   A    
C26   N2    A    
C3    C5    A    
C48   O6    D    
C6    C7    A    
C49   O7    D    
C1    C6    S    
C44   O5    S    
O1    Zn1   S    
C32   C33   A    
C30   C62   A    
C51   O9    S    
C18   C43   S    
C11   C13   A    
C5    C6    A    
C37   O2    S    
C52   H36   S    
C33   C35   A    
C16   O16   A    
C39   H11   S    
C35   O10   S    
C10   O2    S    
C10   C11   A    
C40   H14   S    
C57   H46   S    
C56   C60   A    
C20   C21   A    
C19   N1    A    
O15   Zn2   S    
C48   H30   S    
C13   C16   S    
C2    C23   A    
C50   C61   S    
C56   H52   S    
C40   H15   S    
C58   O11   D    
C49   H31   S    
C21   C22   A    
C16   O17   A    
C36   O20   D    
C38   H9    S    
C51   H33   S    
C4    O15   A    
C3    C59   S    
