data_mof_unit_45979.cif
_audit_creation_date              2013-03-05T15:55:10-0500
_audit_creation_method            fapswitch 2.2
_symmetry_space_group_name_H-M    P1
_symmetry_Int_Tables_number       1
_space_group_crystal_system       triclinic
_cell_length_a                    12.333432
_cell_length_b                    13.120992
_cell_length_c                    14.335298
_cell_angle_alpha                 78.758715
_cell_angle_beta                  100.937196
_cell_angle_gamma                 116.441849
_cell_volume                      2023.25960958

loop_
_atom_site_label
_atom_site_type_symbol
_atom_site_description
_atom_site_fract_x
_atom_site_fract_y
_atom_site_fract_z
_atom_type_partial_charge
O1    O     O_R   0.972510 0.318130 0.525390 -0.576876
O2    O     O_R   0.806530 0.359650 0.491290 -0.597625
C1    C     C_R   0.854761 0.286374 0.507731 0.770307
O3    O     O_R   0.083010 0.479240 0.641000 -0.557197
O4    O     O_R   0.917030 0.520750 0.606900 -0.572009
C2    C     C_R   0.999972 0.499753 0.668770 0.808888
Cu1   Cu    Cu3+1 0.098280 0.475420 0.520190 0.919136
Cu2   Cu    Cu3+1 0.901720 0.524580 0.479810 0.915095
O5    O     O_R   0.193470 0.640350 0.508710 -0.580638
O6    O     O_R   0.027490 0.681870 0.474610 -0.581329
O7    O     O_R   0.082970 0.479250 0.393100 -0.569145
O8    O     O_R   0.916990 0.520760 0.359000 -0.567636
C3    C     C_R   0.145210 0.713604 0.486997 0.801646
C4    C     C_R   0.000004 0.500259 0.331228 0.807369
C5    C     C_1   0.000071 0.499668 0.771191 -0.205132
C6    C     C_1   0.000032 0.499737 0.856639 -0.015266
C7    C     C_1   0.999938 0.499975 0.957293 -0.004482
C8    C     C_1   0.999839 0.500269 0.042686 -0.006612
C9    C     C_1   0.999748 0.500593 0.143309 -0.029624
C10   C     C_1   0.999819 0.500542 0.228787 -0.217330
C11   C     C_R   0.270489 0.024722 0.381700 -0.001823
H1    H     H_    0.090469 0.888185 0.392402 0.153717
C12   C     C_R   0.228167 0.835047 0.467661 -0.070060
C13   C     C_R   0.814535 0.084895 0.569031 -0.188925
C14   C     C_R   0.735563 0.969966 0.586000 -0.144991
C15   C     C_R   0.612505 0.932421 0.551672 -0.177962
C16   C     C_R   0.565875 0.009447 0.496002 0.086377
C17   C     C_R   0.649804 0.123142 0.469282 0.067039
C18   C     C_R   0.439217 0.977337 0.465887 0.047478
C19   C     C_R   0.398716 0.055449 0.402322 0.057321
C20   C     C_R   0.488136 0.159158 0.360852 -0.046833
C21   C     C_R   0.610811 0.192161 0.396317 -0.238991
C22   C     C_R   0.351645 0.869353 0.498722 -0.242550
C23   C     C_R   0.187475 0.913565 0.412229 -0.239560
C24   C     C_R   0.772609 0.163093 0.512647 -0.095396
H2    H     H_    0.376722 0.808609 0.548608 0.150282
H3    H     H_    0.908272 0.112922 0.601637 0.148458
H4    H     H_    0.557575 0.842006 0.568343 0.129687
H5    H     H_    0.769205 0.909930 0.628559 0.143522
H6    H     H_    0.676943 0.269962 0.361456 0.172251
C25   C     C_R   0.340469 0.322524 0.644092 -0.313821
H7    H     H_    0.162070 0.303057 0.657511 0.121523
H8    H     H_    0.540597 0.289279 0.678008 0.154215
H9    H     H_    0.336345 0.252820 0.700287 0.136988
N1    N     N_R   0.246290 0.438200 0.550780 -0.175242
C26   C     C_R   0.761536 0.646312 0.376569 0.082604
C27   C     C_R   0.666321 0.679102 0.348357 -0.271202
C28   C     C_R   0.562220 0.624257 0.395265 -0.203072
C29   C     C_R   0.552594 0.535728 0.471596 -0.012104
C30   C     C_R   0.652974 0.505533 0.498369 0.272033
C31   C     C_R   0.447192 0.475389 0.521545 -0.036393
C32   C     C_R   0.443341 0.384862 0.595405 0.166538
C33   C     C_R   0.542393 0.357471 0.620824 -0.285850
C34   C     C_R   0.645636 0.417582 0.574244 -0.179675
C35   C     C_R   0.344502 0.500558 0.501668 -0.009529
C36   C     C_R   0.242087 0.350644 0.620268 0.078258
N2    N     N_R   0.754310 0.561180 0.449760 -0.200839
H10   H     H_    0.339707 0.568441 0.447585 0.126091
H11   H     H_    0.842061 0.689068 0.339602 0.125617
H12   H     H_    0.490815 0.652432 0.369809 0.137549
H13   H     H_    0.673014 0.746825 0.289764 0.145244
H14   H     H_    0.717687 0.391961 0.600512 0.205289
C37   C     C_R   0.460716 0.230305 0.274140 0.119653
C38   C     C_R   0.493557 0.347097 0.276156 -0.134300
C39   C     C_R   0.467950 0.414228 0.194451 -0.126265
C40   C     C_R   0.411266 0.365737 0.109689 -0.102837
C41   C     C_R   0.381030 0.250292 0.106363 -0.128986
C42   C     C_R   0.406357 0.182832 0.188057 -0.131972
H15   H     H_    0.537056 0.385262 0.341395 0.140411
H16   H     H_    0.491931 0.503758 0.196908 0.134121
H17   H     H_    0.391243 0.417714 0.046481 0.123460
H18   H     H_    0.337765 0.213007 0.040526 0.121743
H19   H     H_    0.382530 0.093486 0.184652 0.120195
C43   C     C_R   0.217746 0.106396 0.334855 0.120765
C44   C     C_R   0.245041 0.205038 0.376187 -0.135767
C45   C     C_R   0.193959 0.281090 0.332069 -0.113725
C46   C     C_R   0.114310 0.258523 0.247518 -0.102179
C47   C     C_R   0.084760 0.159468 0.207087 -0.127366
C48   C     C_R   0.135485 0.083129 0.250831 -0.155464
H20   H     H_    0.306574 0.223377 0.441786 0.136520
H21   H     H_    0.216120 0.357654 0.363104 0.150314
H22   H     H_    0.075193 0.317572 0.213430 0.135213
H23   H     H_    0.022674 0.141914 0.141761 0.125149
H24   H     H_    0.112287 0.006853 0.218538 0.116511

loop_
_geom_bond_atom_site_label_1
_geom_bond_atom_site_label_2
_geom_bond_distance
_ccdc_geom_bond_type
C26   H11   1.081449 S    
C16   C18   1.425838 A    
C9    C10   1.225053 T    
Cu1   Cu2   2.709743 S    
C33   C34   1.382832 A    
Cu1   O7    1.788747 S    
C15   C16   1.420584 A    
C30   C34   1.406392 A    
Cu1   N1    2.042017 S    
C8    C9    1.443508 S    
C48   H24   1.083117 S    
O7    C4    1.311953 A    
C39   H16   1.082338 S    
C18   C22   1.401999 A    
C22   H2    1.075034 S    
C3    C12   1.464994 S    
C41   H18   1.082238 S    
O5    C3    1.302909 A    
H7    C36   1.081687 S    
C2    C5    1.467790 S    
C26   C27   1.389097 A    
C47   H23   1.082253 S    
H8    C33   1.084585 S    
C40   H17   1.082251 S    
N1    C36   1.354668 A    
C6    C7    1.443743 S    
C12   C22   1.389411 A    
C44   H20   1.083032 S    
C25   C32   1.398265 A    
C40   C41   1.397906 A    
O3    Cu1   1.789775 S    
C28   H12   1.077409 S    
H1    C23   1.084494 S    
C13   C24   1.401427 A    
C43   C44   1.405281 A    
C41   C42   1.398508 A    
C27   C28   1.390895 A    
C4    C10   1.467374 S    
C17   C21   1.404674 A    
C45   C46   1.396723 A    
C17   C24   1.420544 A    
O3    C2    1.312155 A    
C47   C48   1.397221 A    
C15   H4    1.076390 S    
C11   C23   1.399387 A    
C34   H14   1.064987 S    
C29   C31   1.430050 A    
C42   H19   1.083111 S    
C46   C47   1.396314 A    
C11   C43   1.482231 S    
C31   C32   1.418699 A    
O1    C1    1.307455 A    
C44   C45   1.398325 A    
C25   C36   1.384710 A    
C18   C19   1.431567 A    
C20   C37   1.483313 S    
Cu2   N2    2.030093 S    
C20   C21   1.394857 A    
C1    C24   1.473487 S    
C19   C20   1.420650 A    
Cu2   O8    1.789775 S    
C12   C23   1.390925 A    
C7    C8    1.225131 T    
C38   H15   1.079901 S    
C13   C14   1.385891 A    
C28   C29   1.411263 A    
O8    C4    1.311799 A    
C29   C30   1.426249 A    
C43   C48   1.406129 A    
C26   N2    1.358825 A    
C25   H9    1.083907 S    
C32   C33   1.387600 A    
C13   H3    1.083341 S    
Cu1   O5    1.939157 S    
C37   C42   1.405032 A    
O1    Cu1   1.950345 S    
C30   N2    1.378461 A    
O2    Cu2   1.939158 S    
O6    C3    1.305945 A    
C45   H21   1.079539 S    
C27   H13   1.082549 S    
O4    Cu2   1.788747 S    
C11   C19   1.432566 A    
C38   C39   1.397351 A    
O2    C1    1.304447 A    
C14   C15   1.390530 A    
C14   H5    1.082848 S    
O4    C2    1.311649 A    
C46   H22   1.080574 S    
C31   C35   1.411791 A    
C21   H6    1.082292 S    
C37   C38   1.404727 A    
N1    C35   1.359677 A    
Cu2   O6    1.950345 S    
C39   C40   1.397483 A    
C35   H10   1.076197 S    
C16   C17   1.412830 A    
C5    C6    1.225187 T    
