data_mof_unit_19036.cif
_audit_creation_date              2012-12-10T18:49:26-0500
_audit_creation_method            fapswitch 2.2
_symmetry_space_group_name_H-M    P1
_symmetry_Int_Tables_number       1
_space_group_crystal_system       triclinic
_cell_length_a                    9.841299
_cell_length_b                    10.749323
_cell_length_c                    13.620164
_cell_angle_alpha                 90.529484
_cell_angle_beta                  83.168508
_cell_angle_gamma                 89.409388
_cell_volume                      1430.45532478

loop_
_atom_site_label
_atom_site_type_symbol
_atom_type_description
_atom_site_fract_x
_atom_site_fract_y
_atom_site_fract_z
_atom_type_partial_charge
C1    C     C_R   0.499286 0.740101 0.498416 0.905038
C2    C     C_R   0.915157 0.566905 0.570297 0.543040
C3    C     C_1   0.542309 0.486857 0.211040 -0.204736
C4    C     C_1   0.456620 0.505527 0.789107 -0.201330
C5    C     C_2   0.548227 0.463019 0.020376 0.076476
C6    C     C_2   0.438659 0.510004 0.981345 0.088065
C7    C     C_1   0.443518 0.508706 0.876763 -0.030964
C8    C     C_1   0.551141 0.474873 0.123843 -0.066707
C9    C     C_R   0.615120 0.933347 0.517462 -0.387653
C10   C     C_R   0.387293 0.066776 0.471601 -0.377898
C11   C     C_R   0.619211 0.060979 0.519519 0.482319
C12   C     C_R   0.500790 0.259866 0.500330 0.922045
C13   C     C_R   0.383178 0.938585 0.470187 0.483060
C14   C     C_3   0.117832 0.310222 0.283558 0.046674
C15   C     C_3   0.230252 0.246699 0.213881 -0.829840
C16   C     C_3   0.874193 0.744567 0.668716 0.074200
C17   C     C_3   0.759491 0.813535 0.732714 -0.804522
C18   C     C_3   0.320163 0.576041 0.044381 -0.411259
C19   C     C_3   0.196210 0.604340 0.989017 -0.334447
C20   C     C_3   0.081541 0.668381 0.056972 -0.903969
C21   C     C_3   0.671369 0.402452 0.959674 -0.405297
C22   C     C_3   0.773810 0.500824 0.918227 -0.328636
C23   C     C_R   0.503193 0.127367 0.497352 -0.187346
C24   C     C_3   0.895921 0.441784 0.854392 -0.826761
C25   C     C_3   0.847168 0.107807 0.493269 0.104205
C26   C     C_3   0.966428 0.151525 0.545616 -0.773797
C27   C     C_3   0.227763 0.897617 0.360982 0.091265
C28   C     C_3   0.121995 0.801977 0.339438 -0.816408
C29   C     C_R   0.498224 0.872560 0.494835 -0.184901
C30   C     C_R   0.475638 0.501220 0.685671 0.908159
C31   C     C_R   0.524301 0.498720 0.314275 0.894550
C32   C     C_R   0.939862 0.435103 0.429577 -0.342629
C33   C     C_R   0.060333 0.565175 0.570030 -0.299559
C34   C     C_R   0.085951 0.432880 0.429491 0.545908
H1    H     H_    0.890449 0.383816 0.375601 0.148348
H2    H     H_    0.903319 0.799372 0.600501 0.138705
H3    H     H_    0.962174 0.738495 0.712581 0.135528
H4    H     H_    0.745483 0.773616 0.808020 0.229095
H5    H     H_    0.785549 0.913387 0.738711 0.225227
H6    H     H_    0.661619 0.805536 0.700347 0.263198
H7    H     H_    0.044441 0.606646 0.119236 0.262553
H8    H     H_    0.118508 0.756666 0.086785 0.259542
H9    H     H_    0.995027 0.690545 0.014532 0.247402
H10   H     H_    0.226984 0.666667 0.925730 0.226497
H11   H     H_    0.157033 0.516270 0.960167 0.228516
H12   H     H_    0.108159 0.612880 0.626706 0.161003
H13   H     H_    0.284736 0.517035 0.108778 0.212967
H14   H     H_    0.358438 0.664738 0.072865 0.201493
H15   H     H_    0.950476 0.375599 0.898592 0.244607
H16   H     H_    0.861331 0.391800 0.790208 0.278003
H17   H     H_    0.968158 0.515516 0.826153 0.246259
H18   H     H_    0.722948 0.567617 0.872384 0.246211
H19   H     H_    0.810964 0.552999 0.980369 0.215754
H20   H     H_    0.722879 0.337474 0.006958 0.196960
H21   H     H_    0.638340 0.345328 0.898495 0.209246
H22   H     H_    0.839735 0.166700 0.427414 0.133826
H23   H     H_    0.702070 0.881942 0.537984 0.196450
H24   H     H_    0.869995 0.010210 0.468019 0.118695
H25   H     H_    0.982779 0.086864 0.606371 0.244965
H26   H     H_    0.060630 0.153530 0.492298 0.210888
H27   H     H_    0.945243 0.246307 0.577187 0.257319
H28   H     H_    0.318282 0.886590 0.303806 0.123891
H29   H     H_    0.181522 0.991723 0.355666 0.134816
H30   H     H_    0.089129 0.819043 0.265532 0.198014
H31   H     H_    0.166649 0.706705 0.340368 0.266114
H32   H     H_    0.031052 0.808885 0.396058 0.241080
H33   H     H_    0.298225 0.118848 0.455356 0.198589
H34   H     H_    0.070733 0.384701 0.241901 0.140901
H35   H     H_    0.041446 0.238252 0.308696 0.124307
H36   H     H_    0.279388 0.171496 0.253047 0.238343
H37   H     H_    0.186203 0.205833 0.149664 0.205027
H38   H     H_    0.309218 0.315045 0.186653 0.260323
N1    N     N_R   0.142790 0.500030 0.500020 -0.118566
N2    N     N_R   0.857210 0.499970 0.499980 -0.114577
O1    O     O_R   0.385380 0.683250 0.500010 -0.566925
O2    O     O_3   0.828672 0.624681 0.645616 -0.580288
O3    O     O_3   0.725456 0.119262 0.559250 -0.590504
O4    O     O_3   0.262562 0.878145 0.457310 -0.590414
O5    O     O_R   0.614620 0.316750 0.499990 -0.587712
O6    O     O_R   0.614710 0.683220 0.500000 -0.615416
O7    O     O_R   0.385290 0.316780 0.500000 -0.592103
O8    O     O_R   0.368830 0.499990 0.640350 -0.632564
O9    O     O_R   0.631170 0.500010 0.359650 -0.631995
O10   O     O_R   0.598160 0.499960 0.640350 -0.543487
O11   O     O_R   0.401840 0.500040 0.359650 -0.563569
O12   O     O_3   0.175784 0.360633 0.364827 -0.576342
Zn1   Zn    Zn3+2 0.346870 0.500020 0.500000 0.997539
Zn2   Zn    Zn3+2 0.653130 0.499980 0.500000 0.989913

loop_
_geom_bond_atom_site_label_1
_geom_bond_atom_site_label_2
_ccdc_geom_bond_type
C31   O11   A    
C19   C20   S    
C25   H22   S    
C27   O4    S    
C18   H13   S    
C20   H7    S    
C10   H33   S    
C15   H38   S    
C12   C23   S    
C25   O3    S    
C13   C29   A    
C26   H27   S    
C17   H5    S    
C21   H20   S    
O8    Zn1   S    
C12   O5    A    
C31   O9    A    
C18   C19   S    
C34   O12   S    
N1    Zn1   S    
C11   O3    S    
C16   C17   S    
C26   H25   S    
C2    N2    A    
C9    C29   A    
C16   H3    S    
C24   H17   S    
O9    Zn2   S    
C21   C22   S    
C33   H12   S    
C4    C7    T    
O5    Zn2   S    
C22   H19   S    
O11   Zn1   S    
C24   H16   S    
C6    C18   S    
C1    O1    A    
C32   H1    S    
C14   O12   S    
C3    C8    T    
C21   H21   S    
C25   C26   S    
C17   H6    S    
C32   C34   A    
C30   O8    A    
C28   H32   S    
C27   H28   S    
C1    C29   S    
C3    C31   S    
C9    C11   A    
O7    Zn1   S    
C27   H29   S    
C28   H30   S    
C2    C33   A    
C33   N1    A    
C14   H35   S    
C22   C24   S    
C25   H24   S    
C20   H9    S    
C2    O2    S    
C19   H10   S    
C22   H18   S    
O1    Zn1   S    
C24   H15   S    
C15   H36   S    
C13   O4    S    
C16   O2    S    
O10   Zn2   S    
C10   C13   A    
C18   H14   S    
C5    C8    S    
C20   H8    S    
C19   H11   S    
C6    C7    S    
C10   C23   A    
C15   H37   S    
C28   H31   S    
O6    Zn2   S    
C16   H2    S    
C32   N2    A    
C5    C6    D    
C11   C23   A    
C12   O7    A    
C9    H23   S    
C17   H4    S    
C30   O10   A    
C34   N1    A    
C5    C21   S    
C27   C28   S    
C1    O6    A    
C14   H34   S    
C14   C15   S    
N2    Zn2   S    
C26   H26   S    
C4    C30   S    
