data_mof_unit_17409.cif
_audit_creation_date              2012-12-10T17:42:44-0500
_audit_creation_method            fapswitch 2.2
_symmetry_space_group_name_H-M    P1
_symmetry_Int_Tables_number       1
_space_group_crystal_system       triclinic
_cell_length_a                    10.033204
_cell_length_b                    10.706712
_cell_length_c                    12.910985
_cell_angle_alpha                 91.118091
_cell_angle_beta                  72.071191
_cell_angle_gamma                 89.389676
_cell_volume                      1319.12856486

loop_
_atom_site_label
_atom_site_type_symbol
_atom_type_description
_atom_site_fract_x
_atom_site_fract_y
_atom_site_fract_z
_atom_type_partial_charge
Br1   Br    Br    0.122680 0.875285 0.256334 -0.492246
Br2   Br    Br    0.907143 0.297477 0.345054 -0.403318
Br3   Br    Br    0.926932 0.366399 0.743661 -0.432472
Br4   Br    Br    0.981332 0.554145 0.919626 -0.451958
Br5   Br    Br    0.209537 0.227277 0.755920 -0.398236
Br6   Br    Br    0.059816 0.235870 0.033741 -0.351365
C1    C     C_R   0.503071 0.738684 0.489136 0.930369
C2    C     C_R   0.396104 0.401397 0.801212 -0.261233
C3    C     C_R   0.350687 0.877818 0.351191 0.468446
C4    C     C_R   0.428344 0.463964 0.694651 0.936227
C5    C     C_R   0.257773 0.950660 0.313739 0.255284
C6    C     C_R   0.271554 0.078871 0.308946 -0.240838
C7    C     C_R   0.367444 0.135810 0.350924 -0.230475
C8    C     C_R   0.436278 0.067861 0.413111 0.065827
C9    C     C_R   0.431005 0.936033 0.412623 -0.070490
C10   C     C_R   0.508795 0.871289 0.471944 -0.108777
C11   C     C_R   0.593244 0.935715 0.522423 -0.182396
C12   C     C_R   0.460906 0.385782 0.966493 0.068503
C13   C     C_R   0.594174 0.062754 0.524461 -0.161213
C14   C     C_R   0.512349 0.128669 0.474473 -0.009858
C15   C     C_R   0.818230 0.689285 0.630986 0.566890
C16   C     C_R   0.503676 0.260949 0.492284 0.838420
C17   C     C_R   0.882039 0.791661 0.666057 -0.272035
C18   C     C_R   0.018108 0.782896 0.666573 -0.220573
C19   C     C_R   0.095936 0.677457 0.622978 -0.056823
C20   C     C_R   0.049334 0.589178 0.560687 0.142170
C21   C     C_R   0.904450 0.591462 0.562295 0.021791
C22   C     C_R   0.954912 0.417005 0.438885 0.329076
C23   C     C_R   0.499733 0.391404 0.853094 -0.041054
C24   C     C_R   0.096349 0.417158 0.439564 -0.070382
C25   C     C_R   0.577547 0.495691 0.295947 0.905582
C26   C     C_R   0.802928 0.486026 0.000714 0.253844
C27   C     C_R   0.625257 0.477654 0.177731 -0.228732
C28   C     C_R   0.272103 0.337955 0.848747 0.293222
C29   C     C_R   0.231551 0.317204 0.961360 0.343140
C30   C     C_R   0.321157 0.351302 0.021575 -0.263214
C31   C     C_3   0.841282 0.685755 0.173022 -0.166475
C32   C     C_3   0.444222 0.743545 0.207607 -0.253252
C33   C     C_3   0.617567 0.711303 0.780411 -0.285959
C34   C     C_R   0.564967 0.414146 0.016962 0.041644
C35   C     C_R   0.706939 0.433384 0.951749 -0.080331
C36   C     C_R   0.744066 0.398154 0.840464 0.301778
C37   C     C_R   0.640690 0.374486 0.793766 -0.182592
C38   C     C_R   0.529692 0.430669 0.129177 -0.339730
C39   C     C_R   0.761483 0.508040 0.113599 0.486421
H1    H     H_    0.211290 0.134212 0.269334 0.215534
H2    H     H_    0.671334 0.341356 0.709777 0.192869
H3    H     H_    0.653892 0.888277 0.566448 0.195162
H4    H     H_    0.759979 0.711435 0.250908 0.146706
H5    H     H_    0.816890 0.730796 0.103653 0.134449
H6    H     H_    0.941410 0.724594 0.176496 0.250920
H7    H     H_    0.557688 0.738131 0.196965 0.115989
H8    H     H_    0.425486 0.821095 0.157212 0.165245
H9    H     H_    0.412167 0.657450 0.173698 0.214902
H10   H     H_    0.604475 0.813413 0.797778 0.157465
H11   H     H_    0.681169 0.667868 0.827709 0.166785
H12   H     H_    0.385449 0.233641 0.334545 0.172023
H13   H     H_    0.511253 0.671706 0.809810 0.196944
H14   H     H_    0.654233 0.109669 0.570137 0.171349
H15   H     H_    0.821357 0.873461 0.704589 0.170641
H16   H     H_    0.060995 0.854986 0.706402 0.205974
H17   H     H_    0.192320 0.667896 0.640039 0.218867
H18   H     H_    0.169967 0.349638 0.389318 0.140625
H19   H     H_    0.425256 0.412181 0.180571 0.185436
H20   H     H_    0.284040 0.336759 0.108080 0.171313
N1    N     N_R   0.856860 0.501200 0.500990 -0.134830
N2    N     N_R   0.142450 0.501280 0.501020 -0.106144
O1    O     O_R   0.385310 0.683220 0.500000 -0.599485
O2    O     O_3   0.368581 0.753336 0.319978 -0.571775
O3    O     O_3   0.674111 0.686493 0.666705 -0.569354
O4    O     O_R   0.614640 0.683250 0.500010 -0.575978
O5    O     O_R   0.328400 0.499950 0.653610 -0.586249
O6    O     O_R   0.557730 0.499970 0.653620 -0.567974
O7    O     O_R   0.385360 0.316750 0.499990 -0.607607
O8    O     O_R   0.614690 0.316780 0.500000 -0.616062
O9    O     O_R   0.442270 0.500030 0.346380 -0.604985
O10   O     O_R   0.671600 0.500050 0.346390 -0.546048
O11   O     O_3   0.857870 0.554660 0.160754 -0.542473
Zn1   Zn    Zn3+2 0.346880 0.499980 0.499990 1.013641
Zn2   Zn    Zn3+2 0.653120 0.500020 0.500010 1.033514

loop_
_geom_bond_atom_site_label_1
_geom_bond_atom_site_label_2
_ccdc_geom_bond_type
Br3   C36   S    
C18   H16   S    
C27   C39   A    
C35   C36   A    
C13   C14   A    
Br1   C5    S    
C11   H3    S    
C38   H19   S    
C20   C21   A    
C2    C23   A    
C3    O2    S    
O5    Zn1   S    
C1    O4    A    
C31   H6    S    
C4    O6    A    
C7    H12   S    
C9    C10   A    
Br6   C29   S    
C28   C29   A    
C26   C39   A    
C12   C34   A    
C1    O1    A    
C33   O3    S    
C33   H10   S    
C29   C30   A    
C10   C11   A    
C26   C35   A    
O9    Zn1   S    
C39   O11   S    
O8    Zn2   S    
C24   N2    A    
O1    Zn1   S    
C15   C21   A    
C32   O2    S    
C7    C8    A    
C23   C37   A    
C16   O8    A    
O4    Zn2   S    
C25   O10   A    
C17   H15   S    
C8    C14   A    
N2    Zn1   S    
C18   C19   A    
C6    H1    S    
C30   H20   S    
C13   H14   S    
C19   C20   A    
C33   H13   S    
C22   N1    A    
C31   H4    S    
C33   H11   S    
C32   H9    S    
C17   C18   A    
Br5   C28   S    
C25   C27   S    
C12   C23   A    
C2    C28   A    
C3    C5    A    
Br4   C26   S    
C1    C10   S    
C14   C16   S    
O7    Zn1   S    
C15   C17   A    
C36   C37   A    
C20   N2    A    
O10   Zn2   S    
C34   C35   A    
C27   C38   A    
C5    C6    A    
N1    Zn2   S    
C31   O11   S    
C15   O3    S    
C22   C24   A    
C3    C9    A    
C21   N1    A    
C31   H5    S    
C25   O9    A    
C32   H8    S    
C12   C30   A    
C11   C13   A    
O6    Zn2   S    
C19   H17   S    
C34   C38   A    
C32   H7    S    
C6    C7    A    
C2    C4    S    
C16   O7    A    
C8    C9    A    
Br2   C22   S    
C24   H18   S    
C37   H2    S    
C4    O5    A    
