data_mof_unit_27920.cif
_audit_creation_date              2012-12-10T18:19:05-0500
_audit_creation_method            fapswitch 2.2
_symmetry_space_group_name_H-M    P1
_symmetry_Int_Tables_number       1
_space_group_crystal_system       triclinic
_cell_length_a                    15.00165
_cell_length_b                    14.230928
_cell_length_c                    11.493567
_cell_angle_alpha                 89.894482
_cell_angle_beta                  87.032495
_cell_angle_gamma                 90.406685
_cell_volume                      2450.37370745

loop_
_atom_site_label
_atom_site_type_symbol
_atom_type_description
_atom_site_fract_x
_atom_site_fract_y
_atom_site_fract_z
_atom_type_partial_charge
C1    C     C_R   0.327289 0.499605 0.504154 0.958819
C2    C     C_R   0.449185 0.200567 0.582701 0.172203
C3    C     C_R   0.437411 0.798754 0.567260 0.163567
C4    C     C_R   0.550778 0.201507 0.417277 0.167856
C5    C     C_R   0.441030 0.898892 0.576587 -0.013355
C6    C     C_R   0.557736 0.101362 0.421459 -0.014157
C7    C     C_R   0.559636 0.899940 0.423905 -0.014519
C8    C     C_R   0.442680 0.100264 0.579007 -0.015224
C9    C     C_R   0.500348 0.949850 0.500283 -0.079924
C10   C     C_R   0.500294 0.050408 0.500296 -0.080387
C11   C     C_R   0.384276 0.949193 0.657211 0.161410
C12   C     C_R   0.672436 0.500325 0.496525 0.962380
C13   C     C_R   0.618247 0.050984 0.345681 0.162193
C14   C     C_R   0.616610 0.951433 0.343604 0.160391
C15   C     C_R   0.382436 0.048678 0.655054 0.161085
C16   C     C_R   0.499649 0.500051 0.282260 0.910356
C17   C     C_R   0.502930 0.499870 0.717458 0.911863
C18   C     C_1   0.501200 0.500121 0.161618 -0.202964
C19   C     C_1   0.504957 0.499560 0.837928 -0.206412
C20   C     C_1   0.503109 0.499935 0.059156 -0.011320
C21   C     C_1   0.504863 0.499638 0.940298 -0.005057
C22   C     C_R   0.816838 0.475778 0.394813 0.124591
C23   C     C_R   0.911025 0.480350 0.393146 0.038384
C24   C     C_R   0.181869 0.527293 0.605678 0.114043
C25   C     C_R   0.767781 0.501803 0.495752 -0.114670
C26   C     C_R   0.231576 0.497851 0.506275 -0.113234
C27   C     C_R   0.806672 0.527730 0.597925 -0.000148
C28   C     C_R   0.191503 0.468694 0.405977 0.005987
C29   C     C_R   0.900333 0.524767 0.603154 0.006819
C30   C     C_R   0.098885 0.480679 0.398104 0.035404
C31   C     C_R   0.952541 0.502567 0.499099 -0.066470
C32   C     C_R   0.046433 0.501507 0.501401 -0.052295
C33   C     C_3   0.734382 0.509776 0.221738 -0.759183
C34   C     C_R   0.088188 0.519768 0.607555 -0.006351
C35   C     C_3   0.280014 0.523637 0.772558 -0.808728
C36   C     C_3   0.902046 0.651732 0.859802 -0.826364
C37   C     C_3   0.131723 0.568780 0.141636 -0.821465
C38   C     C_3   0.375510 0.877453 0.848276 -0.792749
C39   C     C_3   0.764408 0.123903 0.328661 -0.800822
C40   C     C_3   0.626495 0.880919 0.152289 -0.791585
C41   C     C_3   0.235704 0.117802 0.672658 -0.794219
C42   C     C_R   0.943135 0.538704 0.709137 0.216106
C43   C     C_R   0.057859 0.471658 0.290865 0.166332
C44   C     C_R   0.035116 0.528383 0.712267 0.051115
C45   C     C_R   0.964646 0.466807 0.288957 0.041159
C46   C     C_R   0.562818 0.799685 0.432813 0.170395
H1    H     H_    0.792019 0.378864 0.261834 0.245232
H2    H     H_    0.760533 0.621127 0.722490 0.225259
H3    H     H_    0.214865 0.364454 0.285230 0.202261
H4    H     H_    0.263095 0.472068 0.248944 0.216513
H5    H     H_    0.901707 0.506543 0.879538 0.240519
H6    H     H_    0.852295 0.662224 0.933448 0.239599
H7    H     H_    0.889029 0.703686 0.790536 0.245253
H8    H     H_    0.969656 0.664416 0.891607 0.245237
H9    H     H_    0.090324 0.430333 0.118865 0.223472
H10   H     H_    0.178528 0.564525 0.063840 0.234676
H11   H     H_    0.164591 0.609951 0.209649 0.254057
H12   H     H_    0.788438 0.555686 0.183716 0.252551
H13   H     H_    0.070550 0.605837 0.117113 0.239908
H14   H     H_    0.102255 0.573310 0.853597 0.195702
H15   H     H_    0.110524 0.453841 0.822727 0.207310
H16   H     H_    0.945137 0.505438 0.120839 0.202013
H17   H     H_    0.945224 0.387004 0.145582 0.168565
H18   H     H_    0.613593 0.695421 0.328390 0.228002
H19   H     H_    0.679618 0.730106 0.439531 0.209854
H20   H     H_    0.454943 0.270975 0.735004 0.207331
H21   H     H_    0.369796 0.305420 0.649323 0.229697
H22   H     H_    0.385735 0.693002 0.669691 0.245194
H23   H     H_    0.684904 0.554664 0.269125 0.224741
H24   H     H_    0.319835 0.729350 0.559517 0.212770
H25   H     H_    0.629180 0.307805 0.348691 0.246155
H26   H     H_    0.543474 0.271381 0.264569 0.208487
H27   H     H_    0.266633 0.924669 0.759316 0.227614
H28   H     H_    0.330914 0.833673 0.906706 0.239709
H29   H     H_    0.393076 0.942792 0.894889 0.226436
H30   H     H_    0.437244 0.837022 0.826621 0.255770
H31   H     H_    0.693308 0.074954 0.189525 0.229264
H32   H     H_    0.807770 0.167822 0.268836 0.234877
H33   H     H_    0.800919 0.059062 0.350328 0.227769
H34   H     H_    0.700881 0.473817 0.150139 0.233392
H35   H     H_    0.749402 0.164651 0.409619 0.255868
H36   H     H_    0.734773 0.929122 0.242729 0.228750
H37   H     H_    0.671402 0.838131 0.094086 0.239581
H38   H     H_    0.609276 0.946297 0.105780 0.225801
H39   H     H_    0.564604 0.839522 0.173068 0.255568
H40   H     H_    0.308028 0.071211 0.811560 0.228747
H41   H     H_    0.192089 0.160595 0.732505 0.238476
H42   H     H_    0.199817 0.051923 0.651700 0.225402
H43   H     H_    0.249901 0.158770 0.591313 0.256208
H44   H     H_    0.197446 0.637411 0.726576 0.228940
H45   H     H_    0.246422 0.517187 0.860276 0.226195
H46   H     H_    0.342205 0.563352 0.784111 0.241278
H47   H     H_    0.295670 0.452305 0.738596 0.235153
H48   H     H_    0.749807 0.503014 0.761826 0.205562
N1    N     N_R   0.500000 0.750030 0.500000 -0.146870
N2    N     N_3   0.925109 0.452116 0.179283 -0.470187
N3    N     N_3   0.636286 0.751484 0.376703 -0.425638
N4    N     N_3   0.406552 0.249298 0.678660 -0.425416
N5    N     N_3   0.363481 0.749748 0.622689 -0.423094
N6    N     N_3   0.592448 0.250851 0.320393 -0.424556
N7    N     N_2   0.330439 0.899825 0.743519 -0.294248
N8    N     N_2   0.682875 0.100350 0.272958 -0.291697
N9    N     N_2   0.670896 0.903225 0.257710 -0.292340
N10   N     N_2   0.317774 0.096679 0.727869 -0.292094
N11   N     N_R   0.500000 0.249970 0.500000 -0.147314
N12   N     N_2   0.769173 0.440373 0.299557 -0.310421
N13   N     N_2   0.225755 0.576177 0.695002 -0.317926
N14   N     N_3   0.747297 0.552782 0.695170 -0.452694
N15   N     N_3   0.246690 0.424409 0.315914 -0.442601
N16   N     N_2   0.893989 0.556812 0.816144 -0.316168
N17   N     N_2   0.110023 0.474878 0.183409 -0.324884
N18   N     N_3   0.070050 0.513299 0.824678 -0.480972
O1    O     O_R   0.367850 0.580280 0.500030 -0.632571
O2    O     O_R   0.632150 0.419720 0.499970 -0.628448
O3    O     O_R   0.632150 0.580280 0.499970 -0.640003
O4    O     O_R   0.367850 0.419720 0.500030 -0.624624
O5    O     O_R   0.500010 0.580270 0.334450 -0.633437
O6    O     O_R   0.499990 0.419730 0.665550 -0.637259
O7    O     O_R   0.499990 0.580270 0.665550 -0.623487
O8    O     O_R   0.500010 0.419730 0.334450 -0.625784
Zn1   Zn    Zn3+2 0.500000 0.607200 0.500000 0.916214
Zn2   Zn    Zn3+2 0.500000 0.392800 0.500000 0.920947

loop_
_geom_bond_atom_site_label_1
_geom_bond_atom_site_label_2
_ccdc_geom_bond_type
C41   H43   S    
C33   H12   S    
C23   C45   A    
H16   N2    S    
C29   C42   A    
C27   C29   A    
C40   H38   S    
H40   N10   S    
C38   H30   S    
H5    N16   S    
H48   N14   S    
C1    O1    A    
O3    Zn1   S    
C19   C21   T    
C24   C26   A    
H44   N13   S    
C5    C11   A    
C38   N7    S    
C35   N13   S    
C16   O8    A    
C38   H28   S    
C39   H33   S    
O6    Zn2   S    
O5    Zn1   S    
C36   H7    S    
H21   N4    S    
C37   H10   S    
C11   C15   A    
C7    C14   A    
C46   N1    A    
C22   C25   A    
H36   N9    S    
C1    O4    A    
C15   N10   S    
C9    C10   A    
C36   H6    S    
C33   H23   S    
C12   O3    A    
C35   H46   S    
N1    Zn1   S    
H27   N7    S    
C13   C14   A    
C40   H37   S    
H31   N8    S    
C42   C44   A    
O8    Zn2   S    
C12   O2    A    
C38   H29   S    
C35   H47   S    
C41   H41   S    
C7    C46   A    
C34   C44   A    
C39   H35   S    
C4    C6    A    
C22   N12   S    
H17   N2    S    
H4    N15   S    
C24   C34   A    
C32   C34   A    
C40   H39   S    
C39   H32   S    
C5    C9    A    
H14   N18   S    
C31   C32   A    
H1    N12   S    
C11   N7    S    
C24   N13   S    
C43   C45   A    
C37   H13   S    
O7    Zn1   S    
O4    Zn2   S    
C17   O6    A    
C44   N18   S    
C16   C18   S    
H18   N3    S    
C46   N3    S    
C8    C15   A    
C4    N6    S    
C36   N16   S    
C1    C26   S    
C30   C43   A    
H24   N5    S    
C39   N8    S    
H3    N15   S    
H26   N6    S    
C4    N11   A    
C7    C9    A    
C41   H42   S    
H9    N17   S    
C2    C8    A    
C33   N12   S    
C3    C5    A    
C6    C10   A    
C33   H34   S    
C28   N15   S    
C25   C27   A    
H25   N6    S    
C2    N11   A    
C26   C28   A    
C41   N10   S    
C12   C25   S    
H20   N4    S    
C28   C30   A    
C42   N16   S    
H22   N5    S    
H19   N3    S    
C29   C31   A    
C16   O5    A    
C40   N9    S    
C30   C32   A    
H15   N18   S    
C14   N9    S    
H2    N14   S    
C27   N14   S    
O2    Zn2   S    
C17   C19   S    
N11   Zn2   S    
C18   C20   T    
C37   N17   S    
C36   H8    S    
C17   O7    A    
C43   N17   S    
C3    N5    S    
O1    Zn1   S    
C20   C21   S    
C2    N4    S    
C8    C10   A    
C22   C23   A    
C3    N1    A    
C13   N8    S    
C45   N2    S    
C37   H11   S    
C23   C31   A    
C6    C13   A    
C35   H45   S    
