data_mof_unit_17027.cif
_audit_creation_date              2013-03-05T16:41:25-0500
_audit_creation_method            fapswitch 2.2
_symmetry_space_group_name_H-M    P1
_symmetry_Int_Tables_number       1
_space_group_crystal_system       triclinic
_cell_length_a                    10.805044
_cell_length_b                    10.741909
_cell_length_c                    9.917849
_cell_angle_alpha                 88.130637
_cell_angle_beta                  101.251158
_cell_angle_gamma                 91.103709
_cell_volume                      1128.31122084

loop_
_atom_site_label
_atom_site_type_symbol
_atom_site_description
_atom_site_fract_x
_atom_site_fract_y
_atom_site_fract_z
_atom_type_partial_charge
O1    O     O_R   0.500020 0.316790 0.614700 -0.614047
O2    O     O_R   0.500000 0.316760 0.385350 -0.554643
C1    C     C_R   0.503011 0.260310 0.502593 0.967016
O3    O     O_R   0.317820 0.500020 0.571850 -0.552069
O4    O     O_R   0.317800 0.499980 0.342510 -0.596477
C2    C     C_R   0.259094 0.503826 0.445287 0.884829
Zn1   Zn    Zn3+2 0.500010 0.500020 0.653140 1.050719
Zn2   Zn    Zn3+2 0.499990 0.499980 0.346860 1.093992
O5    O     O_R   0.500000 0.683240 0.614650 -0.634474
O6    O     O_R   0.499980 0.683210 0.385300 -0.634316
O7    O     O_R   0.682200 0.500020 0.657490 -0.597926
O8    O     O_R   0.682180 0.499980 0.428150 -0.595791
C3    C     C_R   0.499428 0.739485 0.497769 0.952062
C4    C     C_R   0.739971 0.502148 0.555151 0.955325
C5    C     C_2   0.122154 0.520742 0.421957 0.327868
C6    C     C_2   0.072320 0.572815 0.521206 0.397436
C7    C     C_2   0.875750 0.504104 0.582011 0.012587
C8    C     C_2   0.936339 0.580665 0.505459 0.152181
C9    C     C_R   0.437690 0.059077 0.583193 -0.188650
C10   C     C_R   0.514366 0.128292 0.509877 -0.145056
C11   C     C_R   0.596471 0.066933 0.439072 0.332931
C12   C     C_R   0.583880 0.938021 0.426883 -0.124311
H1    H     H_    0.639373 0.889802 0.365924 0.226077
C13   C     C_R   0.500908 0.871322 0.494757 -0.064047
C14   C     C_R   0.431616 0.931802 0.575515 -0.131411
C15   C     C_3   0.293283 0.923154 0.581322 0.500701
C16   C     C_3   0.298421 0.065978 0.584848 0.599104
C17   C     C_R   0.400741 0.450511 0.051561 0.047647
N1    N     N_R   0.499160 0.499140 0.142600 -0.169245
C18   C     C_R   0.591927 0.561222 0.087355 0.500398
C19   C     C_R   0.593393 0.557467 0.944827 -0.019303
H2    H     H_    0.669421 0.602924 0.904728 0.193603
N2    N     N_R   0.499160 0.499180 0.856960 -0.154956
C20   C     C_R   0.398135 0.456111 0.908620 0.004671
C21   C     C_3   0.343179 0.328974 0.889686 0.168931
C22   C     C_3   0.353850 0.318049 0.045462 0.500895
H3    H     H_    0.405931 0.266980 0.847216 0.173145
N3    N     N_R   0.875071 0.684790 0.427658 0.226021
O9    O     O_R   0.807587 0.757419 0.485797 -0.433347
O10   O     O_R   0.911027 0.723742 0.315607 -0.202851
O11   O     O_3   0.271496 0.112010 0.706775 -0.633252
H4    H     H_    0.331132 0.074421 0.785985 0.358611
O12   O     O_3   0.685388 0.629166 0.166852 -0.671987
H5    H     H_    0.653042 0.653894 0.247927 0.380084
O13   O     O_3   0.218536 0.330155 0.814674 -0.591428
H6    H     H_    0.172992 0.399232 0.847036 0.393455
O14   O     O_3   0.238733 0.304096 0.090452 -0.692716
H7    H     H_    0.200755 0.223877 0.054946 0.414597
N4    N     N_R   0.448636 0.226885 0.109538 0.196626
O15   O     O_R   0.566033 0.242657 0.098370 -0.356192
O16   O     O_R   0.412460 0.118203 0.150184 -0.315107
O17   O     O_3   0.147461 0.617168 0.639700 -0.761783
H8    H     H_    0.092666 0.652707 0.697820 0.370890
N5    N     N_R   0.940462 0.411932 0.676267 0.193184
O18   O     O_R   0.918051 0.401995 0.800431 -0.318374
O19   O     O_R   0.992764 0.319600 0.628176 -0.211044
O20   O     O_3   0.043809 0.482800 0.302355 -0.674152
H9    H     H_    0.095797 0.442181 0.244874 0.395703
N6    N     N_R   0.692405 0.132488 0.381216 0.259285
O21   O     O_R   0.747942 0.230681 0.439891 -0.327740
O22   O     O_R   0.740012 0.082496 0.285214 -0.228257
N7    N     N_R   0.206463 0.874873 0.461205 0.222395
O23   O     O_R   0.085921 0.889592 0.451834 -0.215388
O24   O     O_R   0.246241 0.820039 0.362973 -0.372963
O25   O     O_3   0.271893 0.866202 0.704415 -0.705677
H10   H     H_    0.312659 0.783689 0.712444 0.374352
N8    N     N_R   0.226743 0.130607 0.461966 0.217828
O26   O     O_R   0.146203 0.215679 0.474439 -0.241398
O27   O     O_R   0.245495 0.106957 0.339703 -0.314769

loop_
_geom_bond_atom_site_label_1
_geom_bond_atom_site_label_2
_geom_bond_distance
_ccdc_geom_bond_type
O4    Zn2   1.960610 S    
Zn1   O7    1.960609 S    
O12   H5    0.983079 S    
C19   N2    1.361234 A    
N5    O19   1.299310 A    
C11   N6    1.441254 S    
N1    C18   1.383603 A    
C9    C16   1.511372 S    
O11   H4    0.993577 S    
C16   O11   1.404728 S    
N7    O24   1.300558 A    
C9    C10   1.394269 A    
C18   C19   1.418641 A    
Zn2   O8    1.976346 S    
C14   C15   1.507958 S    
Zn1   O5    1.992546 S    
C10   C11   1.417895 A    
C7    C8    1.346793 D    
C8    N3    1.434421 S    
C17   C20   1.411774 A    
N6    O21   1.300274 A    
C6    C8    1.450744 S    
O1    Zn1   2.017001 S    
O13   H6    0.993478 S    
C13   C14   1.382329 A    
N8    O26   1.299137 A    
N3    O10   1.301103 A    
C5    O20   1.384256 S    
C4    C7    1.438903 S    
O20   H9    0.990733 S    
N7    O23   1.299914 A    
O3    Zn1   1.976346 S    
Zn2   N1    2.024402 S    
O3    C2    1.291030 A    
C17   N1    1.361496 A    
C21   H3    1.108046 S    
O8    C4    1.292842 A    
N2    C20   1.360668 A    
O2    C1    1.288740 A    
O25   H10   0.991318 S    
C15   C16   1.535435 S    
O4    C2    1.303519 A    
C9    C14   1.371366 A    
O7    C4    1.290555 A    
C12   C13   1.396243 A    
C18   O12   1.368418 S    
N6    O22   1.301797 A    
C16   N8    1.471148 S    
Zn1   N2    2.022993 S    
C5    C6    1.351334 D    
C21   O13   1.405879 S    
O14   H7    0.992324 S    
C6    O17   1.384408 S    
C1    C10   1.424048 S    
N3    O9    1.299303 A    
O17   H8    0.992357 S    
C17   C22   1.500296 S    
C22   O14   1.404899 S    
Zn2   O6    2.017000 S    
C20   C21   1.481545 S    
N8    O27   1.301502 A    
N5    O18   1.301255 A    
N4    O15   1.302055 A    
C15   N7    1.467534 S    
C12   H1    1.080364 S    
O5    C3    1.288595 A    
N4    O16   1.300557 A    
C2    C5    1.466263 S    
C11   C12   1.395687 A    
C15   O25   1.405003 S    
C7    N5    1.433291 S    
C19   H2    1.082036 S    
O2    Zn2   1.992549 S    
C22   N4    1.468268 S    
C21   C22   1.527467 S    
C3    C13   1.415376 S    
O1    C1    1.290019 A    
O6    C3    1.287022 A    
