data_mof_unit_65792.cif
_audit_creation_date              2013-03-05T16:15:50-0500
_audit_creation_method            fapswitch 2.2
_symmetry_space_group_name_H-M    P1
_symmetry_Int_Tables_number       1
_space_group_crystal_system       triclinic
_cell_length_a                    34.539937
_cell_length_b                    24.342722
_cell_length_c                    24.38863
_cell_angle_alpha                 89.981523
_cell_angle_beta                  89.997777
_cell_angle_gamma                 90.000284
_cell_volume                      20505.8635232

loop_
_atom_site_label
_atom_site_type_symbol
_atom_site_description
_atom_site_fract_x
_atom_site_fract_y
_atom_site_fract_z
_atom_type_partial_charge
Zn1   Zn    Zn3+2 0.782760 0.500000 0.564970 0.963669
Zn2   Zn    Zn3+2 0.217240 0.500000 0.435030 0.961550
Zn3   Zn    Zn3+2 0.782760 0.500000 0.435030 0.962486
Zn4   Zn    Zn3+2 0.217240 0.500000 0.564970 0.963202
Zn5   Zn    Zn3+2 0.282760 0.000000 0.064970 0.961255
Zn6   Zn    Zn3+2 0.717240 1.000000 0.935030 0.963952
Zn7   Zn    Zn3+2 0.282760 1.000000 0.935030 0.964892
Zn8   Zn    Zn3+2 0.717240 0.000000 0.064970 0.960785
Zn9   Zn    Zn3+2 0.717260 0.564980 0.500000 0.974495
Zn10  Zn    Zn3+2 0.282740 0.435020 0.500000 0.974463
Zn11  Zn    Zn3+2 0.717260 0.435020 0.500000 0.976264
Zn12  Zn    Zn3+2 0.282740 0.564980 0.500000 0.974432
Zn13  Zn    Zn3+2 0.217260 0.064980 0.000000 0.976873
Zn14  Zn    Zn3+2 0.782740 0.935020 0.000000 0.976836
Zn15  Zn    Zn3+2 0.217260 0.935020 0.000000 0.973934
Zn16  Zn    Zn3+2 0.782740 0.064980 0.000000 0.972124
O1    O     O_3   0.750010 0.500000 0.500000 -0.480820
O2    O     O_3   0.249990 0.500000 0.500000 -0.480295
O3    O     O_3   0.250010 0.000000 0.000000 -0.480826
O4    O     O_3   0.749990 0.000000 0.000000 -0.480305
O5    O     O_R   0.772930 0.563990 0.390540 -0.641631
O6    O     O_R   0.227070 0.436010 0.609460 -0.643943
O7    O     O_R   0.772930 0.436010 0.609460 -0.642176
O8    O     O_R   0.227070 0.563990 0.390540 -0.643805
O9    O     O_R   0.227070 0.436010 0.390540 -0.641808
O10   O     O_R   0.772930 0.563990 0.609460 -0.643980
O11   O     O_R   0.227070 0.563990 0.609460 -0.644653
O12   O     O_R   0.772930 0.436010 0.390540 -0.643298
O13   O     O_R   0.272930 0.063990 0.890540 -0.641898
O14   O     O_R   0.727070 0.936010 0.109460 -0.644099
O15   O     O_R   0.272930 0.936010 0.109460 -0.641918
O16   O     O_R   0.727070 0.063990 0.890540 -0.643662
O17   O     O_R   0.727070 0.936010 0.890540 -0.642067
O18   O     O_R   0.272930 0.063990 0.109460 -0.644127
O19   O     O_R   0.727070 0.063990 0.109460 -0.644406
O20   O     O_R   0.272930 0.936010 0.890540 -0.643160
O21   O     O_R   0.727090 0.609470 0.563990 -0.640589
O22   O     O_R   0.272910 0.390530 0.436010 -0.643504
O23   O     O_R   0.727090 0.390530 0.436010 -0.643874
O24   O     O_R   0.272910 0.609470 0.563990 -0.640220
O25   O     O_R   0.272910 0.390530 0.563990 -0.640571
O26   O     O_R   0.727090 0.609470 0.436010 -0.643563
O27   O     O_R   0.272910 0.609470 0.436010 -0.643227
O28   O     O_R   0.727090 0.390530 0.563990 -0.640133
O29   O     O_R   0.227090 0.109470 0.063990 -0.642259
O30   O     O_R   0.772910 0.890530 0.936010 -0.639919
O31   O     O_R   0.227090 0.890530 0.936010 -0.642183
O32   O     O_R   0.772910 0.109470 0.063990 -0.643759
O33   O     O_R   0.772910 0.890530 0.063990 -0.642237
O34   O     O_R   0.227090 0.109470 0.936010 -0.639973
O35   O     O_R   0.772910 0.109470 0.936010 -0.641544
O36   O     O_R   0.227090 0.890530 0.063990 -0.643726
O37   O     O_R   0.662570 0.545500 0.500000 -0.624269
O38   O     O_R   0.337430 0.454500 0.500000 -0.624197
O39   O     O_R   0.662570 0.454500 0.500000 -0.625758
O40   O     O_R   0.337430 0.545500 0.500000 -0.626216
O41   O     O_R   0.162570 0.045500 0.000000 -0.625664
O42   O     O_R   0.837430 0.954500 0.000000 -0.625580
O43   O     O_R   0.162570 0.954500 0.000000 -0.624346
O44   O     O_R   0.837430 0.045500 0.000000 -0.624799
O45   O     O_R   0.837440 0.500000 0.454520 -0.648186
O46   O     O_R   0.162560 0.500000 0.545480 -0.648404
O47   O     O_R   0.837440 0.500000 0.545480 -0.648455
O48   O     O_R   0.162560 0.500000 0.454520 -0.648166
O49   O     O_R   0.337440 1.000000 0.954520 -0.648444
O50   O     O_R   0.662560 1.000000 0.045480 -0.648150
O51   O     O_R   0.337440 1.000000 0.045480 -0.648201
O52   O     O_R   0.662560 1.000000 0.954520 -0.648420
C1    C     C_R   0.750011 0.605164 0.394940 0.787743
C2    C     C_R   0.250049 0.394896 0.605113 0.788777
C3    C     C_R   0.750010 0.394837 0.605059 0.789384
C4    C     C_R   0.250052 0.605102 0.394886 0.784381
C5    C     C_R   0.249990 0.394833 0.394937 0.787538
C6    C     C_R   0.749951 0.605108 0.605115 0.788649
C7    C     C_R   0.250005 0.605141 0.605086 0.789839
C8    C     C_R   0.749922 0.394919 0.394864 0.788266
C9    C     C_R   0.250010 0.105163 0.894940 0.789863
C10   C     C_R   0.750051 0.894899 0.105115 0.784687
C11   C     C_R   0.250010 0.894836 0.105060 0.787260
C12   C     C_R   0.750049 0.105105 0.894888 0.788462
C13   C     C_R   0.749991 0.894834 0.894937 0.789651
C14   C     C_R   0.249949 0.105105 0.105117 0.784563
C15   C     C_R   0.750005 0.105142 0.105087 0.787729
C16   C     C_R   0.249924 0.894916 0.894866 0.792367
C17   C     C_R   0.644176 0.499998 0.499926 0.818319
C18   C     C_R   0.355824 0.500002 0.499926 0.818291
C19   C     C_R   0.144176 0.000002 0.000074 0.818379
C20   C     C_R   0.855824 0.999998 0.000074 0.818303
C21   C     C_R   0.855962 0.500000 0.499999 0.815902
C22   C     C_R   0.144038 0.500000 0.500001 0.815909
C23   C     C_R   0.355962 0.000000 0.999999 0.815899
C24   C     C_R   0.644038 1.000000 0.000001 0.815909
C25   C     C_R   0.081120 0.499992 0.549847 -0.256038
C26   C     C_R   0.918880 0.499999 0.450153 -0.255870
C27   C     C_R   0.081123 0.500009 0.450155 -0.256046
C28   C     C_R   0.918877 0.500004 0.549845 -0.255919
C29   C     C_R   0.581123 0.000073 0.950155 -0.255997
C30   C     C_R   0.418877 0.999939 0.049845 -0.255968
C31   C     C_R   0.581120 0.999927 0.049847 -0.256086
C32   C     C_R   0.418880 0.000063 0.950153 -0.255826
C33   C     C_R   0.101502 0.500000 0.500001 -0.047035
C34   C     C_R   0.898498 0.500001 0.499999 -0.046958
C35   C     C_R   0.601502 1.000000 0.000001 -0.047030
C36   C     C_R   0.398498 0.000001 0.999999 -0.046958
C37   C     C_R   0.040677 0.500006 0.449814 0.111731
C38   C     C_R   0.959323 0.500001 0.550186 0.111686
C39   C     C_R   0.040674 0.499995 0.550188 0.111706
C40   C     C_R   0.959326 0.500002 0.449813 0.111696
C41   C     C_R   0.540674 0.999929 0.050188 0.111767
C42   C     C_R   0.459326 0.000067 0.949812 0.111639
C43   C     C_R   0.540677 0.000072 0.949813 0.111675
C44   C     C_R   0.459323 0.999935 0.050187 0.111745
C45   C     C_R   0.020351 0.500001 0.500000 0.062240
C46   C     C_R   0.979649 0.500001 0.500000 0.062217
C47   C     C_R   0.520351 0.000001 0.000000 0.062236
C48   C     C_R   0.479649 0.000001 1.000000 0.062213
C49   C     C_R   0.020212 0.500009 0.400154 -0.216955
C50   C     C_R   0.979788 0.499998 0.599846 -0.216710
C51   C     C_R   0.020205 0.499993 0.599847 -0.216754
C52   C     C_R   0.979795 0.500005 0.400153 -0.216852
C53   C     C_R   0.520205 0.999860 0.099848 -0.216953
C54   C     C_R   0.479795 0.000137 0.900152 -0.216656
C55   C     C_R   0.520212 0.000141 0.900153 -0.216758
C56   C     C_R   0.479788 0.999865 0.099847 -0.216907
H1    H     H_    0.096691 0.499984 0.588445 0.165340
H2    H     H_    0.903308 0.499996 0.411555 0.165490
H3    H     H_    0.096697 0.500016 0.411557 0.165405
H4    H     H_    0.903303 0.500007 0.588443 0.165386
H5    H     H_    0.596697 0.000132 0.911556 0.165404
H6    H     H_    0.403303 0.999890 0.088444 0.165384
H7    H     H_    0.596691 0.999868 0.088446 0.165330
H8    H     H_    0.403309 0.000112 0.911554 0.165495
H9    H     H_    0.035466 0.500013 0.361327 0.147035
H10   H     H_    0.964534 0.499997 0.638673 0.147097
H11   H     H_    0.035456 0.499989 0.638674 0.147101
H12   H     H_    0.964543 0.500006 0.361326 0.147093
H13   H     H_    0.535457 0.999804 0.138675 0.146978
H14   H     H_    0.464543 0.000190 0.861325 0.147207
H15   H     H_    0.535466 0.000197 0.861326 0.147147
H16   H     H_    0.464534 0.999812 0.138674 0.146978
C57   C     C_R   0.757659 0.324669 0.741711 -0.207171
C58   C     C_R   0.216838 0.701395 0.284249 -0.208045
C59   C     C_R   0.757720 0.675359 0.258305 -0.206796
C60   C     C_R   0.216828 0.298631 0.715779 -0.206473
C61   C     C_R   0.240297 0.675098 0.741538 -0.234096
C62   C     C_R   0.782270 0.300285 0.282323 -0.166218
C63   C     C_R   0.242270 0.324664 0.258297 -0.206834
C64   C     C_R   0.783179 0.701358 0.715773 -0.206531
C65   C     C_R   0.257715 0.824644 0.241695 -0.207568
C66   C     C_R   0.716828 0.201368 0.784225 -0.207192
C67   C     C_R   0.257664 0.175334 0.758289 -0.206403
C68   C     C_R   0.716838 0.798604 0.215755 -0.207329
C69   C     C_R   0.740238 0.175128 0.241518 -0.234438
C70   C     C_R   0.282278 0.800310 0.782300 -0.165315
C71   C     C_R   0.742327 0.824689 0.758281 -0.206440
C72   C     C_R   0.283170 0.201385 0.215748 -0.207382
H17   H     H_    0.762715 0.335880 0.784097 0.143309
H18   H     H_    0.190038 0.712351 0.263918 0.143558
H19   H     H_    0.762811 0.664159 0.215924 0.144480
H20   H     H_    0.190032 0.287707 0.736140 0.144207
H21   H     H_    0.234148 0.663789 0.783600 0.142960
H22   H     H_    0.808693 0.290778 0.260333 0.146487
H23   H     H_    0.237163 0.335883 0.215918 0.144301
H24   H     H_    0.809976 0.712259 0.736132 0.144134
H25   H     H_    0.262804 0.835845 0.284076 0.143373
H26   H     H_    0.690032 0.212288 0.763865 0.144118
H27   H     H_    0.262723 0.164124 0.715903 0.144409
H28   H     H_    0.690038 0.787645 0.236087 0.143642
H29   H     H_    0.734055 0.163830 0.283573 0.143029
H30   H     H_    0.308694 0.790839 0.760280 0.147001
H31   H     H_    0.737252 0.835917 0.715897 0.144231
H32   H     H_    0.309971 0.212323 0.236077 0.143574
C73   C     C_R   0.757833 0.365453 0.701750 -0.193133
C74   C     C_R   0.216405 0.660833 0.324427 -0.194596
C75   C     C_R   0.757886 0.634569 0.298261 -0.193659
C76   C     C_R   0.216400 0.339197 0.675604 -0.194573
C77   C     C_R   0.240370 0.634517 0.701419 -0.188451
C78   C     C_R   0.782888 0.340861 0.322443 -0.203463
C79   C     C_R   0.242097 0.365441 0.298251 -0.194170
C80   C     C_R   0.783601 0.660793 0.675612 -0.194531
C81   C     C_R   0.257881 0.865433 0.201739 -0.194394
C82   C     C_R   0.716401 0.160802 0.824400 -0.195096
C83   C     C_R   0.257839 0.134549 0.798250 -0.192401
C84   C     C_R   0.716404 0.839165 0.175576 -0.194076
C85   C     C_R   0.740321 0.134541 0.201405 -0.189623
C86   C     C_R   0.282889 0.840892 0.822415 -0.203946
C87   C     C_R   0.742145 0.865461 0.798239 -0.192913
C88   C     C_R   0.283598 0.160825 0.175583 -0.194029
H33   H     H_    0.763192 0.407629 0.713709 0.156074
H34   H     H_    0.189317 0.640783 0.334484 0.155063
H35   H     H_    0.763274 0.592400 0.286302 0.156824
H36   H     H_    0.189321 0.359283 0.665581 0.155232
H37   H     H_    0.233766 0.592564 0.712929 0.156944
H38   H     H_    0.809755 0.362189 0.330922 0.156797
H39   H     H_    0.236686 0.407609 0.286286 0.156054
H40   H     H_    0.810677 0.640691 0.665609 0.155225
H41   H     H_    0.263266 0.907602 0.213697 0.155788
H42   H     H_    0.689322 0.140713 0.834423 0.155169
H43   H     H_    0.263200 0.092373 0.786289 0.157108
H44   H     H_    0.689316 0.859213 0.165521 0.155113
H45   H     H_    0.733689 0.092596 0.212912 0.156700
H46   H     H_    0.309747 0.862259 0.830860 0.156908
H47   H     H_    0.736761 0.907636 0.786273 0.156336
H48   H     H_    0.310681 0.140762 0.165547 0.155118
C89   C     C_R   0.750256 0.351982 0.646995 -0.038428
C90   C     C_R   0.250534 0.647232 0.352243 -0.036951
C91   C     C_R   0.750264 0.648024 0.353008 -0.038259
C92   C     C_R   0.250524 0.352759 0.647752 -0.038354
C93   C     C_R   0.249800 0.647832 0.647180 -0.010599
C94   C     C_R   0.749266 0.352884 0.352142 -0.040329
C95   C     C_R   0.249743 0.351978 0.353000 -0.038164
C96   C     C_R   0.749481 0.647251 0.647748 -0.038466
C97   C     C_R   0.250262 0.851976 0.146992 -0.037741
C98   C     C_R   0.750524 0.147244 0.852251 -0.038415
C99   C     C_R   0.250258 0.148018 0.853005 -0.038944
C100  C     C_R   0.750534 0.852770 0.147759 -0.036885
C101  C     C_R   0.749794 0.147839 0.147176 -0.009978
C102  C     C_R   0.249276 0.852872 0.852150 -0.041716
C103  C     C_R   0.749749 0.851984 0.852997 -0.038845
C104  C     C_R   0.249471 0.147240 0.147755 -0.037002
C105  C     C_R   0.743074 0.297264 0.632328 -0.170739
C106  C     C_R   0.285261 0.673903 0.339017 -0.176671
C107  C     C_R   0.743047 0.702735 0.367673 -0.172311
C108  C     C_R   0.285240 0.326040 0.660935 -0.173242
C109  C     C_R   0.258900 0.702190 0.633285 -0.242772
C110  C     C_R   0.714788 0.324808 0.340645 -0.174211
C111  C     C_R   0.256991 0.297262 0.367659 -0.172286
C112  C     C_R   0.714774 0.674000 0.660915 -0.173249
C113  C     C_R   0.243047 0.797265 0.132328 -0.172535
C114  C     C_R   0.785239 0.173967 0.839067 -0.174917
C115  C     C_R   0.243074 0.202736 0.867673 -0.170514
C116  C     C_R   0.785261 0.826104 0.160985 -0.174984
C117  C     C_R   0.758927 0.202187 0.133287 -0.244501
C118  C     C_R   0.214812 0.824742 0.840697 -0.172309
C119  C     C_R   0.756963 0.797261 0.867660 -0.170488
C120  C     C_R   0.214753 0.173935 0.160966 -0.174989
H49   H     H_    0.737661 0.286505 0.589892 0.162034
H50   H     H_    0.311865 0.663047 0.359960 0.159871
H51   H     H_    0.737600 0.713484 0.410103 0.161740
H52   H     H_    0.311840 0.336859 0.639961 0.162199
H53   H     H_    0.266027 0.712866 0.591336 0.154143
H54   H     H_    0.688478 0.334691 0.362778 0.163003
H55   H     H_    0.262458 0.286497 0.410086 0.161684
H56   H     H_    0.688174 0.663204 0.639939 0.162170
H57   H     H_    0.237603 0.786515 0.089899 0.161539
H58   H     H_    0.811839 0.163151 0.860040 0.162018
H59   H     H_    0.237659 0.213493 0.910109 0.162234
H60   H     H_    0.811866 0.836963 0.140041 0.160062
H61   H     H_    0.766087 0.212853 0.091346 0.153553
H62   H     H_    0.188508 0.834584 0.862861 0.164854
H63   H     H_    0.762398 0.786488 0.910093 0.162180
H64   H     H_    0.188148 0.163100 0.140020 0.160043
C121  C     C_R   0.743878 0.255866 0.671872 0.110572
C122  C     C_R   0.286193 0.713575 0.297752 0.110589
C123  C     C_R   0.743857 0.744139 0.328135 0.110412
C124  C     C_R   0.286168 0.286364 0.702196 0.110050
C125  C     C_R   0.257848 0.743452 0.673148 0.114184
C126  C     C_R   0.713624 0.284963 0.299613 0.103776
C127  C     C_R   0.256186 0.255869 0.328125 0.110516
C128  C     C_R   0.713849 0.713673 0.702165 0.110126
C129  C     C_R   0.243858 0.755862 0.171867 0.110402
C130  C     C_R   0.786167 0.213643 0.797806 0.109814
C131  C     C_R   0.243878 0.244134 0.828129 0.110580
C132  C     C_R   0.786194 0.786432 0.202250 0.110823
C133  C     C_R   0.757868 0.243456 0.173144 0.114158
C134  C     C_R   0.213653 0.784892 0.799670 0.103007
C135  C     C_R   0.756164 0.755873 0.828120 0.110684
C136  C     C_R   0.213824 0.213605 0.202220 0.110898
C137  C     C_R   0.751058 0.269764 0.727186 0.056086
C138  C     C_R   0.251575 0.727651 0.270270 0.056906
C139  C     C_R   0.751081 0.730255 0.272829 0.055838
C140  C     C_R   0.251557 0.272330 0.729717 0.056721
C141  C     C_R   0.248367 0.729776 0.727616 0.098439
C142  C     C_R   0.747867 0.272047 0.270580 0.085188
C143  C     C_R   0.248938 0.269760 0.272815 0.055922
C144  C     C_R   0.748458 0.727686 0.729699 0.056665
C145  C     C_R   0.251079 0.769746 0.227173 0.056310
C146  C     C_R   0.751555 0.227672 0.770286 0.056809
C147  C     C_R   0.251059 0.230238 0.772816 0.055616
C148  C     C_R   0.751576 0.772351 0.229733 0.056820
C149  C     C_R   0.748344 0.229796 0.227601 0.098513
C150  C     C_R   0.247888 0.772024 0.770598 0.085141
C151  C     C_R   0.748958 0.769777 0.772802 0.055699
C152  C     C_R   0.248439 0.227666 0.229714 0.056760
C153  C     C_R   0.541043 0.543631 0.523840 -0.237242
C154  C     C_R   0.458955 0.456360 0.523854 -0.237147
C155  C     C_R   0.540910 0.456222 0.476325 -0.221016
C156  C     C_R   0.459090 0.543786 0.476311 -0.221287
C157  C     C_R   0.040910 0.043774 0.023688 -0.221341
C158  C     C_R   0.959088 0.956214 0.023696 -0.221276
C159  C     C_R   0.041043 0.956369 0.976166 -0.236996
C160  C     C_R   0.958957 0.043642 0.976158 -0.237235
H65   H     H_    0.525330 0.577188 0.542787 0.143881
H66   H     H_    0.474666 0.422797 0.542810 0.144085
H67   H     H_    0.524831 0.422939 0.457534 0.137849
H68   H     H_    0.475170 0.577075 0.457510 0.137743
H69   H     H_    0.024831 0.077056 0.042483 0.137590
H70   H     H_    0.975166 0.922924 0.042496 0.137784
H71   H     H_    0.025331 0.922813 0.957218 0.144152
H72   H     H_    0.974671 0.077206 0.957204 0.144039
C161  C     C_R   0.581332 0.543837 0.524311 0.064886
C162  C     C_R   0.418665 0.456155 0.524324 0.064776
C163  C     C_R   0.581302 0.456008 0.475140 0.070993
C164  C     C_R   0.418699 0.544000 0.475126 0.070875
C165  C     C_R   0.081302 0.043988 0.024871 0.071097
C166  C     C_R   0.918696 0.956000 0.024878 0.071036
C167  C     C_R   0.081333 0.956163 0.975693 0.064848
C168  C     C_R   0.918668 0.043848 0.975686 0.064849
C169  C     C_R   0.601785 0.499981 0.499720 -0.026032
C170  C     C_R   0.398215 0.500019 0.499720 -0.026056
C171  C     C_R   0.101785 0.000017 0.000285 -0.026044
C172  C     C_R   0.898215 0.999982 0.000285 -0.026160
C173  C     C_R   0.521016 0.499929 0.500237 0.085708
C174  C     C_R   0.478983 0.500071 0.500237 0.085700
C175  C     C_R   0.021017 0.000070 0.999773 0.085737
C176  C     C_R   0.978983 0.999930 0.999773 0.085704
N1    N     N_3   0.738469 0.200118 0.654649 -0.468150
H73   H     H_    0.762151 0.176952 0.668016 0.189262
H74   H     H_    0.713467 0.184669 0.673136 0.187877
N2    N     N_3   0.322677 0.737686 0.283492 -0.470961
H75   H     H_    0.327249 0.732106 0.241481 0.189231
H76   H     H_    0.321508 0.779779 0.291555 0.187585
N3    N     N_3   0.738407 0.799879 0.345358 -0.468701
H77   H     H_    0.762085 0.823071 0.332023 0.189020
H78   H     H_    0.713410 0.815303 0.326841 0.187270
N4    N     N_3   0.322646 0.262208 0.716413 -0.470241
H79   H     H_    0.327242 0.267777 0.758419 0.189507
H80   H     H_    0.321448 0.220118 0.708345 0.187850
N5    N     N_3   0.265778 0.799248 0.658210 -0.466990
H81   H     H_    0.246072 0.810778 0.627769 0.184432
H82   H     H_    0.293550 0.800777 0.641221 0.181862
N6    N     N_3   0.677135 0.260030 0.286834 -0.470210
H83   H     H_    0.671944 0.264531 0.244836 0.194118
H84   H     H_    0.678518 0.218214 0.296084 0.184380
N7    N     N_3   0.261662 0.200128 0.345362 -0.468959
H85   H     H_    0.237991 0.176919 0.332043 0.188879
H86   H     H_    0.286664 0.184731 0.326842 0.187140
N8    N     N_3   0.677374 0.737841 0.716361 -0.470330
H87   H     H_    0.672770 0.732272 0.758370 0.189465
H88   H     H_    0.678580 0.779930 0.708266 0.187800
N9    N     N_3   0.238411 0.700121 0.154645 -0.468831
H89   H     H_    0.262090 0.676931 0.167979 0.189088
H90   H     H_    0.213414 0.684694 0.173163 0.187325
N10   N     N_3   0.822643 0.237804 0.783589 -0.470722
H91   H     H_    0.827242 0.232235 0.741582 0.189741
H92   H     H_    0.821443 0.279894 0.791656 0.187162
N11   N     N_3   0.238465 0.299882 0.845354 -0.468016
H93   H     H_    0.262146 0.323050 0.831986 0.189194
H94   H     H_    0.213463 0.315328 0.826868 0.187828
N12   N     N_3   0.822679 0.762326 0.216509 -0.470470
H95   H     H_    0.827249 0.767906 0.258520 0.188998
H96   H     H_    0.821513 0.720233 0.208446 0.188282
N13   N     N_3   0.765837 0.299241 0.158210 -0.467362
H97   H     H_    0.746157 0.310788 0.127740 0.184304
H98   H     H_    0.793622 0.300740 0.141258 0.180826
N14   N     N_3   0.177173 0.759907 0.786936 -0.470001
H99   H     H_    0.171955 0.764395 0.744943 0.194636
H100  H     H_    0.178589 0.718095 0.796192 0.183929
N15   N     N_3   0.761602 0.700124 0.845359 -0.468274
H101  H     H_    0.737929 0.676941 0.832007 0.189053
H102  H     H_    0.786608 0.684705 0.826870 0.187696
N16   N     N_3   0.177341 0.237722 0.216458 -0.470559
H103  H     H_    0.172764 0.232142 0.258472 0.188954
H104  H     H_    0.178514 0.279814 0.208368 0.188228
N17   N     N_3   0.601305 0.587964 0.551045 -0.430999
H105  H     H_    0.592961 0.624786 0.532382 0.189779
H106  H     H_    0.592270 0.589236 0.591947 0.177235
N18   N     N_3   0.398691 0.412019 0.551071 -0.431003
H107  H     H_    0.407036 0.375203 0.532420 0.189880
H108  H     H_    0.407724 0.410733 0.591974 0.177288
N19   N     N_3   0.601496 0.412072 0.447975 -0.419145
H109  H     H_    0.582185 0.381464 0.435440 0.177365
H110  H     H_    0.613812 0.428306 0.412313 0.171826
N20   N     N_3   0.398505 0.587944 0.447947 -0.419941
H111  H     H_    0.417816 0.618555 0.435400 0.176810
H112  H     H_    0.386190 0.571721 0.412292 0.171456
N21   N     N_3   0.101496 0.087920 0.052041 -0.419038
H113  H     H_    0.113812 0.071681 0.087699 0.171101
H114  H     H_    0.082185 0.118525 0.064582 0.177189
N22   N     N_3   0.898500 0.912055 0.052055 -0.419009
H115  H     H_    0.886181 0.928277 0.087710 0.171090
H116  H     H_    0.917810 0.881444 0.064603 0.177320
N23   N     N_3   0.101306 0.912037 0.948956 -0.430816
H117  H     H_    0.092271 0.910767 0.908054 0.177857
H118  H     H_    0.092961 0.875215 0.967618 0.189672
N24   N     N_3   0.898696 0.087986 0.948940 -0.431372
H119  H     H_    0.907733 0.089275 0.908038 0.177457
H120  H     H_    0.907040 0.124800 0.967595 0.188800

loop_
_geom_bond_atom_site_label_1
_geom_bond_atom_site_label_2
_geom_bond_distance
_ccdc_geom_bond_type
Zn6   O16   1.928183 S    
Zn7   O13   1.928200 S    
C28   C34   1.404765 A    
N5    H82   1.045550 S    
C40   C52   1.402349 A    
C31   C35   1.404770 A    
C59   C75   1.391011 A    
Zn5   O51   1.947528 S    
C49   H9    1.083619 S    
C118  H62   1.084006 S    
C133  C149  1.407977 A    
C79   H39   1.083322 S    
C164  C170  1.416382 A    
C77   H37   1.083321 S    
C71   H31   1.083401 S    
Zn3   O12   1.928765 S    
C44   C56   1.402359 A    
C157  C165  1.395432 A    
C32   C36   1.404768 A    
O33   C10   1.280874 A    
C70   H30   1.083564 S    
C159  C175  1.393566 A    
O35   C12   1.280909 A    
C39   C45   1.411014 A    
Zn11  O1    1.944640 S    
Zn2   O48   1.947528 S    
N4    H79   1.045584 S    
C75   C91   1.399867 A    
C60   H20   1.083412 S    
C114  H58   1.083988 S    
Zn4   O2    1.946834 S    
Zn3   O45   1.947563 S    
C38   C50   1.402352 A    
Zn10  O25   1.929406 S    
C58   H18   1.083411 S    
O11   C7    1.281517 A    
N18   H107  1.045667 S    
N13   H98   1.045549 S    
C154  C162  1.391646 A    
C106  C122  1.394953 A    
C19   C171  1.464184 S    
C124  N4    1.432939 S    
C20   C172  1.464174 S    
N3    H77   1.045588 S    
C132  N12   1.432933 S    
C66   C82   1.390947 A    
C25   C33   1.404761 A    
N7    H86   1.044176 S    
C164  N20   1.438665 S    
C71   C87   1.391196 A    
C105  H49   1.083908 S    
Zn8   O19   1.928763 S    
Zn12  O24   1.929973 S    
N24   H120  1.045667 S    
C58   C138  1.401487 A    
O16   C12   1.281780 A    
C62   H22   1.083564 S    
O40   C18   1.276828 A    
C112  H56   1.083983 S    
Zn16  O4    1.944636 S    
Zn12  O2    1.944638 S    
C134  N14   1.433208 S    
C29   C35   1.404776 A    
C16   C102  1.460811 S    
C57   H17   1.083409 S    
Zn7   O3    1.946836 S    
C70   C150  1.402379 A    
N23   H117  1.045683 S    
O34   C9    1.281022 A    
C42   C48   1.411023 A    
C97   C113  1.401440 A    
C108  C124  1.394934 A    
C8    C94   1.460773 S    
O49   C23   1.280467 A    
C133  N13   1.432531 S    
C115  H59   1.083908 S    
C62   C142  1.402381 A    
O42   C20   1.276829 A    
C32   H8    1.084198 S    
Zn6   O17   1.928753 S    
Zn10  O22   1.929994 S    
C167  N23   1.433654 S    
C76   C92   1.399785 A    
C157  H69   1.084047 S    
C107  H51   1.083906 S    
N17   H105  1.045667 S    
Zn13  O29   1.929994 S    
C41   C53   1.402359 A    
C61   H21   1.083055 S    
Zn10  O2    1.944649 S    
C29   C43   1.397045 A    
C154  C174  1.393566 A    
O52   C24   1.280454 A    
C88   H48   1.083334 S    
Zn3   O1    1.946836 S    
C156  H68   1.084049 S    
C71   C151  1.401568 A    
N12   H95   1.045585 S    
O43   C19   1.276925 A    
N7    H85   1.045589 S    
C63   C79   1.391203 A    
C3    C89   1.460704 S    
C128  N8    1.432929 S    
C26   C34   1.404757 A    
O5    C1    1.281739 A    
N15   H101  1.045590 S    
C74   C90   1.399776 A    
C156  C174  1.394481 A    
O37   C17   1.276930 A    
N3    H78   1.044182 S    
C63   C143  1.401565 A    
N22   H115  1.045622 S    
C62   C78   1.390736 A    
C13   C103  1.461173 S    
C136  N16   1.432925 S    
C91   C107  1.401443 A    
C162  N18   1.433652 S    
C126  C142  1.413926 A    
Zn16  O35   1.929433 S    
C81   H41   1.083327 S    
C66   C146  1.401487 A    
O44   C20   1.276925 A    
C86   C102  1.399640 A    
C86   H46   1.083313 S    
C59   C139  1.401480 A    
C141  C150  1.468837 S    
C138  C145  1.467790 S    
C37   C45   1.411010 A    
C60   C140  1.401488 A    
C67   H27   1.083409 S    
C110  H54   1.084017 S    
Zn13  O41   1.947600 S    
N16   H103  1.045586 S    
C40   C46   1.411014 A    
C47   C48   1.405834 A    
C66   H26   1.083409 S    
C55   H15   1.083626 S    
C78   C94   1.399633 A    
Zn16  O44   1.947605 S    
C53   H13   1.083627 S    
C80   C96   1.399855 A    
N20   H111  1.045762 S    
C155  H67   1.084050 S    
C84   H44   1.083340 S    
C64   C144  1.401575 A    
C65   C145  1.401479 A    
O36   C11   1.281053 A    
C50   H10   1.083619 S    
C163  C169  1.416391 A    
C113  H57   1.083907 S    
C134  C150  1.413918 A    
C94   C110  1.401434 A    
C60   C76   1.390948 A    
C120  H64   1.084000 S    
C25   H1    1.084191 S    
N9    H90   1.044182 S    
C119  C135  1.395117 A    
C105  C121  1.394921 A    
C158  C166  1.395434 A    
C30   C44   1.397048 A    
C64   H24   1.083404 S    
C103  C119  1.401492 A    
C65   H25   1.083411 S    
N6    H83   1.045571 S    
O38   C18   1.276927 A    
Zn15  O31   1.929975 S    
O50   C24   1.280465 A    
C72   H32   1.083405 S    
O41   C19   1.276832 A    
C153  C161  1.391643 A    
C116  H60   1.084004 S    
N2    H76   1.044186 S    
Zn4   O6    1.928202 S    
O47   C21   1.280455 A    
N14   H100  1.043634 S    
Zn11  O28   1.929429 S    
C122  N2    1.432935 S    
C108  H52   1.083990 S    
N8    H88   1.044180 S    
Zn1   O10   1.928751 S    
C44   C48   1.411019 A    
Zn4   O11   1.928763 S    
O8    C4    1.281771 A    
C115  C131  1.394920 A    
C116  C132  1.394950 A    
C5    C95   1.461208 S    
C153  C173  1.393566 A    
C160  C176  1.393567 A    
C80   H40   1.083332 S    
C121  N1    1.432950 S    
C112  C128  1.395132 A    
C67   C83   1.391004 A    
C113  C129  1.394930 A    
C92   C108  1.401462 A    
Zn1   O1    1.946905 S    
O32   C15   1.281199 A    
C168  N24   1.433652 S    
C155  C173  1.394476 A    
C63   H23   1.083399 S    
C132  C148  1.412875 A    
C90   C106  1.401459 A    
O9    C5    1.281758 A    
N21   H114  1.045760 S    
C117  C133  1.398598 A    
Zn13  O34   1.929410 S    
C128  C144  1.412963 A    
O13   C9    1.281731 A    
N10   H91   1.045585 S    
C64   C80   1.391137 A    
C135  N15   1.432943 S    
O18   C14   1.281776 A    
O6    C2    1.281761 A    
C168  C172  1.413778 A    
C158  C176  1.394476 A    
O21   C6    1.280915 A    
C114  C130  1.394938 A    
C32   C42   1.397051 A    
C166  C172  1.416384 A    
Zn7   O20   1.928765 S    
C158  H70   1.084049 S    
O48   C22   1.280454 A    
C127  N7    1.432942 S    
C110  C126  1.394454 A    
N18   H108  1.045681 S    
N13   H97   1.045545 S    
C117  H61   1.083809 S    
Zn14  O30   1.929994 S    
Zn15  O3    1.944640 S    
C78   H38   1.083309 S    
C15   C101  1.461072 S    
C161  N17   1.433652 S    
C84   C100  1.399775 A    
C109  H53   1.083810 S    
N19   H109  1.045760 S    
C31   C41   1.397051 A    
Zn4   O46   1.947563 S    
C130  N10   1.432935 S    
C28   H4    1.084190 S    
C85   H45   1.083321 S    
N1    H74   1.044184 S    
C121  C137  1.412835 A    
C127  C143  1.412929 A    
C57   C137  1.401480 A    
C129  N9    1.432948 S    
C88   C104  1.399842 A    
C175  C176  1.451852 S    
C157  C175  1.394478 A    
C65   C81   1.391008 A    
C37   C49   1.402352 A    
C142  C149  1.468846 S    
C93   C109  1.401498 A    
C39   C51   1.402349 A    
C68   H28   1.083411 S    
C72   C88   1.391130 A    
Zn14  O42   1.947601 S    
C1    C91   1.460738 S    
Zn13  O3    1.944645 S    
C43   C55   1.402363 A    
Zn14  O4    1.944649 S    
C54   H14   1.083625 S    
C49   C52   1.395983 A    
N11   H93   1.045586 S    
C72   C152  1.401574 A    
O19   C15   1.281525 A    
C17   C169  1.464184 S    
C165  C171  1.416389 A    
C51   H11   1.083620 S    
C6    C96   1.460984 S    
C52   H12   1.083618 S    
O39   C17   1.276833 A    
O7    C3    1.281746 A    
Zn7   O49   1.947563 S    
C70   C86   1.390742 A    
C135  C151  1.412929 A    
C165  N21   1.438664 S    
C30   H6    1.084197 S    
O51   C23   1.280455 A    
O31   C16   1.280703 A    
N12   H96   1.044187 S    
C122  C138  1.412875 A    
C74   H34   1.083339 S    
C139  C148  1.467786 S    
C38   C46   1.411010 A    
C159  C167  1.391646 A    
C160  H72   1.084236 S    
Zn9   O37   1.947601 S    
C101  C117  1.401508 A    
O12   C8    1.281846 A    
C89   C105  1.401431 A    
Zn11  O39   1.947605 S    
C9    C99   1.460703 S    
N22   H116  1.045763 S    
C45   C46   1.405834 A    
C7    C93   1.461034 S    
Zn15  O43   1.947605 S    
C56   H16   1.083626 S    
C4    C90   1.460479 S    
C59   H19   1.083409 S    
Zn5   O3    1.946905 S    
Zn6   O4    1.946907 S    
O24   C7    1.281188 A    
Zn8   O14   1.928202 S    
N24   H119  1.045684 S    
C42   C54   1.402362 A    
C75   H35   1.083327 S    
C173  C174  1.451852 S    
N16   H104  1.044180 S    
C131  C147  1.412834 A    
C126  N6    1.433205 S    
C125  N5    1.432530 S    
Zn2   O9    1.928753 S    
C167  C171  1.413782 A    
N20   H112  1.045622 S    
C118  C134  1.394436 A    
C109  C125  1.398593 A    
C96   C112  1.401519 A    
C27   H3    1.084190 S    
C14   C104  1.460947 S    
C69   H29   1.083056 S    
C120  C136  1.395147 A    
C73   C89   1.399860 A    
O25   C2    1.280889 A    
Zn8   O50   1.947563 S    
O27   C4    1.280897 A    
C123  N3    1.432948 S    
C21   C34   1.469208 S    
Zn2   O2    1.946907 S    
N5    H81   1.045544 S    
O29   C14   1.280900 A    
C82   H42   1.083338 S    
C119  H63   1.083901 S    
C23   C36   1.469208 S    
Zn16  O32   1.929974 S    
C58   C74   1.390941 A    
C123  C139  1.412831 A    
N9    H89   1.045589 S    
C163  N19   1.438664 S    
C124  C140  1.412865 A    
C26   C40   1.397051 A    
Zn9   O26   1.929408 S    
Zn8   O4    1.946834 S    
C85   C101  1.400264 A    
C136  C152  1.412973 A    
C99   C115  1.401431 A    
N6    H84   1.043635 S    
Zn12  O27   1.929431 S    
N17   H106  1.045684 S    
C111  H55   1.083900 S    
C76   H36   1.083336 S    
Zn14  O33   1.929406 S    
C2    C92   1.460512 S    
C130  C146  1.412867 A    
C79   C95   1.399936 A    
O28   C3    1.281043 A    
C77   C93   1.400253 A    
C67   C147  1.401482 A    
C50   C51   1.395983 A    
C53   C56   1.395987 A    
C68   C148  1.401490 A    
C24   C35   1.469208 S    
C81   C97   1.399869 A    
N19   H110  1.045624 S    
C68   C84   1.390939 A    
C27   C37   1.397045 A    
C160  C168  1.391647 A    
C111  C127  1.395121 A    
C87   H47   1.083322 S    
Zn6   O52   1.947528 S    
C161  C169  1.413787 A    
C155  C163  1.395431 A    
C57   C73   1.391003 A    
C156  C164  1.395430 A    
Zn1   O47   1.947528 S    
O45   C21   1.280467 A    
C26   H2    1.084189 S    
C69   C149  1.401522 A    
C166  N22   1.438666 S    
C102  C118  1.401437 A    
C10   C100  1.460475 S    
C12   C98   1.460515 S    
Zn15  O36   1.929429 S    
C106  H50   1.084001 S    
O26   C1    1.281032 A    
C83   H43   1.083328 S    
C61   C141  1.401525 A    
N23   H118  1.045667 S    
C22   C33   1.469208 S    
C107  C123  1.394926 A    
N11   H94   1.044185 S    
O30   C13   1.281049 A    
C131  N11   1.432948 S    
Zn5   O18   1.928751 S    
C162  C170  1.413779 A    
C83   C99   1.399858 A    
Zn9   O21   1.929992 S    
C129  C145  1.412833 A    
N15   H102  1.044176 S    
O23   C8    1.280693 A    
Zn11  O23   1.929975 S    
C143  C152  1.468303 S    
N21   H113  1.045623 S    
Zn12  O40   1.947605 S    
Zn9   O1    1.944647 S    
N10   H92   1.044185 S    
Zn1   O7    1.928185 S    
C140  C147  1.467777 S    
Zn2   O8    1.928183 S    
C87   C103  1.399925 A    
Zn3   O5    1.928200 S    
C61   C77   1.390636 A    
C159  H71   1.084236 S    
C18   C170  1.464170 S    
C28   C38   1.397045 A    
C104  C120  1.401518 A    
N4    H80   1.044186 S    
O15   C11   1.281754 A    
C144  C151  1.468293 S    
C125  C141  1.407979 A    
C31   H7    1.084198 S    
N2    H75   1.045586 S    
C29   H5    1.084197 S    
C25   C39   1.397051 A    
C69   C85   1.390645 A    
O20   C16   1.281855 A    
C30   C36   1.404774 A    
O46   C22   1.280465 A    
C73   H33   1.083328 S    
N14   H99   1.045573 S    
O10   C6    1.281783 A    
C154  H66   1.084237 S    
C137  C146  1.467782 S    
N1    H73   1.045589 S    
Zn10  O38   1.947600 S    
C95   C111  1.401502 A    
C41   C47   1.411026 A    
O14   C10   1.281756 A    
C27   C33   1.404765 A    
C11   C97   1.460741 S    
N8    H87   1.045586 S    
C153  H65   1.084236 S    
C82   C98   1.399785 A    
C100  C116  1.401457 A    
C43   C47   1.411019 A    
C54   C55   1.395983 A    
O17   C13   1.281750 A    
Zn5   O15   1.928185 S    
O22   C5    1.281060 A    
C98   C114  1.401461 A    
