data_mof_unit_29466.cif
_audit_creation_date              2013-03-05T15:58:55-0500
_audit_creation_method            fapswitch 2.2
_symmetry_space_group_name_H-M    P1
_symmetry_Int_Tables_number       1
_space_group_crystal_system       triclinic
_cell_length_a                    10.623747
_cell_length_b                    12.614932
_cell_length_c                    13.10761
_cell_angle_alpha                 82.415905
_cell_angle_beta                  90.523096
_cell_angle_gamma                 101.8407
_cell_volume                      1703.94373138

loop_
_atom_site_label
_atom_site_type_symbol
_atom_site_description
_atom_site_fract_x
_atom_site_fract_y
_atom_site_fract_z
_atom_type_partial_charge
O1    O     O_R   0.468120 0.366740 0.627160 -0.610929
O2    O     O_R   0.510770 0.544830 0.662520 -0.616018
C1    C     C_R   0.480107 0.439016 0.691126 0.877569
O3    O     O_R   0.663880 0.410950 0.482330 -0.608742
O4    O     O_R   0.706530 0.589040 0.517700 -0.618821
C2    C     C_R   0.741856 0.500136 0.500288 0.833633
Zn1   Zn    Zn3+2 0.471520 0.381090 0.476390 0.958879
Zn2   Zn    Zn3+2 0.528480 0.618910 0.523610 0.929033
O5    O     O_R   0.489230 0.455170 0.337480 -0.612205
O6    O     O_R   0.531880 0.633260 0.372840 -0.625271
O7    O     O_R   0.293470 0.410960 0.482300 -0.623934
O8    O     O_R   0.336120 0.589050 0.517670 -0.650127
C3    C     C_R   0.512556 0.560869 0.308803 0.856770
C4    C     C_R   0.258249 0.499685 0.500258 0.809945
C5    C     C_3   0.900838 0.385681 0.486255 -0.308893
H1    H     H_    0.857861 0.360138 0.413231 0.212727
H2    H     H_    0.854245 0.326135 0.551823 0.250958
C6    C     C_3   0.043318 0.385267 0.484097 -0.366559
H3    H     H_    0.063989 0.321540 0.545563 0.208240
H4    H     H_    0.069623 0.363396 0.408613 0.184672
H5    H     H_    0.907387 0.563622 0.336251 0.162367
H6    H     H_    0.123444 0.566987 0.336810 0.158896
C7    C     C_3   0.947704 0.584793 0.411394 -0.386690
C8    C     C_3   0.936627 0.530481 0.604547 -0.391025
C9    C     C_3   0.878891 0.500541 0.500520 0.110278
H7    H     H_    0.924088 0.613495 0.616460 0.185472
H8    H     H_    0.886234 0.471710 0.669495 0.172089
C10   C     C_3   0.121605 0.499552 0.500496 0.160180
C11   C     C_3   0.092540 0.585442 0.412329 -0.408138
C12   C     C_3   0.080662 0.528054 0.605216 -0.398472
H9    H     H_    0.146689 0.668550 0.422981 0.179984
C13   C     C_R   0.406605 0.702357 0.064339 -0.168394
H10   H     H_    0.319361 0.702277 0.872655 0.156287
C14   C     C_R   0.500099 0.596210 0.200101 -0.062095
C15   C     C_R   0.493983 0.298992 0.838574 -0.264023
C16   C     C_R   0.501379 0.267765 0.944392 0.369282
C17   C     C_R   0.487823 0.342691 0.011355 -0.288458
C18   C     C_R   0.460640 0.446117 0.973626 0.031120
C19   C     C_R   0.431384 0.467642 0.869215 0.091924
C20   C     C_R   0.461208 0.528977 0.036361 0.104538
C21   C     C_R   0.410267 0.622345 0.000062 0.160633
C22   C     C_R   0.362430 0.633445 0.900829 -0.239503
C23   C     C_R   0.373283 0.557253 0.835795 -0.181461
C24   C     C_R   0.514537 0.522591 0.133573 -0.252578
C25   C     C_R   0.449188 0.688193 0.165198 -0.188653
C26   C     C_R   0.463092 0.399734 0.800786 -0.179140
H11   H     H_    0.564301 0.458155 0.161150 0.158001
H12   H     H_    0.515312 0.245908 0.785418 0.204847
H13   H     H_    0.494790 0.317428 0.092730 0.181413
H14   H     H_    0.334229 0.568522 0.759542 0.162635
C27   C     C_R   0.331150 0.091957 0.339390 -0.250315
H15   H     H_    0.306526 0.257742 0.325748 0.138119
H16   H     H_    0.299213 0.884830 0.309762 0.151162
H17   H     H_    0.264587 0.071123 0.278507 0.158687
N1    N     N_R   0.433240 0.222190 0.444680 -0.117746
C28   C     C_R   0.653582 0.798657 0.628999 -0.057702
C29   C     C_R   0.701366 0.905536 0.645566 -0.276310
C30   C     C_R   0.657103 0.990666 0.586548 0.341796
C31   C     C_R   0.551493 0.966049 0.519853 -0.105979
C32   C     C_R   0.513110 0.856241 0.500768 0.205650
C33   C     C_R   0.484239 0.044666 0.469794 0.012396
C34   C     C_R   0.394869 0.015102 0.391869 0.199891
C35   C     C_R   0.367527 0.908479 0.368782 -0.261718
C36   C     C_R   0.423456 0.829787 0.424373 -0.193904
C37   C     C_R   0.495982 0.150011 0.497653 0.016199
C38   C     C_R   0.353317 0.196611 0.366476 0.013013
N2    N     N_R   0.566070 0.776970 0.554790 -0.126150
H18   H     H_    0.552000 0.176232 0.562064 0.161277
H19   H     H_    0.692964 0.733151 0.670260 0.162127
H20   H     H_    0.780599 0.922424 0.697562 0.196031
H21   H     H_    0.136677 0.609238 0.619879 0.183751
H22   H     H_    0.932594 0.668062 0.419505 0.190622
H23   H     H_    0.436827 0.745811 0.216679 0.159700
H24   H     H_    0.366577 0.773352 0.037894 0.162860
N3    N     N_R   0.527794 0.162404 0.983415 0.214046
O9    O     O_R   0.541982 0.093536 0.920829 -0.384889
O10   O     O_R   0.535686 0.133484 0.081963 -0.394894
N4    N     N_R   0.737207 0.097384 0.578889 0.172906
O11   O     O_R   0.777618 0.147083 0.488225 -0.437972
O12   O     O_R   0.792453 0.133139 0.660317 -0.421794
H25   H     H_    0.395358 0.748687 0.405458 0.201922
H26   H     H_    0.100149 0.466379 0.669077 0.164976

loop_
_geom_bond_atom_site_label_1
_geom_bond_atom_site_label_2
_geom_bond_distance
_ccdc_geom_bond_type
C5    C6    1.515287 S    
H6    C11   1.113548 S    
C21   C22   1.392397 A    
C15   C16   1.397010 A    
C8    H8    1.113483 S    
Zn1   N1    2.058765 S    
C12   H21   1.113404 S    
Zn1   O7    2.007201 S    
C17   C18   1.418423 A    
H10   C22   1.083981 S    
C7    C11   1.536982 S    
C16   C17   1.400600 A    
C8    H7    1.113371 S    
C13   H24   1.083856 S    
O4    C2    1.300999 A    
O7    C4    1.300449 A    
N4    O12   1.301577 A    
C5    C9    1.549107 S    
C2    C9    1.454767 S    
C5    H1    1.114233 S    
C28   C29   1.384593 A    
C25   H23   1.082200 S    
C6    H3    1.114395 S    
C13   C25   1.394358 A    
O5    C3    1.309361 A    
C32   N2    1.361863 A    
C13   C21   1.404027 A    
C29   H20   1.082914 S    
C24   H11   1.079917 S    
C31   C32   1.416146 A    
C27   C34   1.398636 A    
O3    Zn1   2.003277 S    
C15   H12   1.083312 S    
N1    C37   1.352487 A    
C31   C33   1.426559 A    
C14   C24   1.386044 A    
C8    C9    1.550395 S    
O3    C2    1.300499 A    
N4    O11   1.300701 A    
C19   C23   1.414729 A    
C30   C31   1.424879 A    
O1    C1    1.304866 A    
C27   C38   1.385291 A    
C12   H26   1.113514 S    
N3    O9    1.301761 A    
C34   C35   1.389454 A    
C16   N3    1.441511 S    
C33   C37   1.405041 A    
C17   H13   1.078536 S    
Zn2   O8    2.003277 S    
C37   H18   1.077107 S    
C6    C10   1.550117 S    
C14   C25   1.400419 A    
N3    O10   1.301874 A    
C19   C26   1.406622 A    
C20   C21   1.419695 A    
O8    C4    1.299659 A    
H5    C7    1.113419 S    
C22   C23   1.388290 A    
N1    C38   1.354551 A    
H15   C38   1.081939 S    
C5    H2    1.110262 S    
C10   C11   1.550848 S    
O1    Zn1   1.960554 S    
C7    H22   1.113309 S    
O2    Zn2   1.925852 S    
O6    C3    1.304943 A    
O4    Zn2   2.007203 S    
C23   H14   1.081873 S    
C28   N2    1.354509 A    
C1    C26   1.457490 S    
C32   C36   1.400578 A    
C27   H17   1.083877 S    
C10   C12   1.551752 S    
O2    C1    1.311555 A    
C3    C14   1.448962 S    
C11   H9    1.113208 S    
C18   C20   1.411741 A    
H16   C35   1.084430 S    
C29   C30   1.397905 A    
C18   C19   1.404327 A    
C6    H4    1.114418 S    
C7    C9    1.548483 S    
C33   C34   1.421744 A    
C8    C12   1.536682 S    
C36   H25   1.066551 S    
C30   N4    1.429120 S    
C35   C36   1.382991 A    
Zn1   O5    1.925852 S    
C20   C24   1.389087 A    
Zn2   N2    2.046354 S    
Zn2   O6    1.960551 S    
C28   H19   1.081751 S    
C4    C10   1.451354 S    
C15   C26   1.403615 A    
