data_mof_unit_26898.cif
_audit_creation_date              2012-12-11T15:53:42-0500
_audit_creation_method            fapswitch 2.2
_symmetry_space_group_name_H-M    P1
_symmetry_Int_Tables_number       1
_space_group_crystal_system       triclinic
_cell_length_a                    6.936388
_cell_length_b                    14.539672
_cell_length_c                    15.956301
_cell_angle_alpha                 90.399954
_cell_angle_beta                  89.963415
_cell_angle_gamma                 90.079131
_cell_volume                      1609.19667545

loop_
_atom_site_label
_atom_site_type_symbol
_atom_type_description
_atom_site_fract_x
_atom_site_fract_y
_atom_site_fract_z
_atom_type_partial_charge
O1    O     O_R   0.361600 0.167310 0.164620 -0.523075
O2    O     O_R   0.638400 0.832690 0.835380 -0.523073
O3    O     O_R   0.691080 0.157570 0.338750 -0.551543
O4    O     O_R   0.308920 0.842430 0.661250 -0.552265
O5    O     O_R   0.861410 0.336420 0.339360 -0.523041
O6    O     O_R   0.138590 0.663580 0.660640 -0.522666
C1    C     C_R   0.521965 0.135247 0.367468 0.672059
C2    C     C_R   0.478036 0.864755 0.632534 0.668325
O7    O     O_R   0.691320 0.156280 0.165240 -0.546775
O8    O     O_R   0.308680 0.843720 0.834760 -0.548286
O9    O     O_R   0.861640 0.335130 0.164600 -0.526048
O10   O     O_R   0.138360 0.664870 0.835400 -0.526629
C3    C     C_R   0.522251 0.133742 0.136143 0.761638
C4    C     C_R   0.477755 0.866323 0.863803 0.759624
O11   O     O_R   0.361370 0.168600 0.339370 -0.553152
O12   O     O_R   0.638630 0.831400 0.660630 -0.553670
O13   O     O_3   0.527990 0.310540 0.251980 -0.351446
O14   O     O_3   0.472010 0.689460 0.748020 -0.349046
V1    V     V_3+5 0.802830 0.240980 0.251990 1.521692
V2    V     V_3+5 0.197170 0.759020 0.748010 1.518070
O15   O     O_R   0.191360 0.346160 0.165220 -0.511775
O16   O     O_R   0.808640 0.653840 0.834780 -0.508980
C5    C     C_R   0.022806 0.367618 0.135890 0.844980
C6    C     C_R   0.977178 0.632387 0.864134 0.843637
O17   O     O_R   0.191130 0.347440 0.338740 -0.547908
O18   O     O_R   0.808870 0.652560 0.661260 -0.547218
C7    C     C_R   0.022230 0.369249 0.367742 0.688270
C8    C     C_R   0.977769 0.630755 0.632254 0.689855
V3    V     V_3+5 0.302840 0.262750 0.251990 1.560696
V4    V     V_3+5 0.697160 0.737250 0.748010 1.566213
O19   O     O_3   0.027820 0.193180 0.251990 -0.390330
O20   O     O_3   0.972180 0.806820 0.748010 -0.392541
C9    C     C_3   0.831175 0.461133 0.489340 0.428461
C10   C     C_3   0.168823 0.538876 0.510651 0.429737
C11   C     C_3   0.947130 0.457220 0.571596 -0.272817
C12   C     C_3   0.052868 0.542789 0.428394 -0.275312
H1    H     H_    0.900191 0.422388 0.629856 0.146250
H2    H     H_    0.099806 0.577619 0.370134 0.143248
C13   C     C_3   0.988274 0.561323 0.562239 -0.069965
C14   C     C_3   0.011725 0.438686 0.437752 -0.070486
C15   C     C_3   0.868246 0.565097 0.480465 -0.202082
C16   C     C_3   0.131752 0.434913 0.519527 -0.201456
H3    H     H_    0.758926 0.617922 0.464947 0.139549
H4    H     H_    0.241072 0.382087 0.535043 0.140374
C17   C     C_R   0.896039 0.583040 0.011491 0.428826
C18   C     C_R   0.103474 0.416806 0.988480 0.445649
C19   C     C_R   0.909335 0.519105 0.077630 0.249768
C20   C     C_R   0.090759 0.480863 0.922425 0.267923
C21   C     C_R   0.013435 0.435750 0.066584 -0.395007
C22   C     C_R   0.986460 0.564193 0.933425 -0.396966
C23   C     C_R   0.679289 0.026002 0.467751 -0.143848
C24   C     C_R   0.320712 0.974005 0.532255 -0.146209
H5    H     H_    0.819878 0.044920 0.443846 0.115681
H6    H     H_    0.180123 0.955087 0.556161 0.115223
C25   C     C_R   0.668468 0.960776 0.531563 -0.147912
C26   C     C_R   0.331533 0.039231 0.468443 -0.146749
H7    H     H_    0.801191 0.931380 0.554888 0.115763
H8    H     H_    0.198810 0.068627 0.445119 0.116030
C27   C     C_R   0.489042 0.933952 0.564672 -0.039205
C28   C     C_R   0.510959 0.066053 0.435333 -0.038608
C29   C     C_R   0.679334 0.032852 0.026893 -0.121464
C30   C     C_R   0.320661 0.967351 0.972942 -0.134971
H9    H     H_    0.819927 0.057471 0.046254 0.138932
H10   H     H_    0.180066 0.942738 0.953578 0.141113
C31   C     C_R   0.668242 0.968989 0.960968 -0.068324
C32   C     C_R   0.331755 0.031208 0.038869 -0.080335
H11   H     H_    0.800848 0.946301 0.931637 0.139221
H12   H     H_    0.199147 0.053885 0.068204 0.144371
C33   C     C_R   0.488780 0.935264 0.933122 -0.054590
C34   C     C_R   0.511221 0.064895 0.066747 -0.054934
O21   O     O_3   0.652433 0.418705 0.476862 -0.643386
H13   H     H_    0.581212 0.427502 0.530133 0.292396
O22   O     O_3   0.347565 0.581305 0.523128 -0.642827
H14   H     H_    0.418781 0.572512 0.469855 0.291057
S1    S     S_3+6 0.772505 0.689397 0.028277 0.042750
O23   O     O_2   0.886858 0.767020 0.991226 -0.350906
O24   O     O_2   0.580052 0.684525 0.985107 -0.346864
O25   O     O_3   0.738294 0.713208 0.130651 -0.460151
H15   H     H_    0.600622 0.699685 0.141713 0.370532
S2    S     S_3+6 0.226309 0.310312 0.971529 0.036878
O26   O     O_2   0.420568 0.315834 0.012963 -0.334810
O27   O     O_2   0.112741 0.233022 0.009657 -0.376473
O28   O     O_3   0.257476 0.286605 0.869071 -0.457616
H16   H     H_    0.329332 0.227771 0.867619 0.358693
O29   O     O_3   0.818666 0.540341 0.152492 -0.598043
H17   H     H_    0.879178 0.506406 0.199064 0.280763
O30   O     O_3   0.182257 0.459740 0.847717 -0.573745
H18   H     H_    0.122354 0.493820 0.801087 0.281283

loop_
_geom_bond_atom_site_label_1
_geom_bond_atom_site_label_2
_ccdc_geom_bond_type
C29   C34   A    
C32   H12   S    
O30   H18   S    
C25   C27   A    
O13   V3    S    
O22   H14   S    
C10   C16   S    
O4    C2    A    
V1    O19   S    
C19   C21   A    
O29   H17   S    
C18   C21   A    
O9    V1    S    
C19   O29   S    
C11   H1    S    
O3    C1    A    
C2    C27   S    
C5    C21   S    
C3    C34   S    
O12   V4    S    
O9    C5    A    
C29   H9    S    
C11   C16   S    
O7    C3    A    
C30   H10   S    
C9    C11   S    
O5    C7    A    
O7    V1    S    
O6    C8    A    
O8    V2    S    
C31   H11   S    
O3    V1    S    
O14   V4    S    
V4    O20   S    
C23   C25   A    
C20   C22   A    
C2    O12   A    
O17   V3    S    
C15   H3    S    
C12   C15   S    
C16   H4    S    
S2    O28   S    
C24   H6    S    
O11   V3    S    
C17   C19   A    
C6    C22   S    
C18   C20   A    
C9    C14   S    
C30   C32   A    
C10   C13   S    
C12   C14   S    
C13   C15   S    
O8    C4    A    
O25   H15   S    
C1    O11   A    
C8    C13   S    
O15   V3    S    
C26   C28   A    
C30   C33   A    
C23   H5    S    
C11   C13   S    
S1    O23   D    
C24   C27   A    
O28   H16   S    
C7    C14   S    
O10   V2    S    
O1    V3    S    
C20   O30   S    
S1    O24   D    
S2    O27   D    
O18   V4    S    
O15   C5    A    
C4    C33   S    
O16   C6    A    
O1    C3    A    
C12   H2    S    
C1    C28   S    
V2    O20   S    
O16   V4    S    
S2    O26   D    
O5    V1    S    
O17   C7    A    
O6    V2    S    
O10   C6    A    
O18   C8    A    
O2    V4    S    
C17   S1    S    
C9    C15   S    
C25   H7    S    
O21   H13   S    
V3    O19   S    
C18   S2    S    
C32   C34   A    
C17   C22   A    
C31   C33   A    
C14   C16   S    
O13   V1    S    
C10   C12   S    
C26   H8    S    
O14   V2    S    
O2    C4    A    
S1    O25   S    
C9    O21   S    
C10   O22   S    
O4    V2    S    
C29   C31   A    
C23   C28   A    
C24   C26   A    
