data_mof_unit_64172.cif
_audit_creation_date              2012-12-10T19:50:13-0500
_audit_creation_method            fapswitch 2.2
_symmetry_space_group_name_H-M    P1
_symmetry_Int_Tables_number       1
_space_group_crystal_system       triclinic
_cell_length_a                    10.832441
_cell_length_b                    19.363616
_cell_length_c                    18.047243
_cell_angle_alpha                 90.083241
_cell_angle_beta                  89.989163
_cell_angle_gamma                 90.210579
_cell_volume                      3785.47394196

loop_
_atom_site_label
_atom_site_type_symbol
_atom_type_description
_atom_site_fract_x
_atom_site_fract_y
_atom_site_fract_z
_atom_type_partial_charge
C1    C     C_R   0.499683 0.367217 0.499976 0.825762
C2    C     C_R   0.500308 0.632782 0.500023 0.825772
C3    C     C_R   0.871721 0.498711 0.500280 -0.274994
C4    C     C_R   0.128277 0.501307 0.499722 -0.275046
C5    C     C_R   0.937232 0.462900 0.555741 -0.054117
C6    C     C_R   0.062765 0.537111 0.444257 -0.054130
C7    C     C_R   0.482724 0.254880 0.566330 -0.167617
C8    C     C_R   0.517246 0.745119 0.433667 -0.167583
C9    C     C_R   0.482957 0.182941 0.566387 -0.119621
C10   C     C_R   0.517002 0.817058 0.433608 -0.119641
C11   C     C_R   0.498917 0.146167 0.499930 0.039099
C12   C     C_R   0.501020 0.853832 0.500065 0.039153
C13   C     C_R   0.514418 0.182811 0.433425 -0.119882
C14   C     C_R   0.485504 0.817189 0.566573 -0.119886
C15   C     C_R   0.514322 0.254757 0.433417 -0.123755
C16   C     C_R   0.485615 0.745244 0.566583 -0.123791
C17   C     C_R   0.498914 0.291364 0.499901 -0.021826
C18   C     C_R   0.501052 0.708636 0.500098 -0.021685
C19   C     C_R   0.500507 0.929948 0.500028 0.424514
C20   C     C_R   0.499425 0.070051 0.499965 0.424523
C21   C     C_R   0.572237 0.546186 0.279102 0.037970
C22   C     C_R   0.427809 0.453797 0.720898 0.037965
C23   C     C_R   0.261980 0.500644 0.499939 0.925185
C24   C     C_R   0.738019 0.499362 0.500061 0.925154
C25   C     C_R   0.573950 0.547866 0.201131 0.594940
C26   C     C_R   0.426108 0.452114 0.798869 0.594825
C27   C     C_R   0.500298 0.501329 0.159816 -0.085051
C28   C     C_R   0.499722 0.498665 0.840185 -0.085145
C29   C     C_R   0.426337 0.454502 0.200077 -0.321597
C30   C     C_R   0.573641 0.545508 0.799923 -0.321485
C31   C     C_R   0.427577 0.454702 0.278057 0.065537
C32   C     C_R   0.572392 0.545311 0.721944 0.065620
C33   C     C_R   0.499913 0.499160 0.923871 0.462849
C34   C     C_R   0.500109 0.500833 0.076130 0.462859
C35   C     C_R   0.240172 0.681774 0.351613 -0.293498
C36   C     C_R   0.759890 0.318111 0.648212 -0.293598
C37   C     C_R   0.176806 0.643256 0.404974 0.531509
C38   C     C_R   0.823255 0.356695 0.594902 0.531464
C39   C     C_R   0.126126 0.578527 0.386510 0.017425
C40   C     C_R   0.873867 0.421424 0.613440 0.017379
C41   C     C_R   0.139722 0.552920 0.313753 0.213918
C42   C     C_R   0.860200 0.446966 0.686223 0.214016
C43   C     C_R   0.204483 0.591677 0.261012 -0.251895
C44   C     C_R   0.795427 0.408147 0.738913 -0.251900
C45   C     C_R   0.254783 0.655845 0.279917 0.580390
C46   C     C_R   0.745197 0.343977 0.719933 0.580425
C47   C     C_R   0.934575 0.535560 0.445041 0.624183
C48   C     C_R   0.065422 0.464462 0.554964 0.624194
Cu1   Cu    Cu3+1 0.499990 0.499980 0.573360 0.998657
Cu2   Cu    Cu3+1 0.500010 0.500020 0.426640 0.998674
H1    H     H_    0.526940 0.281660 0.381371 0.163867
H2    H     H_    0.472991 0.718342 0.618630 0.163841
H3    H     H_    0.629255 0.582080 0.309941 0.192521
H4    H     H_    0.370819 0.417890 0.690060 0.192505
H5    H     H_    0.367537 0.417740 0.171634 0.215634
H6    H     H_    0.632412 0.582283 0.828367 0.215640
H7    H     H_    0.370008 0.418477 0.307961 0.172960
H8    H     H_    0.629930 0.581550 0.692039 0.172943
H9    H     H_    0.278272 0.731757 0.365936 0.200814
H10   H     H_    0.721854 0.268125 0.633833 0.200854
H11   H     H_    0.216410 0.571838 0.205366 0.211568
H12   H     H_    0.783443 0.427935 0.794576 0.211555
H13   H     H_    0.470100 0.281888 0.618377 0.179646
H14   H     H_    0.529889 0.718111 0.381621 0.179562
H15   H     H_    0.470650 0.156261 0.618563 0.180260
H16   H     H_    0.529319 0.843737 0.381430 0.180213
H17   H     H_    0.526866 0.156016 0.381273 0.169174
H18   H     H_    0.473037 0.843984 0.618724 0.169168
N1    N     N_R   0.514214 0.034286 0.435864 -0.214620
N2    N     N_R   0.485718 0.965714 0.564129 -0.214620
N3    N     N_R   0.514737 0.965611 0.435893 -0.213516
N4    N     N_R   0.485195 0.034388 0.564100 -0.213507
N5    N     N_R   0.500010 0.500050 0.316380 -0.228938
N6    N     N_R   0.499990 0.499950 0.683620 -0.228945
N7    N     N_R   0.428874 0.455157 0.037611 -0.211995
N8    N     N_R   0.571147 0.544836 0.962390 -0.211974
N9    N     N_R   0.428775 0.454370 0.963514 -0.105882
N10   N     N_R   0.571247 0.545623 0.036486 -0.105870
O1    O     O_R   0.500010 0.400130 0.561970 -0.601403
O2    O     O_R   0.499990 0.599870 0.438030 -0.601383
O3    O     O_R   0.500020 0.400160 0.438070 -0.588109
O4    O     O_R   0.499980 0.599840 0.561930 -0.588156
O5    O     O_R   0.319640 0.499990 0.561950 -0.519387
O6    O     O_R   0.680360 0.500010 0.438050 -0.519380
O7    O     O_R   0.319650 0.500020 0.438050 -0.610434
O8    O     O_R   0.680350 0.499980 0.561950 -0.610414
F1    F     F_    0.317850 0.692965 0.228634 -0.608078
F2    F     F_    0.682131 0.306795 0.771164 -0.608077
F3    F     F_    0.647676 0.594827 0.166985 -0.599163
F4    F     F_    0.352424 0.405133 0.833016 -0.599159
F5    F     F_    0.165239 0.668832 0.474691 -0.639792
F6    F     F_    0.834889 0.331182 0.525161 -0.639730
Br1   Br    Br    0.075088 0.464472 0.285123 -0.420520
Br2   Br    Br    0.924756 0.535405 0.714953 -0.420569
F7    F     F_    0.871214 0.572099 0.393220 -0.632673
F8    F     F_    0.128780 0.427917 0.606782 -0.632648

loop_
_geom_bond_atom_site_label_1
_geom_bond_atom_site_label_2
_ccdc_geom_bond_type
C38   C40   A    
C21   N5    A    
C2    C18   S    
C19   N3    A    
C32   H8    S    
C33   N9    A    
Cu2   O6    S    
C39   C41   A    
C23   O5    A    
C45   F1    S    
N8    N10   A    
C32   N6    A    
C31   N5    A    
C27   C29   A    
C1    O3    A    
C38   F6    S    
C35   H9    S    
N1    N3    A    
Cu2   O7    S    
C41   Br1   S    
C7    C17   A    
C36   C46   A    
C15   H1    S    
C34   N7    A    
C40   C42   A    
C41   C43   A    
C3    C24   S    
C42   C44   A    
C44   C46   A    
C46   F2    S    
C10   H16   S    
C27   C34   S    
C37   C39   A    
C5    C48   A    
C11   C20   S    
C6    C47   A    
C37   F5    S    
C22   H4    S    
Cu2   N5    S    
C4    C23   S    
C25   F3    S    
C29   H5    S    
C36   H10   S    
C30   H6    S    
C8    C18   A    
Cu1   O1    S    
Cu1   O4    S    
C21   H3    S    
C9    C11   A    
C33   N8    A    
C6    C39   S    
C16   C18   A    
N7    N9    A    
C7    H13   S    
C10   C12   A    
C8    H14   S    
C4    C6    A    
C12   C14   A    
C28   C33   S    
C13   C15   A    
C23   O7    A    
C1    O1    A    
C14   C16   A    
C20   N1    A    
C2    O4    A    
C25   C27   A    
C22   N6    A    
C36   C38   A    
C35   C45   A    
C43   H11   S    
C4    C48   A    
C15   C17   A    
C21   C25   A    
C14   H18   S    
C48   F8    S    
C35   C37   A    
C42   Br2   S    
C26   C28   A    
Cu1   O8    S    
C8    C10   A    
C13   H17   S    
C16   H2    S    
C3    C5    A    
Cu2   O2    S    
C26   F4    S    
C1    C17   S    
C44   H12   S    
Cu1   O5    S    
C28   C30   A    
C24   O6    A    
C43   C45   A    
C34   N10   A    
C30   C32   A    
C11   C13   A    
C31   H7    S    
C12   C19   S    
C3    C47   A    
C9    H15   S    
C2    O2    A    
C7    C9    A    
C29   C31   A    
Cu1   Cu2   S    
C22   C26   A    
C5    C40   S    
C47   F7    S    
Cu1   N6    S    
C20   N4    A    
C19   N2    A    
N2    N4    A    
C24   O8    A    
Cu2   O3    S    
