data_mof_unit_60122.cif
_audit_creation_date              2012-12-10T19:07:22-0500
_audit_creation_method            fapswitch 2.2
_symmetry_space_group_name_H-M    P1
_symmetry_Int_Tables_number       1
_space_group_crystal_system       triclinic
_cell_length_a                    13.042806
_cell_length_b                    13.62534
_cell_length_c                    19.247255
_cell_angle_alpha                 89.959769
_cell_angle_beta                  92.395651
_cell_angle_gamma                 85.804486
_cell_volume                      3408.30909119

loop_
_atom_site_label
_atom_site_type_symbol
_atom_type_description
_atom_site_fract_x
_atom_site_fract_y
_atom_site_fract_z
_atom_type_partial_charge
C1    C     C_R   0.481252 0.685165 0.499320 0.903639
C2    C     C_R   0.518748 0.314835 0.500680 0.903594
C3    C     C_1   0.533613 0.211695 0.501010 -0.156066
C4    C     C_1   0.466386 0.788305 0.498992 -0.156032
C5    C     C_2   0.544584 0.020550 0.501113 -0.152826
C6    C     C_2   0.455415 0.979450 0.498893 -0.152813
C7    C     C_1   0.457505 0.875711 0.498846 0.027799
C8    C     C_1   0.542495 0.124289 0.501158 0.027779
C9    C     C_2   0.033192 0.473290 0.480141 -0.233029
C10   C     C_2   0.966808 0.526710 0.519859 -0.233054
C11   C     C_1   0.854748 0.519477 0.514335 0.167186
C12   C     C_1   0.145252 0.480523 0.485664 0.167135
C13   C     C_R   0.498648 0.502121 0.634390 0.884413
C14   C     C_R   0.501353 0.497873 0.365608 0.884388
C15   C     C_R   0.416950 0.556125 0.743966 0.148974
C16   C     C_R   0.583116 0.443901 0.256038 0.149048
C17   C     C_R   0.418124 0.554343 0.816122 -0.172518
C18   C     C_R   0.581903 0.445602 0.183880 -0.172551
C19   C     C_R   0.497817 0.501155 0.854139 0.042575
C20   C     C_R   0.502106 0.498622 0.145850 0.042578
C21   C     C_R   0.577068 0.449626 0.819333 -0.147032
C22   C     C_R   0.422793 0.550071 0.180646 -0.147044
C23   C     C_R   0.576468 0.451029 0.747429 -0.219221
C24   C     C_R   0.423433 0.548753 0.252552 -0.219209
C25   C     C_R   0.496502 0.503369 0.709468 -0.078827
C26   C     C_R   0.503498 0.496576 0.290527 -0.078907
C27   C     C_R   0.501070 0.499379 0.070087 0.308129
C28   C     C_R   0.498824 0.500332 0.929901 0.308125
H1    H     H_    0.357053 0.595594 0.842282 0.175581
H2    H     H_    0.643029 0.404423 0.157727 0.175581
H3    H     H_    0.639601 0.408173 0.847462 0.162664
H4    H     H_    0.360179 0.591394 0.152509 0.162669
H5    H     H_    0.638031 0.410248 0.721322 0.163943
H6    H     H_    0.361814 0.589465 0.278647 0.164001
H7    H     H_    0.382037 0.022934 0.497143 0.166475
H8    H     H_    0.617963 0.977066 0.502863 0.166473
H9    H     H_    0.996545 0.577530 0.557788 0.179019
H10   H     H_    0.003455 0.422470 0.442211 0.179041
N1    N     N_R   0.576331 0.450319 0.967050 -0.170824
N2    N     N_R   0.423558 0.549382 0.032937 -0.170831
N3    N     N_R   0.577425 0.449838 0.035965 -0.168986
N4    N     N_R   0.422464 0.549864 0.964023 -0.168992
N5    N     N_1   0.234540 0.484780 0.488910 -0.082883
N6    N     N_1   0.765460 0.515220 0.511090 -0.082866
O1    O     O_R   0.402510 0.634760 0.495940 -0.597067
O2    O     O_R   0.597490 0.365240 0.504060 -0.597079
O3    O     O_R   0.572960 0.644530 0.503060 -0.607318
O4    O     O_R   0.427040 0.355470 0.496940 -0.607319
O5    O     O_R   0.414750 0.495120 0.598300 -0.585619
O6    O     O_R   0.585250 0.504880 0.401700 -0.585593
O7    O     O_R   0.585190 0.504900 0.605420 -0.618992
O8    O     O_R   0.414810 0.495100 0.394580 -0.619016
Zn1   Zn    Zn3+2 0.386190 0.493480 0.495250 1.007328
Zn2   Zn    Zn3+2 0.613810 0.506520 0.504750 1.007349
I1    I     I_    0.297092 0.646375 0.692390 -0.346488
I2    I     I_    0.703146 0.353873 0.307623 -0.346483

loop_
_geom_bond_atom_site_label_1
_geom_bond_atom_site_label_2
_ccdc_geom_bond_type
C5    C8    S    
C16   I2    S    
C6    C7    S    
C18   H2    S    
C20   C27   S    
C17   H1    S    
C9    C10   D    
C27   N3    A    
C2    O4    A    
O2    Zn2   S    
C27   N2    A    
C1    C4    S    
C13   C25   S    
O7    Zn2   S    
N2    N4    A    
C2    C3    S    
O1    Zn1   S    
C11   N6    T    
N1    N3    A    
C15   I1    S    
C14   O6    A    
C14   C26   S    
C19   C28   S    
C21   H3    S    
C1    O1    A    
O6    Zn2   S    
C22   H4    S    
C10   H9    S    
C13   O5    A    
C5    C6    D    
C28   N4    A    
C9    H10   S    
C19   C21   A    
C20   C22   A    
C12   N5    T    
C18   C20   A    
C4    C7    T    
C21   C23   A    
C16   C26   A    
O4    Zn1   S    
C9    C12   S    
C22   C24   A    
C15   C25   A    
O5    Zn1   S    
C10   C11   S    
C5    H8    S    
N6    Zn2   S    
C6    H7    S    
C23   C25   A    
O8    Zn1   S    
C16   C18   A    
C3    C8    T    
C15   C17   A    
O3    Zn2   S    
C1    O3    A    
C2    O2    A    
C28   N1    A    
C17   C19   A    
C13   O7    A    
N5    Zn1   S    
C14   O8    A    
C24   C26   A    
C23   H5    S    
C24   H6    S    
