data_mof_unit_34182.cif
_audit_creation_date              2013-03-05T15:49:57-0500
_audit_creation_method            fapswitch 2.2
_symmetry_space_group_name_H-M    P1
_symmetry_Int_Tables_number       1
_space_group_crystal_system       triclinic
_cell_length_a                    12.033599
_cell_length_b                    12.921561
_cell_length_c                    14.985699
_cell_angle_alpha                 90.501019
_cell_angle_beta                  85.787511
_cell_angle_gamma                 93.248739
_cell_volume                      2320.11535331

loop_
_atom_site_label
_atom_site_type_symbol
_atom_site_description
_atom_site_fract_x
_atom_site_fract_y
_atom_site_fract_z
_atom_type_partial_charge
O1    O     O_R   0.421700 0.658830 0.504450 -0.560550
O2    O     O_R   0.578300 0.341170 0.495550 -0.560508
O3    O     O_R   0.609310 0.646410 0.493750 -0.630734
O4    O     O_R   0.390690 0.353590 0.506250 -0.631012
C1    C     C_R   0.521693 0.700060 0.495636 0.966283
C2    C     C_R   0.478308 0.299942 0.504402 0.965507
O5    O     O_R   0.406180 0.506230 0.637500 -0.578464
O6    O     O_R   0.593820 0.493770 0.362500 -0.578158
O7    O     O_R   0.593800 0.493820 0.626800 -0.609887
O8    O     O_R   0.406200 0.506180 0.373200 -0.609927
C3    C     C_R   0.499970 0.502698 0.672891 0.967122
C4    C     C_R   0.500026 0.497303 0.327105 0.968034
Zn1   Zn    Zn3+2 0.374730 0.508290 0.507150 1.088565
Zn2   Zn    Zn3+2 0.625270 0.491710 0.492850 1.088698
C5    C     C_R   0.447011 0.412374 0.188224 0.121259
C6    C     C_R   0.552847 0.587724 0.811776 0.121445
C7    C     C_R   0.501831 0.495324 0.231447 -0.205234
C8    C     C_R   0.498121 0.504739 0.768543 -0.205144
C9    C     C_R   0.562712 0.575084 0.183747 0.286315
C10   C     C_R   0.437134 0.425048 0.816223 0.286570
C11   C     C_R   0.555254 0.580476 0.091721 -0.030929
C12   C     C_R   0.444408 0.419704 0.908267 -0.030797
C13   C     C_R   0.502761 0.497189 0.046502 0.006506
C14   C     C_R   0.496892 0.502984 0.953496 0.006417
C15   C     C_R   0.456821 0.408101 0.094077 -0.021675
C16   C     C_R   0.542870 0.592055 0.905917 -0.021727
C17   C     C_R   0.592033 0.671124 0.045629 -0.138485
C18   C     C_R   0.407462 0.329113 0.954367 -0.138494
C19   C     C_R   0.580520 0.680000 0.954573 0.304386
C20   C     C_R   0.419030 0.320201 0.045414 0.304350
H1    H     H_    0.621643 0.739112 0.081553 0.231479
H2    H     H_    0.377710 0.261172 0.918447 0.231572
C21   C     C_R   0.465436 0.188797 0.506972 -0.119106
C22   C     C_R   0.534578 0.811202 0.493080 -0.119016
C23   C     C_R   0.635533 0.964745 0.540564 -0.063952
C24   C     C_R   0.364472 0.035246 0.459507 -0.064057
C25   C     C_R   0.629517 0.859300 0.526706 -0.190019
C26   C     C_R   0.370476 0.140688 0.473384 -0.189941
C27   C     C_R   0.447052 0.869194 0.466734 0.304801
C28   C     C_R   0.552995 0.130809 0.533275 0.304947
C29   C     C_R   0.452478 0.975908 0.481281 0.004098
C30   C     C_R   0.547543 0.024089 0.518764 0.004156
H3    H     H_    0.302766 0.185241 0.453728 0.200830
H4    H     H_    0.697209 0.814740 0.546388 0.200800
H5    H     H_    0.708647 0.998378 0.570080 0.216815
H6    H     H_    0.291348 0.001608 0.430010 0.216821
N1    N     N_R   0.207800 0.519350 0.516680 -0.179703
N2    N     N_R   0.792200 0.480650 0.483320 -0.179704
C31   C     C_R   0.959193 0.425807 0.399915 0.182547
C32   C     C_R   0.040808 0.574198 0.600084 0.182544
C33   C     C_R   0.841824 0.429079 0.411864 0.378663
C34   C     C_R   0.158178 0.570934 0.588129 0.378715
C35   C     C_R   0.855852 0.528700 0.544554 0.000619
C36   C     C_R   0.144147 0.471292 0.455451 0.000601
C37   C     C_R   0.973831 0.525716 0.536869 -0.110831
C38   C     C_R   0.026168 0.474280 0.463135 -0.110832
H7    H     H_    0.186038 0.429431 0.401526 0.194684
H8    H     H_    0.813960 0.570557 0.598482 0.194675
I1    I     I_    0.338107 0.304885 0.267513 -0.124708
I2    I     I_    0.661904 0.695138 0.732555 -0.124706
N3    N     N_R   0.008995 0.374414 0.322952 0.223842
O9    O     O_R   0.074032 0.426953 0.264394 -0.309487
O10   O     O_R   0.980359 0.277928 0.306488 -0.256901
N4    N     N_R   0.991007 0.625598 0.677042 0.223835
O11   O     O_R   0.925981 0.573064 0.735610 -0.309403
O12   O     O_R   0.019630 0.722091 0.693491 -0.256954
N5    N     N_R   0.628974 0.652242 0.229111 0.208425
O13   O     O_R   0.735452 0.665444 0.207234 -0.290471
O14   O     O_R   0.582426 0.712778 0.288766 -0.364587
N6    N     N_R   0.371070 0.347839 0.770773 0.207806
O15   O     O_R   0.418126 0.286320 0.712143 -0.363904
O16   O     O_R   0.264365 0.335194 0.791956 -0.290451
N7    N     N_R   0.590697 0.782077 0.916923 0.230489
O17   O     O_R   0.670786 0.847431 0.938397 -0.273716
O18   O     O_R   0.508038 0.816172 0.876437 -0.285574
N8    N     N_R   0.408791 0.218107 0.083025 0.230499
O19   O     O_R   0.328549 0.152870 0.061643 -0.273719
O20   O     O_R   0.491525 0.183863 0.123324 -0.285547
N9    N     N_R   0.647033 0.180143 0.574005 0.208697
O21   O     O_R   0.633007 0.226428 0.651081 -0.304009
O22   O     O_R   0.745346 0.184823 0.531338 -0.330201
N10   N     N_R   0.353115 0.819874 0.425864 0.208717
O23   O     O_R   0.367307 0.773662 0.348768 -0.304341
O24   O     O_R   0.254746 0.815078 0.468439 -0.330210
N11   N     N_R   0.224649 0.617469 0.654521 0.240865
O25   O     O_R   0.213873 0.581469 0.735710 -0.292972
O26   O     O_R   0.274233 0.708401 0.640163 -0.295538
N12   N     N_R   0.775359 0.382582 0.345451 0.240841
O27   O     O_R   0.786155 0.418614 0.264272 -0.293084
O28   O     O_R   0.725732 0.291663 0.359783 -0.295472

loop_
_geom_bond_atom_site_label_1
_geom_bond_atom_site_label_2
_geom_bond_distance
_ccdc_geom_bond_type
C37   C38   1.411268 A    
C3    C8    1.431986 S    
C17   C19   1.388028 A    
C22   C25   1.394282 A    
C32   N4    1.435446 S    
C29   C30   1.421044 A    
N12   O28   1.299616 A    
C27   C29   1.392767 A    
N11   O25   1.301309 A    
O5    C3    1.285062 A    
O1    C1    1.286227 A    
C34   N11   1.429408 S    
C9    C11   1.391162 A    
C14   C16   1.422457 A    
C6    I2    2.156748 S    
C5    C15   1.407993 A    
C19   N7    1.434445 S    
N7    O17   1.301572 A    
O4    Zn1   2.018808 S    
N3    O10   1.300932 A    
C23   C30   1.401108 A    
N2    C33   1.373315 A    
C31   C33   1.413550 A    
C4    C7    1.432092 S    
C32   C34   1.413556 A    
C13   C14   1.403571 A    
C24   H6    1.081236 S    
N6    O15   1.300077 A    
C28   C30   1.392769 A    
C11   C17   1.398361 A    
C12   C18   1.398284 A    
N7    O18   1.301759 A    
C10   N6    1.438399 S    
C24   C29   1.401092 A    
O2    C2    1.286223 A    
C35   C37   1.418610 A    
C6    C16   1.407943 A    
N2    C35   1.361484 A    
C36   C38   1.418604 A    
C21   C28   1.408063 A    
C31   N3    1.435451 S    
N11   O26   1.299616 A    
C17   H1    1.083052 S    
C22   C27   1.408003 A    
C18   H2    1.083081 S    
N8    O19   1.301590 A    
O4    C2    1.292760 A    
N9    O22   1.301367 A    
Zn2   N2    2.016434 S    
N5    O13   1.301087 A    
N5    O14   1.299484 A    
N4    O12   1.300932 A    
O7    Zn2   2.015461 S    
C20   N8    1.434420 S    
O6    C4    1.285134 A    
C1    C22   1.436254 S    
C28   N9    1.439577 S    
C9    N5    1.438619 S    
O7    C3    1.289899 A    
O3    Zn2   2.018808 S    
O8    C4    1.289888 A    
N1    C36   1.361479 A    
C10   C12   1.391085 A    
N10   O24   1.301362 A    
C11   C13   1.410498 A    
C12   C14   1.410462 A    
O1    Zn1   1.994582 S    
C23   H5    1.081239 S    
Zn1   N1    2.016434 S    
C15   C20   1.415744 A    
C5    C7    1.405013 A    
O6    Zn2   2.017502 S    
C23   C25   1.375093 A    
C5    I1    2.156880 S    
C21   C26   1.394301 A    
C27   N10   1.439551 S    
N8    O20   1.301777 A    
O3    C1    1.292725 A    
O8    Zn1   2.015461 S    
C33   N12   1.429408 S    
C35   H8    1.078504 S    
N1    C34   1.373310 A    
C31   C38   1.408552 A    
C32   C37   1.408557 A    
C2    C21   1.436285 S    
N4    O11   1.301059 A    
C25   H4    1.083271 S    
C24   C26   1.375103 A    
C26   H3    1.083275 S    
C18   C20   1.388053 A    
C7    C9    1.400098 A    
C8    C10   1.399878 A    
C13   C15   1.422464 A    
N3    O9    1.301061 A    
O2    Zn2   1.994582 S    
N9    O21   1.300394 A    
O5    Zn1   2.017500 S    
N12   O27   1.301310 A    
C16   C19   1.415619 A    
C6    C8    1.404902 A    
N10   O23   1.300403 A    
N6    O16   1.301334 A    
C36   H7    1.078496 S    
