data_mof_unit_30331.cif
_audit_creation_date              2012-12-11T14:52:39-0500
_audit_creation_method            fapswitch 2.2
_symmetry_space_group_name_H-M    P1
_symmetry_Int_Tables_number       1
_space_group_crystal_system       triclinic
_cell_length_a                    18.821575
_cell_length_b                    10.92389
_cell_length_c                    18.748951
_cell_angle_alpha                 89.990847
_cell_angle_beta                  91.086235
_cell_angle_gamma                 90.183128
_cell_volume                      3854.16215619

loop_
_atom_site_label
_atom_site_type_symbol
_atom_type_description
_atom_site_fract_x
_atom_site_fract_y
_atom_site_fract_z
_atom_type_partial_charge
C1    C     C_R   0.289585 0.998541 0.861197 0.560971
C2    C     C_R   0.698930 0.528136 0.037038 -0.146162
C3    C     C_3   0.008836 0.328562 0.069146 0.051327
C4    C     C_R   0.806852 0.039974 0.963885 -0.150768
C5    C     C_R   0.202870 0.012043 0.041246 -0.141797
C6    C     C_R   0.301838 0.528778 0.037478 -0.145284
C7    C     C_R   0.703030 0.512260 0.963552 -0.145999
C8    C     C_R   0.801851 0.027871 0.037640 -0.151128
C9    C     C_R   0.214217 0.982348 0.969885 -0.139874
C10   C     C_R   0.240518 0.569859 0.071312 0.027340
C11   C     C_R   0.752157 0.581182 0.924384 0.026284
C12   C     C_R   0.741867 0.072995 0.072212 0.031256
C13   C     C_R   0.727122 0.041102 0.145678 0.542577
C14   C     C_R   0.276633 0.021852 0.936528 0.021899
C15   C     C_R   0.184345 0.619741 0.030726 -0.143756
C16   C     C_R   0.793978 0.670082 0.958393 -0.140003
C17   C     C_R   0.687200 0.129076 0.032516 -0.141369
C18   C     C_R   0.329146 0.083113 0.976264 -0.144890
C19   C     C_R   0.188545 0.627112 0.957995 -0.147282
C20   C     C_R   0.791404 0.683197 0.031165 -0.139796
C21   C     C_R   0.690863 0.136620 0.959818 -0.146975
C22   C     C_R   0.318547 0.110435 0.046919 -0.139241
C23   C     C_R   0.250774 0.592213 0.923973 0.030977
C24   C     C_R   0.771819 0.542822 0.853358 0.546532
C25   C     C_R   0.744810 0.611200 0.071372 0.026556
C26   C     C_R   0.751211 0.095183 0.924769 0.028164
C27   C     C_R   0.254574 0.078975 0.079609 0.029601
C28   C     C_R   0.461031 0.729942 0.526940 -0.125988
C29   C     C_R   0.469301 0.734171 0.454237 -0.133498
C30   C     C_R   0.028482 0.231729 0.545395 -0.129421
C31   C     C_R   0.035930 0.227424 0.472619 -0.123998
C32   C     C_R   0.501393 0.836014 0.423624 0.033101
C33   C     C_R   0.483562 0.828417 0.570170 0.032213
C34   C     C_R   0.016164 0.327983 0.429888 0.034681
C35   C     C_R   0.226760 0.540288 0.145326 0.554404
C36   C     C_R   0.999648 0.335605 0.576710 0.035286
C37   C     C_R   0.520499 0.937891 0.465966 -0.136581
C38   C     C_R   0.511551 0.933977 0.539343 -0.155108
C39   C     C_R   0.991655 0.435291 0.461427 -0.152944
C40   C     C_R   0.983752 0.439361 0.534959 -0.135697
C41   C     C_R   0.471771 0.821854 0.854909 0.540716
C42   C     C_R   0.530110 0.821383 0.144039 0.545353
C43   C     C_R   0.971142 0.321957 0.855273 0.546509
C44   C     C_R   0.029021 0.321650 0.144602 0.547963
C45   C     C_R   0.173417 0.583454 0.548271 -0.127347
C46   C     C_3   0.533112 0.727860 0.970998 -0.114697
C47   C     C_R   0.813595 0.621753 0.461668 -0.136997
C48   C     C_R   0.713335 0.195038 0.524677 -0.127566
C49   C     C_R   0.326657 0.081876 0.451322 -0.127223
C50   C     C_R   0.162363 0.555270 0.477246 -0.131263
C51   C     C_R   0.814879 0.625099 0.534171 -0.133050
C52   C     C_R   0.713326 0.184966 0.452009 -0.140751
C53   C     C_R   0.337878 0.053404 0.522330 -0.131790
C54   C     C_R   0.217698 0.506304 0.437891 0.027957
C55   C     C_R   0.757781 0.577133 0.572269 0.039632
C56   C     C_R   0.753014 0.092525 0.421087 0.031963
C57   C     C_3   0.473620 0.726227 0.026576 -0.114348
C58   C     C_R   0.282174 0.005983 0.562064 0.026549
C59   C     C_R   0.281664 0.472230 0.472269 -0.131726
C60   C     C_R   0.697071 0.532809 0.536557 -0.140309
C61   C     C_R   0.800543 0.021425 0.462258 -0.126748
C62   C     C_R   0.217634 0.973304 0.528066 -0.130761
C63   C     C_R   0.293394 0.503067 0.543327 -0.138052
C64   C     C_R   0.693668 0.537845 0.462875 -0.136916
C65   C     C_R   0.801730 0.033473 0.535497 -0.135438
C66   C     C_R   0.205838 0.004178 0.457059 -0.137614
C67   C     C_R   0.240790 0.566150 0.580013 0.033661
C68   C     C_3   0.037661 0.237910 0.971212 -0.120969
C69   C     C_R   0.751489 0.585769 0.425646 0.034758
C70   C     C_R   0.755848 0.116840 0.566832 0.038922
C71   C     C_R   0.258903 0.065961 0.419994 0.033278
C72   C     C_R   0.260732 0.636177 0.851754 0.541556
C73   C     C_R   0.738121 0.640870 0.146459 0.543618
C74   C     C_R   0.760831 0.136726 0.851989 0.544679
C75   C     C_R   0.239829 0.134795 0.148597 0.547443
C76   C     C_R   0.291681 0.994192 0.638787 0.573497
C77   C     C_R   0.730086 0.048194 0.352606 0.550369
C78   C     C_R   0.771729 0.545395 0.645355 0.548407
C79   C     C_3   0.978332 0.220717 0.026102 -0.115978
C80   C     C_R   0.208335 0.494416 0.361169 0.570746
C81   C     C_R   0.467132 0.823016 0.645240 0.539497
C82   C     C_R   0.529590 0.824242 0.352680 0.550782
C83   C     C_R   0.970736 0.324351 0.647480 0.550354
C84   C     C_R   0.032887 0.322830 0.354812 0.538492
C85   C     C_R   0.258455 0.632750 0.645042 0.542836
C86   C     C_R   0.740761 0.633819 0.355235 0.551355
C87   C     C_R   0.761065 0.141861 0.641624 0.550199
C88   C     C_R   0.241469 0.132639 0.354980 0.541013
C89   C     C_3   0.472994 0.927968 0.027621 -0.129711
C90   C     C_R   0.307402 0.541503 0.963829 -0.139311
C91   C     C_3   0.532257 0.929702 0.971418 -0.128785
C92   C     C_3   0.961680 0.420486 0.029054 -0.127824
C93   C     C_3   0.020850 0.437746 0.973486 -0.120131
C94   C     C_3   0.433188 0.826804 0.985095 -0.108466
C95   C     C_3   0.572787 0.829081 0.013499 -0.102538
C96   C     C_3   0.930752 0.312431 0.984986 -0.104843
C97   C     C_3   0.068572 0.346035 0.014945 -0.106999
C98   C     C_3   0.493019 0.828390 0.930103 0.051288
C99   C     C_3   0.512651 0.827340 0.068101 0.057975
C100  C     C_3   0.990583 0.329371 0.930823 0.057046
Cr1   Cr    Cr6+3 0.229630 0.835900 0.747350 1.006192
Cr2   Cr    Cr6+3 0.614200 0.677120 0.250660 1.015394
Cr3   Cr    Cr6+3 0.885800 0.177120 0.749340 1.018513
Cr4   Cr    Cr6+3 0.114200 0.177120 0.250660 1.008957
Cr5   Cr    Cr6+3 0.770370 0.835900 0.252650 1.010369
Cr6   Cr    Cr6+3 0.729630 0.335900 0.747350 1.010992
Cr7   Cr    Cr6+3 0.270370 0.335900 0.252650 1.007437
Cr8   Cr    Cr6+3 0.387410 0.989850 0.750850 1.007539
Cr9   Cr    Cr6+3 0.612590 0.989850 0.249150 1.011051
Cr10  Cr    Cr6+3 0.887410 0.489850 0.750850 1.013040
Cr11  Cr    Cr6+3 0.112590 0.489850 0.249150 1.009287
Cr12  Cr    Cr6+3 0.385800 0.677120 0.749340 1.005572
H1    H     H_    0.375433 0.824314 0.972010 0.116583
H2    H     H_    0.653174 0.493428 0.565344 0.120290
H3    H     H_    0.832395 0.950093 0.438747 0.136066
H4    H     H_    0.174744 0.931465 0.557186 0.134890
H5    H     H_    0.344984 0.485567 0.567695 0.122175
H6    H     H_    0.645002 0.510119 0.435553 0.128496
H7    H     H_    0.837037 0.976625 0.567485 0.122401
H8    H     H_    0.153891 0.987864 0.433050 0.121190
H9    H     H_    0.450838 0.009029 0.054501 0.109614
H10   H     H_    0.555826 0.012258 0.946800 0.111015
H11   H     H_    0.930088 0.494039 0.054048 0.119977
H12   H     H_    0.630494 0.830081 0.027109 0.127481
H13   H     H_    0.038441 0.525873 0.950215 0.109876
H14   H     H_    0.558300 0.646657 0.946581 0.122191
H15   H     H_    0.449306 0.643615 0.050562 0.115461
H16   H     H_    0.069330 0.164193 0.946462 0.123285
H17   H     H_    0.960076 0.132368 0.048699 0.117142
H18   H     H_    0.356439 0.515652 0.938630 0.133857
H19   H     H_    0.661067 0.474828 0.066920 0.123952
H20   H     H_    0.854631 0.009639 0.937977 0.127339
H21   H     H_    0.152962 0.987299 0.065280 0.126628
H22   H     H_    0.344937 0.486983 0.067724 0.121444
H23   H     H_    0.873656 0.298775 0.970995 0.127724
H24   H     H_    0.670377 0.442399 0.938141 0.130399
H25   H     H_    0.844115 0.982624 0.067322 0.115790
H26   H     H_    0.173481 0.932284 0.940466 0.131042
H27   H     H_    0.135342 0.649525 0.054560 0.138916
H28   H     H_    0.831763 0.725065 0.929357 0.131256
H29   H     H_    0.639532 0.163398 0.056995 0.136037
H30   H     H_    0.378564 0.111618 0.952497 0.134516
H31   H     H_    0.143937 0.666731 0.928937 0.127830
H32   H     H_    0.825713 0.751634 0.055636 0.136235
H33   H     H_    0.647189 0.180735 0.931591 0.127185
H34   H     H_    0.125667 0.359617 0.028920 0.128407
H35   H     H_    0.359719 0.161958 0.074838 0.130252
H36   H     H_    0.436405 0.649151 0.549171 0.133594
H37   H     H_    0.453934 0.655196 0.422458 0.128790
H38   H     H_    0.041698 0.151213 0.576663 0.130737
H39   H     H_    0.057913 0.144915 0.450020 0.133080
H40   H     H_    0.546057 0.017386 0.443147 0.139387
H41   H     H_    0.527118 0.011886 0.571859 0.120022
H42   H     H_    0.978470 0.514873 0.429408 0.111265
H43   H     H_    0.961749 0.520896 0.558512 0.125817
H44   H     H_    0.130983 0.628303 0.576364 0.131274
H45   H     H_    0.112002 0.578588 0.452074 0.130982
H46   H     H_    0.859212 0.658103 0.434150 0.125095
H47   H     H_    0.680004 0.264798 0.547585 0.137447
H48   H     H_    0.369373 0.125700 0.422870 0.132007
H49   H     H_    0.862738 0.660007 0.560023 0.126097
H50   H     H_    0.677666 0.242252 0.420642 0.125454
H51   H     H_    0.388728 0.075160 0.547186 0.131919
H52   H     H_    0.324205 0.429262 0.443419 0.135436
O1    O     O_R   0.214270 0.709000 0.827470 -0.535342
O2    O     O_R   0.543270 0.717630 0.330160 -0.521236
O3    O     O_R   0.956730 0.217630 0.669840 -0.519218
O4    O     O_R   0.043270 0.217630 0.330160 -0.524897
O5    O     O_R   0.320620 0.625640 0.672920 -0.507409
O6    O     O_R   0.679380 0.625640 0.327080 -0.505381
O7    O     O_R   0.820620 0.125640 0.672920 -0.502416
O8    O     O_R   0.179380 0.125640 0.327080 -0.509991
O9    O     O_3   0.334280 0.834290 0.749180 -0.288467
O10   O     O_3   0.665720 0.834290 0.250820 -0.244673
O11   O     O_3   0.834280 0.334290 0.749180 -0.245951
O12   O     O_R   0.785730 0.709000 0.172530 -0.530034
O13   O     O_3   0.165720 0.334290 0.250820 -0.269570
O14   O     O_R   0.236160 0.958490 0.823130 -0.496003
O15   O     O_R   0.763840 0.958490 0.176870 -0.509381
O16   O     O_R   0.736160 0.458490 0.823130 -0.508009
O17   O     O_R   0.263840 0.458490 0.176870 -0.499132
O18   O     O_R   0.332080 0.075470 0.831280 -0.508428
O19   O     O_R   0.667920 0.075470 0.168720 -0.528147
O20   O     O_R   0.832080 0.575470 0.831280 -0.521898
O21   O     O_R   0.167920 0.575470 0.168720 -0.521725
O22   O     O_R   0.446300 0.918110 0.826620 -0.519163
O23   O     O_R   0.714270 0.209000 0.827470 -0.527766
O24   O     O_R   0.553700 0.918110 0.173380 -0.505456
O25   O     O_R   0.946300 0.418110 0.826620 -0.502371
O26   O     O_R   0.053700 0.418110 0.173380 -0.502683
O27   O     O_R   0.457110 0.716200 0.831760 -0.517491
O28   O     O_R   0.542890 0.716200 0.168240 -0.521846
O29   O     O_R   0.957110 0.216200 0.831760 -0.520533
O30   O     O_R   0.042890 0.216200 0.168240 -0.518731
O31   O     O_R   0.320980 0.624310 0.823030 -0.502409
O32   O     O_R   0.679020 0.624310 0.176970 -0.505009
O33   O     O_R   0.820980 0.124310 0.823030 -0.506137
O34   O     O_R   0.285730 0.209000 0.172530 -0.527099
O35   O     O_R   0.179020 0.124310 0.176970 -0.500882
O36   O     O_R   0.213890 0.710430 0.665540 -0.536392
O37   O     O_R   0.786110 0.710430 0.334460 -0.527063
O38   O     O_R   0.713890 0.210430 0.665540 -0.530152
O39   O     O_R   0.286110 0.210430 0.334460 -0.537002
O40   O     O_R   0.235810 0.959820 0.673020 -0.499016
O41   O     O_R   0.764190 0.959820 0.326980 -0.505965
O42   O     O_R   0.735810 0.459820 0.673020 -0.507186
O43   O     O_R   0.264190 0.459820 0.326980 -0.506133
O44   O     O_R   0.331700 0.076900 0.669350 -0.508538
O45   O     O_R   0.445950 0.919440 0.676520 -0.524380
O46   O     O_R   0.668300 0.076900 0.330650 -0.526646
O47   O     O_R   0.831700 0.576900 0.669350 -0.531910
O48   O     O_R   0.168300 0.576900 0.330650 -0.515552
O49   O     O_R   0.554050 0.919440 0.323480 -0.506847
O50   O     O_R   0.945950 0.419440 0.676520 -0.509669
O51   O     O_R   0.054050 0.419440 0.323480 -0.525058
O52   O     O_R   0.456730 0.717630 0.669840 -0.523176

loop_
_geom_bond_atom_site_label_1
_geom_bond_atom_site_label_2
_ccdc_geom_bond_type
C95   H12   S    
C58   C62   A    
C81   O45   A    
C21   C26   A    
Cr2   O6    S    
C88   O8    A    
C53   C58   A    
C24   O20   A    
C72   O1    A    
C20   H32   S    
C60   H2    S    
C2    C7    A    
C4    C8    A    
C3    C79   S    
C72   O31   A    
C68   C100  S    
Cr8   O45   S    
Cr1   O36   S    
C58   C76   S    
C4    H20   S    
Cr10  O11   S    
Cr3   O3    S    
C5    C9    A    
C50   C54   A    
Cr7   O17   S    
Cr8   O22   S    
C28   C29   A    
Cr10  O50   S    
Cr11  O51   S    
Cr6   O23   S    
C15   C19   A    
C29   C32   A    
Cr9   O49   S    
C10   C15   A    
C30   C31   A    
C63   H5    S    
C95   C99   S    
C30   H38   S    
C81   O52   A    
Cr4   O4    S    
C20   C25   A    
C94   C98   S    
C36   C83   S    
C65   C70   A    
C79   H17   S    
C11   C24   S    
C92   C96   S    
C64   H6    S    
C76   O44   A    
C17   H29   S    
Cr3   O33   S    
C89   C94   S    
C14   C18   A    
C68   C97   S    
C47   C69   A    
C1    O14   A    
Cr1   O14   S    
C44   O26   A    
C5    C27   A    
Cr1   O9    S    
Cr8   O18   S    
C46   C95   S    
Cr4   O13   S    
C13   O19   A    
Cr5   O12   S    
C12   C17   A    
C61   H3    S    
Cr2   O28   S    
Cr6   O11   S    
C49   H48   S    
C10   C35   S    
C59   H52   S    
C8    C12   A    
C89   C91   S    
C68   H16   S    
C87   O38   A    
Cr7   O43   S    
C84   O51   A    
C16   C20   A    
C80   O48   A    
Cr9   O19   S    
C68   C79   S    
Cr12  O9    S    
C46   C98   S    
Cr10  O20   S    
Cr9   O24   S    
C15   H27   S    
C18   C22   A    
C55   C60   A    
Cr7   O13   S    
Cr3   O7    S    
Cr7   O39   S    
C16   H28   S    
C34   C84   S    
Cr5   O15   S    
C27   C75   S    
C70   C87   S    
Cr6   O16   S    
C94   H1    S    
C57   H15   S    
C7    C11   A    
C96   H23   S    
C54   C80   S    
C54   C59   A    
C50   H45   S    
Cr11  O48   S    
C48   H47   S    
C63   C67   A    
C3    C44   S    
C67   C85   S    
C28   H36   S    
C62   C66   A    
C39   H42   S    
C34   C39   A    
C18   H30   S    
C43   C100  S    
C92   H11   S    
C39   C40   A    
C55   C78   S    
C41   O27   A    
Cr9   O10   S    
C53   H51   S    
C47   C51   A    
C51   C55   A    
C6    C90   A    
C83   O3    A    
C91   H10   S    
C42   O28   A    
C85   O5    A    
C56   C77   S    
C88   O39   A    
C3    C92   S    
C21   H33   S    
C5    H21   S    
C9    C14   A    
C78   O42   A    
Cr12  O31   S    
C62   H4    S    
C37   C38   A    
C84   O4    A    
C77   O41   A    
Cr6   O38   S    
C82   O49   A    
C31   H39   S    
C9    H26   S    
C3    C97   S    
C85   O36   A    
Cr5   O37   S    
Cr12  O5    S    
C93   C100  S    
C74   O33   A    
C36   C40   A    
C35   O21   A    
C87   O7    A    
Cr8   O9    S    
C17   C21   A    
Cr3   O11   S    
C2    H19   S    
C65   H7    S    
C23   C90   A    
C40   H43   S    
C45   H44   S    
C32   C37   A    
C22   H35   S    
Cr1   O1    S    
C86   O37   A    
C66   C71   A    
Cr11  O26   S    
C77   O46   A    
C89   C99   S    
C28   C33   A    
C57   C94   S    
C46   C57   S    
C22   C27   A    
Cr4   O35   S    
C35   O17   A    
C37   H40   S    
Cr9   O46   S    
C93   C97   S    
Cr4   O8    S    
C83   O50   A    
C31   C34   A    
C19   C23   A    
C74   O23   A    
C82   O2    A    
C75   O34   A    
C42   O24   A    
Cr8   O44   S    
C19   H31   S    
C86   O6    A    
C44   O30   A    
C23   C72   S    
C46   H14   S    
C48   C70   A    
Cr1   O40   S    
Cr2   O32   S    
Cr5   O10   S    
Cr6   O42   S    
Cr7   O34   S    
C4    C26   A    
C1    O18   A    
C76   O40   A    
Cr5   O41   S    
C45   C67   A    
C75   O35   A    
Cr2   O10   S    
C32   C82   S    
C43   O29   A    
Cr10  O25   S    
C59   C63   A    
C33   C38   A    
C30   C36   A    
C60   C64   A    
Cr10  O47   S    
C79   C96   S    
C6    H22   S    
C13   O15   A    
C42   C99   S    
Cr12  O27   S    
C2    C25   A    
C89   H9    S    
C45   C50   A    
C73   O12   A    
C49   C53   A    
C24   O16   A    
C96   C100  S    
C92   C93   S    
C26   C74   S    
C41   O22   A    
C51   H49   S    
Cr11  O21   S    
C25   C73   S    
Cr12  O52   S    
C91   C98   S    
C64   C69   A    
C93   H13   S    
C11   C16   A    
C6    C10   A    
C29   H37   S    
C71   C88   S    
C90   H18   S    
C97   H34   S    
C61   C65   A    
C7    H24   S    
C80   O43   A    
C12   C13   S    
C43   O25   A    
C91   C95   S    
Cr2   O2    S    
C49   C71   A    
C73   O32   A    
Cr11  O13   S    
Cr4   O30   S    
C41   C98   S    
C8    H25   S    
C66   H8    S    
C1    C14   S    
Cr3   O29   S    
C38   H41   S    
C48   C52   A    
C33   C81   S    
C78   O47   A    
C56   C61   A    
C69   C86   S    
C52   C56   A    
C52   H50   S    
C47   H46   S    
C57   C99   S    
