data_mof_unit_38668.cif
_audit_creation_date              2013-03-05T16:03:26-0500
_audit_creation_method            fapswitch 2.2
_symmetry_space_group_name_H-M    P1
_symmetry_Int_Tables_number       1
_space_group_crystal_system       triclinic
_cell_length_a                    6.955372
_cell_length_b                    18.162873
_cell_length_c                    20.303202
_cell_angle_alpha                 68.615456
_cell_angle_beta                  90.736411
_cell_angle_gamma                 90.884476
_cell_volume                      2387.95552679

loop_
_atom_site_label
_atom_site_type_symbol
_atom_site_description
_atom_site_fract_x
_atom_site_fract_y
_atom_site_fract_z
_atom_type_partial_charge
O1    O     O_R   0.488960 0.443750 0.941980 -0.599682
O2    O     O_R   0.823890 0.406510 0.087590 -0.588893
O3    O     O_R   0.999680 0.556250 0.058020 -0.590592
C1    C     C_R   0.654113 0.381600 0.114286 0.981311
O4    O     O_R   0.818360 0.434410 0.944340 -0.591708
O5    O     O_R   0.994110 0.584350 0.913750 -0.596375
C2    C     C_R   0.649124 0.423524 0.921309 0.976433
O6    O     O_R   0.494530 0.415650 0.086250 -0.598657
O7    O     O_3   0.662590 0.549160 0.990130 -0.272457
V1    V     V_3+5 0.935320 0.490880 0.001830 1.158997
O8    O     O_R   0.324180 0.593490 0.912410 -0.594071
C3    C     C_R   0.154578 0.617897 0.885299 0.983337
O9    O     O_R   0.329720 0.565590 0.055660 -0.595182
C4    C     C_R   0.162947 0.576942 0.078384 0.978703
V2    V     V_3+5 0.435990 0.509120 0.998170 1.151581
O10   O     O_3   0.158850 0.450840 0.009870 -0.269808
C5    C     C_3   0.076211 0.705866 0.310787 0.370474
C6    C     C_3   0.259838 0.692585 0.275274 -0.047720
C7    C     C_1   0.158035 0.624288 0.122433 -0.267807
C8    C     C_1   0.109771 0.875848 0.377231 -0.253858
C9    C     C_3   0.959322 0.722860 0.241702 -0.108001
C10   C     C_3   0.145205 0.710837 0.205544 0.030471
C11   C     C_3   0.011849 0.812400 0.220028 -0.136602
C12   C     C_3   0.125773 0.794048 0.290161 -0.154734
C13   C     C_3   0.196590 0.799927 0.182914 -0.227144
C14   C     C_3   0.306734 0.781238 0.253524 0.329069
C15   C     C_1   0.153275 0.663918 0.159311 0.175402
C16   C     C_1   0.116530 0.839033 0.337999 0.206096
H1    H     H_    0.248208 0.838880 0.129967 0.231953
H2    H     H_    0.915768 0.863419 0.196147 0.236727
H3    H     H_    0.814847 0.698594 0.237040 0.172775
H4    H     H_    0.201963 0.527900 0.677364 0.132166
C17   C     C_R   0.117250 0.790278 0.875325 0.046358
C18   C     C_R   0.109185 0.871351 0.867493 0.269999
C19   C     C_R   0.094225 0.930252 0.800500 0.255398
C20   C     C_R   0.090966 0.909113 0.741600 -0.356505
C21   C     C_R   0.110396 0.830021 0.746277 0.041170
C22   C     C_R   0.123521 0.767392 0.813865 0.056745
C23   C     C_R   0.121050 0.814997 0.682995 -0.210942
C24   C     C_R   0.149296 0.737493 0.685069 0.063933
C25   C     C_R   0.149629 0.671439 0.750854 0.054257
C26   C     C_R   0.141428 0.686430 0.816220 -0.240147
C27   C     C_R   0.176341 0.725457 0.620782 -0.161356
C28   C     C_R   0.200888 0.650809 0.619415 -0.105199
C29   C     C_R   0.190062 0.585625 0.681234 -0.115887
C30   C     C_R   0.158426 0.593417 0.746616 0.220823
H5    H     H_    0.080275 0.957184 0.691018 0.186021
H6    H     H_    0.180494 0.773938 0.570230 0.106530
H7    H     H_    0.222990 0.643249 0.569559 0.173092
C31   C     C_R   0.517615 0.094339 0.258759 -0.248144
C32   C     C_R   0.492084 0.075078 0.199772 -0.223426
C33   C     C_R   0.524840 0.130685 0.133075 0.405012
C34   C     C_R   0.568783 0.210474 0.124375 0.073495
C35   C     C_R   0.594652 0.233009 0.185723 0.044711
C36   C     C_R   0.575593 0.171080 0.253699 0.078910
C37   C     C_R   0.639337 0.312704 0.183176 -0.218074
C38   C     C_R   0.673421 0.326203 0.248321 0.041235
C39   C     C_R   0.681768 0.259937 0.313212 0.040783
C40   C     C_R   0.621086 0.184298 0.316427 -0.200536
C41   C     C_R   0.699111 0.403458 0.252471 0.021484
C42   C     C_R   0.778346 0.410775 0.314659 0.262100
C43   C     C_R   0.807559 0.343372 0.375402 0.264172
C44   C     C_R   0.748388 0.270101 0.375279 -0.346627
H8    H     H_    0.496644 0.046464 0.308933 0.158829
H9    H     H_    0.453798 0.014787 0.206383 0.211930
H10   H     H_    0.763385 0.220206 0.424406 0.176490
O11   O     O_R   0.770540 0.084530 0.414050 -0.593724
O12   O     O_R   0.445710 0.065660 0.555720 -0.589582
O13   O     O_R   0.270420 0.915650 0.586190 -0.591403
C45   C     C_R   0.615435 0.080360 0.575859 0.972855
O14   O     O_R   0.441140 0.093540 0.412470 -0.591855
O15   O     O_R   0.265820 0.943740 0.441930 -0.594155
C46   C     C_R   0.610297 0.117224 0.385910 0.927752
O16   O     O_R   0.775150 0.056440 0.558310 -0.579260
O17   O     O_3   0.602370 0.950960 0.510050 -0.270306
V3    V     V_3+5 0.329450 0.009140 0.498150 1.199629
O18   O     O_R   0.935790 0.934280 0.444060 -0.578892
C47   C     C_R   0.103332 0.920558 0.423488 0.957661
O19   O     O_R   0.940370 0.906390 0.587310 -0.588979
C48   C     C_R   0.109703 0.882264 0.613636 0.928297
V4    V     V_3+5 0.828810 0.990710 0.501460 1.208800
O20   O     O_3   0.105780 0.049100 0.489960 -0.266624
C49   C     C_3   0.670992 0.329901 0.709706 0.247281
C50   C     C_3   0.499167 0.282317 0.695979 -0.243585
H11   H     H_    0.393783 0.306606 0.652219 0.179887
H12   H     H_    0.317287 0.241096 0.802287 0.168977
C51   C     C_1   0.626290 0.127427 0.620209 -0.192014
C52   C     C_1   0.638578 0.378469 0.875339 -0.280224
C53   C     C_3   0.806113 0.261131 0.717157 0.266201
C54   C     C_3   0.635718 0.213203 0.704262 0.088474
C55   C     C_3   0.769568 0.226036 0.797720 -0.180606
C56   C     C_3   0.632591 0.295000 0.789529 0.083140
C57   C     C_3   0.596825 0.177582 0.784561 -0.050873
C58   C     C_3   0.460081 0.247149 0.776922 -0.172300
C59   C     C_1   0.632270 0.166437 0.657729 0.160413
C60   C     C_1   0.633865 0.340776 0.836778 0.053300
H13   H     H_    0.566409 0.114229 0.815488 0.202553
H14   H     H_    0.881514 0.202904 0.839400 0.185749
C61   C     C_3   0.402542 0.625804 0.305241 -0.612561
H15   H     H_    0.469163 0.628374 0.354309 0.288826
H16   H     H_    0.327667 0.568041 0.317198 0.268814
H17   H     H_    0.515997 0.631806 0.265768 0.203078
N1    N     N_R   0.084803 0.012656 0.791159 0.253133
O21   O     O_R   0.186273 0.040837 0.831072 -0.349814
O22   O     O_R   0.989927 0.061533 0.737913 -0.440115
C62   C     C_3   0.119072 0.516238 0.806730 -0.956266
H18   H     H_    0.113612 0.464835 0.789372 0.228242
H19   H     H_    0.234144 0.502943 0.847136 0.265211
H20   H     H_    0.975370 0.518296 0.828513 0.259230
N2    N     N_R   0.894533 0.348623 0.438274 0.265130
O23   O     O_R   0.039695 0.396293 0.433646 -0.312830
O24   O     O_R   0.844391 0.299148 0.500354 -0.423729
N3    N     N_R   0.516441 0.104177 0.074502 0.240001
O25   O     O_R   0.372820 0.060139 0.068643 -0.325517
O26   O     O_R   0.669378 0.109216 0.036754 -0.344483
C63   C     C_3   0.580445 0.268641 0.049722 -0.910675
H21   H     H_    0.554865 0.243243 0.008486 0.268258
H22   H     H_    0.463552 0.311630 0.040828 0.253204
H23   H     H_    0.726192 0.295544 0.040207 0.241481
N4    N     N_R   0.006472 0.655671 0.380350 0.264268
O27   O     O_R   0.103199 0.594229 0.419362 -0.329341
O28   O     O_R   0.847139 0.672751 0.404072 -0.338458
C64   C     C_3   0.611061 0.476950 0.198531 -0.791096
H24   H     H_    0.465418 0.462702 0.183548 0.228899
H25   H     H_    0.585659 0.523852 0.220119 0.238757
H26   H     H_    0.705585 0.502803 0.152045 0.254966
N5    N     N_R   0.821423 0.487271 0.317087 0.251355
O29   O     O_R   0.753849 0.507385 0.367514 -0.326687
O30   O     O_R   0.929898 0.536775 0.269056 -0.440702
C65   C     C_3   0.712134 0.416761 0.667154 -0.885898
H27   H     H_    0.735068 0.425077 0.610884 0.289089
H28   H     H_    0.588398 0.452847 0.670941 0.241819
H29   H     H_    0.843098 0.436302 0.688352 0.236818
C66   C     C_3   0.002689 0.271552 0.683385 -0.896564
H30   H     H_    0.087761 0.314126 0.699863 0.222990
H31   H     H_    0.077433 0.214064 0.700684 0.288683
H32   H     H_    0.987459 0.295268 0.624990 0.297949
N6    N     N_R   0.493677 0.815313 0.259343 0.231711
O31   O     O_R   0.564170 0.872003 0.204979 -0.412635
O32   O     O_R   0.577890 0.796795 0.320693 -0.381348
C67   C     C_3   0.112683 0.731202 0.949745 -0.875753
H33   H     H_    0.985425 0.692151 0.956129 0.247212
H34   H     H_    0.251407 0.700059 0.961433 0.239349
H35   H     H_    0.094682 0.756555 0.991161 0.259959
N7    N     N_R   0.110565 0.894221 0.928130 0.258407
O33   O     O_R   0.959661 0.926472 0.943045 -0.309411
O34   O     O_R   0.266975 0.887684 0.965610 -0.338385

loop_
_geom_bond_atom_site_label_1
_geom_bond_atom_site_label_2
_geom_bond_distance
_ccdc_geom_bond_type
C28   H7    1.083106 S    
C52   C60   1.213378 T    
C25   C26   1.450746 A    
C57   C58   1.554214 S    
C36   C40   1.410681 A    
C31   H8    1.081237 S    
H4    C29   1.084068 S    
C65   H28   1.109972 S    
C19   C20   1.382712 A    
C6    C14   1.537217 S    
O15   V3    1.967056 S    
C66   H32   1.108240 S    
V4    O20   2.158304 S    
C64   H24   1.107727 S    
C33   N3    1.436769 S    
C33   C34   1.423318 A    
C49   C56   1.535067 S    
C9    H3    1.107831 S    
C21   C22   1.430742 A    
C14   N6    1.453348 S    
O13   V3    2.007723 S    
C49   C50   1.545341 S    
C20   C21   1.413178 A    
C12   C14   1.533291 S    
C22   C26   1.460954 A    
C19   N1    1.440865 S    
C67   H34   1.104686 S    
O5    C3    1.299825 A    
O14   V3    2.008193 S    
C18   N7    1.435554 S    
C64   H25   1.108128 S    
C62   H18   1.111657 S    
V2    O10   2.158243 S    
C56   C60   1.480812 S    
C63   H21   1.104832 S    
C20   H5    1.081048 S    
C18   C19   1.394281 A    
C32   H9    1.082952 S    
N2    O23   1.301533 A    
O15   C47   1.297756 A    
H12   C58   1.110053 S    
C5    N4    1.458132 S    
O8    V2    2.010226 S    
C24   C27   1.415085 A    
C2    C52   1.448955 S    
C10   C13   1.549631 S    
C51   C59   1.214878 T    
C45   O16   1.299114 A    
C3    C26   1.500655 S    
C11   C12   1.549059 S    
O11   C46   1.295343 A    
C53   C55   1.546531 S    
C7    C15   1.214166 T    
C27   H6    1.081911 S    
C40   C46   1.492161 S    
C34   C63   1.500938 S    
C1    O6    1.298746 A    
C44   H10   1.080776 S    
O1    C2    1.299689 A    
O9    C4    1.300546 A    
C1    C37   1.502037 S    
C50   C54   1.544318 S    
C45   C51   1.450845 S    
N7    O34   1.301340 A    
N4    O28   1.299870 A    
C5    C6    1.539250 S    
C13   H1    1.110188 S    
C49   C53   1.536587 S    
C35   C37   1.458214 A    
C5    C12   1.535245 S    
C32   C33   1.381737 A    
C11   H2    1.106130 S    
C54   C59   1.482788 S    
C50   H11   1.108464 S    
C49   C65   1.521726 S    
C42   N5    1.435025 S    
C67   H35   1.105275 S    
V3    O20   1.707293 S    
C55   C56   1.544392 S    
O19   V4    2.010211 S    
O17   V4    1.706558 S    
C38   C41   1.444303 A    
C66   H31   1.108374 S    
C8    C16   1.214135 T    
C17   C67   1.501066 S    
C13   C14   1.543456 S    
O18   C47   1.300747 A    
C5    C9    1.544787 S    
C41   C42   1.420495 A    
C41   C64   1.515958 S    
O2    C1    1.309216 A    
O17   V3    2.154615 S    
N5    O30   1.298932 A    
C43   C44   1.387791 A    
C55   C57   1.555657 S    
C61   H15   1.109387 S    
C43   N2    1.439328 S    
O18   V4    1.969570 S    
C25   C30   1.452951 A    
C31   C36   1.412523 A    
C56   C58   1.543598 S    
C17   C18   1.424180 A    
N1    O22   1.300825 A    
C50   C58   1.556690 S    
O3    C4    1.299933 A    
N6    O32   1.299829 A    
O1    V2    1.964443 S    
C24   C25   1.433446 A    
C61   H16   1.109728 S    
O11   V4    2.003756 S    
O6    V2    2.008628 S    
C10   C15   1.482138 S    
C9    C11   1.560729 S    
C27   C28   1.379456 A    
C65   H29   1.110086 S    
C6    C61   1.519882 S    
O16   V4    1.981553 S    
N5    O29   1.301173 A    
O2    V1    2.008219 S    
C57   H13   1.109977 S    
N7    O33   1.301144 A    
C23   C24   1.409640 A    
N4    O27   1.300109 A    
C54   C57   1.544812 S    
O4    C2    1.299774 A    
N3    O25   1.301344 A    
O7    V1    2.154607 S    
C39   C44   1.410244 A    
C37   C38   1.446507 A    
C35   C36   1.433712 A    
C53   C66   1.515525 S    
C6    C10   1.544930 S    
C4    C7    1.450174 S    
C28   C29   1.377935 A    
C12   C16   1.482229 S    
C64   H26   1.107584 S    
O5    V1    2.007672 S    
O8    C3    1.308652 A    
C34   C35   1.454329 A    
C66   H30   1.108797 S    
O12   V3    1.974605 S    
C17   C22   1.453281 A    
C63   H23   1.106625 S    
C8    C47   1.449772 S    
C23   C48   1.492462 S    
O9    V2    1.969611 S    
C65   H27   1.109771 S    
C39   C40   1.409694 A    
O4    V1    1.974605 S    
C21   C23   1.410478 A    
O3    V1    1.967191 S    
V1    O10   1.707202 S    
C67   H33   1.104474 S    
C38   C39   1.425324 A    
C62   H19   1.102963 S    
C30   C62   1.509513 S    
C63   H22   1.102868 S    
C11   C13   1.558381 S    
C55   H14   1.110304 S    
O7    V2    1.710039 S    
C42   C43   1.400418 A    
N2    O24   1.301330 A    
N6    O31   1.299380 A    
O19   C48   1.301465 A    
C29   C30   1.405729 A    
C61   H17   1.107592 S    
O12   C45   1.299815 A    
O14   C46   1.300621 A    
N1    O21   1.301312 A    
C31   C32   1.373461 A    
O13   C48   1.294784 A    
C53   C54   1.535353 S    
C9    C10   1.551830 S    
N3    O26   1.301574 A    
C62   H20   1.104795 S    
