data_mof_unit_53794.cif
_audit_creation_date              2013-03-05T15:52:56-0500
_audit_creation_method            fapswitch 2.2
_symmetry_space_group_name_H-M    P1
_symmetry_Int_Tables_number       1
_space_group_crystal_system       triclinic
_cell_length_a                    10.751919
_cell_length_b                    10.779144
_cell_length_c                    17.049636
_cell_angle_alpha                 99.926441
_cell_angle_beta                  99.320669
_cell_angle_gamma                 61.013202
_cell_volume                      1695.52122954

loop_
_atom_site_label
_atom_site_type_symbol
_atom_site_description
_atom_site_fract_x
_atom_site_fract_y
_atom_site_fract_z
_atom_type_partial_charge
O1    O     O_R   0.749810 0.499790 0.438040 -0.450585
O2    O     O_R   0.477660 0.726260 0.439290 -0.514131
C1    C     C_R   0.353613 0.779324 0.402693 0.541030
O3    O     O_R   0.260150 0.743000 0.412270 -0.515849
O4    O     O_R   0.297740 0.466550 0.394720 -0.419923
C2    C     C_R   0.370752 0.346430 0.357484 0.596128
O5    O     O_R   0.488080 0.253500 0.386430 -0.537185
O6    O     O_R   0.722670 0.303800 0.421940 -0.531642
C3    C     C_R   0.778581 0.372896 0.404140 0.585039
O7    O     O_R   0.751130 0.502220 0.613520 -0.508376
O8    O     O_R   0.478890 0.728510 0.601960 -0.506089
C4    C     C_R   0.380611 0.715257 0.631123 0.546569
O9    O     O_R   0.261470 0.745430 0.587750 -0.496772
O10   O     O_R   0.298970 0.468800 0.557390 -0.487133
C5    C     C_R   0.365390 0.345000 0.581733 0.559884
O11   O     O_R   0.489400 0.255930 0.561910 -0.518930
O12   O     O_R   0.723890 0.306050 0.584610 -0.492324
C6    C     C_R   0.772174 0.381466 0.629922 0.552802
Cr1   Cr    Cr6+3 0.608100 0.610860 0.522250 1.048269
Cr2   Cr    Cr6+3 0.288890 0.599990 0.488420 1.116523
Cr3   Cr    Cr6+3 0.603040 0.289190 0.489390 1.036602
O13   O     O_3   0.500010 0.500010 0.500020 -0.295331
C7    C     C_1   0.344205 0.335728 0.274150 -0.004024
C8    C     C_1   0.331271 0.326854 0.203323 -0.026164
C9    C     C_R   0.860873 0.324121 0.169850 -0.037897
C10   C     C_R   0.802441 0.243471 0.189655 -0.009564
C11   C     C_R   0.809172 0.227552 0.270657 -0.028351
C12   C     C_R   0.924165 0.378821 0.310030 0.171275
C13   C     C_R   0.925890 0.386269 0.229940 -0.137006
C14   C     C_R   0.742798 0.173595 0.130354 -0.081533
C15   C     C_R   0.704337 0.078397 0.150003 -0.091584
C16   C     C_R   0.714181 0.059652 0.229184 -0.097363
C17   C     C_R   0.772377 0.126768 0.288623 -0.070081
C18   C     C_R   0.850266 0.314649 0.330379 -0.010145
H1    H     H_    0.725180 0.191486 0.068506 0.163956
H2    H     H_    0.985034 0.434824 0.214367 0.177559
H3    H     H_    0.666257 0.019379 0.103734 0.157083
H4    H     H_    0.674224 0.994916 0.244803 0.139817
H5    H     H_    0.792293 0.093484 0.347533 0.168975
H6    H     H_    0.106645 0.923792 0.315395 0.144716
C19   C     C_R   0.316625 0.862417 0.169588 0.010448
C20   C     C_R   0.449735 0.821218 0.214829 0.011751
C21   C     C_R   0.453411 0.833969 0.298745 0.002074
C22   C     C_R   0.201923 0.899337 0.288920 -0.137020
C23   C     C_R   0.193264 0.905474 0.208446 -0.128782
C24   C     C_R   0.578669 0.767835 0.179755 -0.138026
C25   C     C_R   0.704491 0.745955 0.227529 -0.147042
C26   C     C_R   0.701184 0.786745 0.310218 0.053563
C27   C     C_R   0.576247 0.828320 0.345366 -0.081548
C28   C     C_R   0.333401 0.852595 0.333499 0.000617
H7    H     H_    0.583200 0.743222 0.115706 0.139152
H8    H     H_    0.087651 0.944547 0.176812 0.167582
H9    H     H_    0.801232 0.709241 0.199034 0.165109
H10   H     H_    0.572678 0.863870 0.408728 0.157169
H11   H     H_    0.139230 0.529921 0.667741 0.158400
C29   C     C_R   0.332839 0.324639 0.817361 0.035924
C30   C     C_R   0.446772 0.216443 0.773444 0.016383
C31   C     C_R   0.419470 0.197947 0.690346 0.000356
C32   C     C_R   0.218065 0.436241 0.695845 -0.144924
C33   C     C_R   0.219058 0.434745 0.777401 -0.153674
C34   C     C_R   0.582917 0.120618 0.808521 0.087942
C35   C     C_R   0.666269 0.989636 0.764904 -0.124985
C36   C     C_R   0.621311 0.959058 0.686092 -0.123766
C37   C     C_R   0.501047 0.064118 0.647951 -0.070023
C38   C     C_R   0.321486 0.319321 0.651862 0.007656
H12   H     H_    0.131408 0.519198 0.809132 0.145540
H13   H     H_    0.767981 0.912578 0.790998 0.147472
H14   H     H_    0.685102 0.857604 0.652899 0.146710
H15   H     H_    0.473710 0.042357 0.584908 0.141449
C39   C     C_1   0.816833 0.342568 0.709091 -0.029498
C40   C     C_1   0.844606 0.313430 0.776639 -0.020382
C41   C     C_1   0.358023 0.764798 0.713451 -0.032360
C42   C     C_1   0.325878 0.811662 0.780632 -0.029822
O14   O     O_R   0.171100 0.914680 0.053100 -0.511675
O15   O     O_R   0.941680 0.184840 0.050710 -0.488945
C43   C     C_R   0.897259 0.308619 0.089544 0.517954
O16   O     O_R   0.922080 0.403420 0.072610 -0.527033
O17   O     O_R   0.196880 0.369150 0.083850 -0.494893
C44   C     C_R   0.318739 0.299939 0.119976 0.554063
O18   O     O_R   0.411730 0.181020 0.091530 -0.528870
O19   O     O_R   0.365010 0.944360 0.063320 -0.511513
C45   C     C_R   0.291218 0.895828 0.087291 0.534163
O20   O     O_R   0.159380 0.906670 0.876210 -0.495960
O21   O     O_R   0.930820 0.177420 0.886730 -0.463185
C46   C     C_R   0.886949 0.296833 0.858953 0.568240
O22   O     O_R   0.910360 0.395420 0.895720 -0.516172
O23   O     O_R   0.186010 0.361730 0.919870 -0.505737
C47   C     C_R   0.308808 0.292243 0.892211 0.570564
O24   O     O_R   0.400000 0.173010 0.914630 -0.506486
O25   O     O_R   0.354140 0.936940 0.899340 -0.497561
C48   C     C_R   0.281004 0.881013 0.857840 0.550571
Cr4   Cr    Cr6+3 0.053960 0.052250 0.967380 1.076370
Cr5   Cr    Cr6+3 0.059890 0.373160 0.992710 1.032973
Cr6   Cr    Cr6+3 0.373370 0.061690 0.991710 1.027806
O26   O     O_3   0.162410 0.162370 0.983930 -0.265046
N1    N     N_R   0.001024 0.432552 0.370291 0.081253
O27   O     O_R   0.049727 0.379227 0.438420 -0.342571
O28   O     O_R   0.040487 0.519865 0.352955 -0.319651
C49   C     C_2   0.822430 0.799702 0.358545 0.597470
O29   O     O_2   0.826768 0.818315 0.431628 -0.515978
O30   O     O_R   0.931672 0.792743 0.320490 -0.703555
H16   H     H_    0.007538 0.803224 0.360255 0.358621
C50   C     C_2   0.646385 0.163380 0.885364 0.585002
O31   O     O_2   0.745149 0.072827 0.923552 -0.538694
O32   O     O_R   0.595381 0.308246 0.912718 -0.718073
H17   H     H_    0.650672 0.325820 0.963514 0.324859

loop_
_geom_bond_atom_site_label_1
_geom_bond_atom_site_label_2
_geom_bond_distance
_ccdc_geom_bond_type
C6    C39   1.420708 S    
O23   C47   1.283765 A    
O11   Cr3   2.053530 S    
H11   C32   1.083246 S    
C19   C20   1.408899 A    
O19   C45   1.284999 A    
C30   C31   1.399220 A    
O4    Cr2   1.937649 S    
C46   O22   1.250640 A    
C11   C17   1.414577 A    
O20   Cr4   2.041877 S    
C13   H2    1.083504 S    
O8    Cr1   1.922248 S    
C10   C11   1.406883 A    
O30   H16   1.010726 S    
C35   H13   1.083149 S    
C12   C13   1.385230 A    
C34   C50   1.483799 S    
C14   C15   1.382356 A    
C29   C47   1.471469 S    
C2    C7    1.399108 S    
O17   Cr5   1.950901 S    
C5    O11   1.267749 A    
C5    C38   1.467192 S    
C29   C30   1.425751 A    
C20   C24   1.409700 A    
O14   Cr4   2.064457 S    
O24   Cr6   2.060937 S    
C31   C38   1.410054 A    
C40   C46   1.417583 S    
C15   C16   1.378986 A    
O6    C3    1.256650 A    
N1    O28   1.294893 A    
C7    C8    1.185493 T    
C39   C40   1.198555 T    
C16   H4    1.064930 S    
C25   H9    1.083056 S    
C4    C41   1.428527 S    
C33   H12   1.083227 S    
C32   C33   1.391615 A    
Cr5   O26   1.977063 S    
Cr3   O13   1.976675 S    
C9    C13   1.404402 A    
Cr6   O26   1.976504 S    
O14   C45   1.261619 A    
C1    C28   1.461044 S    
O25   Cr6   1.940379 S    
C11   C18   1.428347 A    
C31   C37   1.411489 A    
O1    Cr1   2.040644 S    
C25   C26   1.403400 A    
O10   Cr2   1.943637 S    
Cr1   O13   1.992259 S    
O1    C3    1.294570 A    
C43   O16   1.260864 A    
C42   C48   1.428740 S    
O17   C44   1.265804 A    
C21   C27   1.406603 A    
C23   H8    1.083575 S    
C9    C10   1.401333 A    
O5    Cr3   2.069432 S    
C24   H7    1.081709 S    
Cr4   O26   1.991904 S    
O12   Cr3   1.949585 S    
C44   O18   1.256411 A    
O15   C43   1.275504 A    
C35   C36   1.392554 A    
O22   Cr5   2.068490 S    
C8    C44   1.398361 S    
C49   O29   1.224374 D    
O7    Cr1   2.065306 S    
N1    O27   1.302036 A    
O12   C6    1.260868 A    
C50   O32   1.399436 S    
C17   H5    1.078662 S    
C37   H15   1.083649 S    
O21   C46   1.285662 A    
O15   Cr4   1.924004 S    
C14   H1    1.074714 S    
C26   C27   1.396124 A    
C49   O30   1.396735 S    
Cr2   O13   1.977436 S    
C10   C14   1.412924 A    
C3    C18   1.463746 S    
C20   C21   1.409466 A    
O18   Cr6   2.062314 S    
C1    O3    1.283098 A    
C22   C23   1.370964 A    
C22   C28   1.386933 A    
C26   C49   1.478756 S    
C24   C25   1.396160 A    
O9    Cr2   2.052108 S    
O2    Cr1   1.946297 S    
C41   C42   1.202562 T    
O6    Cr3   1.933816 S    
O8    C4    1.313472 A    
C21   C28   1.418426 A    
C30   C34   1.425240 A    
C2    O5    1.257927 A    
O20   C48   1.279427 A    
O32   H17   1.012500 S    
C36   H14   1.082596 S    
C12   N1    1.434465 S    
C9    C43   1.444629 S    
C16   C17   1.386535 A    
O2    C1    1.268641 A    
C32   C38   1.404696 A    
O19   Cr6   1.943281 S    
O25   C48   1.270661 A    
O4    C2    1.260431 A    
O7    C6    1.281863 A    
C19   C45   1.458704 S    
O23   Cr5   1.930576 S    
O16   Cr5   2.046918 S    
C34   C35   1.406094 A    
C12   C18   1.390994 A    
C36   C37   1.392710 A    
O3    Cr2   2.062964 S    
C15   H3    1.081422 S    
H6    C22   1.081525 S    
C29   C33   1.403907 A    
C47   O24   1.259318 A    
C50   O31   1.222641 D    
C19   C23   1.412650 A    
O10   C5    1.278405 A    
O21   Cr4   1.944911 S    
C4    O9    1.290682 A    
C27   H10   1.082499 S    
