data_mof_unit_19498.cif
_audit_creation_date              2012-12-11T15:55:43-0500
_audit_creation_method            fapswitch 2.2
_symmetry_space_group_name_H-M    P1
_symmetry_Int_Tables_number       1
_space_group_crystal_system       triclinic
_cell_length_a                    11.042028
_cell_length_b                    11.08503
_cell_length_c                    18.760543
_cell_angle_alpha                 90.344746
_cell_angle_beta                  90.884437
_cell_angle_gamma                 59.131687
_cell_volume                      1970.79797123

loop_
_atom_site_label
_atom_site_type_symbol
_atom_type_description
_atom_site_fract_x
_atom_site_fract_y
_atom_site_fract_z
_atom_type_partial_charge
C1    C     C_R   0.386719 0.710531 0.389530 0.543053
C2    C     C_R   0.617584 0.144812 0.161534 0.047983
C3    C     C_R   0.357099 0.338356 0.161107 -0.009098
C4    C     C_R   0.489194 0.262536 0.271175 -0.164172
C5    C     C_R   0.487422 0.254950 0.197381 -0.037926
C6    C     C_R   0.090934 0.687544 0.324999 -0.045496
C7    C     C_R   0.973836 0.787645 0.362357 -0.100502
C8    C     C_R   0.664896 0.176125 0.099036 -0.062761
C9    C     C_R   0.774842 0.068450 0.060281 -0.082099
C10   C     C_R   0.238545 0.440090 0.198770 -0.154171
C11   C     C_R   0.239720 0.446185 0.272805 -0.045782
C12   C     C_R   0.386568 0.356531 0.386842 0.537868
C13   C     C_R   0.860945 0.768924 0.372271 -0.130826
C14   C     C_R   0.868685 0.647429 0.347131 -0.103136
C15   C     C_R   0.993586 0.538183 0.317500 -0.097657
C16   C     C_R   0.108479 0.556451 0.307772 0.031260
C17   C     C_R   0.366265 0.350490 0.309935 -0.003096
C18   C     C_R   0.869391 0.329162 0.183933 0.026912
C19   C     C_R   0.951992 0.220079 0.232076 0.004282
C20   C     C_R   0.923208 0.235729 0.303935 -0.019055
C21   C     C_R   0.732449 0.471451 0.280839 -0.164454
C22   C     C_R   0.763309 0.458034 0.209009 -0.164565
C23   C     C_R   0.772901 0.381204 0.402235 0.534580
C24   C     C_3   0.981323 0.072733 0.232760 -0.251737
C25   C     C_3   0.948147 0.091701 0.311234 -0.291262
C26   C     C_R   0.811357 0.360205 0.328678 0.022601
C27   C     C_R   0.371311 0.824273 0.171106 0.013971
C28   C     C_R   0.403798 0.891776 0.224610 0.008016
C29   C     C_R   0.411472 0.854138 0.295312 0.018712
C30   C     C_R   0.390562 0.657947 0.260046 -0.199711
C31   C     C_R   0.375768 0.699309 0.188450 -0.162171
C32   C     C_3   0.337351 0.043471 0.242741 -0.268925
C33   C     C_3   0.347025 0.001992 0.320593 -0.269432
C34   C     C_R   0.341723 0.772802 0.602940 0.538346
C35   C     C_R   0.386984 0.747230 0.314750 -0.010371
C36   C     C_R   0.306870 0.333191 0.815560 -0.012708
C37   C     C_R   0.440181 0.283639 0.787498 -0.007223
C38   C     C_R   0.455925 0.282838 0.715471 -0.001638
C39   C     C_R   0.203958 0.396429 0.695276 0.095305
C40   C     C_R   0.187223 0.398001 0.769668 -0.149839
C41   C     C_3   0.576218 0.145923 0.796450 -0.266224
C42   C     C_3   0.589331 0.143357 0.716395 -0.259603
C43   C     C_R   0.341528 0.333061 0.668335 0.038599
C44   C     C_R   0.830210 0.320914 0.833070 0.014490
C45   C     C_R   0.371551 0.350258 0.596003 0.553836
C46   C     C_R   0.778638 0.450460 0.800896 0.024499
C47   C     C_R   0.767837 0.463482 0.728544 0.017347
C48   C     C_R   0.872479 0.213659 0.714817 -0.179637
C49   C     C_R   0.883516 0.200149 0.789366 -0.160878
C50   C     C_3   0.642074 0.583178 0.812548 -0.282501
C51   C     C_3   0.630270 0.598194 0.732325 -0.237894
C52   C     C_R   0.807439 0.347989 0.684306 0.014403
C53   C     C_R   0.280969 0.882770 0.818807 0.019325
C54   C     C_R   0.191068 0.849684 0.783389 0.003342
C55   C     C_R   0.200922 0.829368 0.711028 0.016734
C56   C     C_R   0.762375 0.377551 0.610522 0.528012
C57   C     C_R   0.370544 0.903880 0.703937 -0.178447
C58   C     C_R   0.361306 0.923215 0.777830 -0.151754
C59   C     C_3   0.166101 0.732044 0.796854 -0.282735
C60   C     C_3   0.178012 0.707882 0.717158 -0.239370
C61   C     C_R   0.300356 0.842960 0.671344 0.009491
C62   C     C_R   0.913415 0.314224 0.111732 0.540188
C63   C     C_R   0.329292 0.295823 0.091609 0.536633
C64   C     C_R   0.310838 0.895704 0.103983 0.540273
C65   C     C_R   0.882353 0.308904 0.905169 0.538397
C66   C     C_R   0.294607 0.289649 0.885841 0.549444
C67   C     C_R   0.842817 0.929899 0.085002 -0.109213
C68   C     C_R   0.268365 0.906493 0.894973 0.544786
C69   C     C_R   0.800185 0.898209 0.148364 -0.124782
C70   C     C_R   0.688182 0.004775 0.186484 -0.104352
Cr1   Cr    Cr6+3 0.601740 0.606840 0.505840 0.992389
Cr2   Cr    Cr6+3 0.291500 0.601560 0.495070 1.022190
Cr3   Cr    Cr6+3 0.606780 0.291630 0.499130 0.992010
Cr4   Cr    Cr6+3 0.062440 0.063060 0.008240 0.982043
Cr5   Cr    Cr6+3 0.062950 0.375000 0.998920 1.004041
Cr6   Cr    Cr6+3 0.374550 0.061770 0.992470 1.014482
H1    H     H_    0.589270 0.197050 0.298454 0.140893
H2    H     H_    0.766375 0.849691 0.397813 0.109961
H3    H     H_    0.775590 0.642428 0.351019 0.158862
H4    H     H_    0.000362 0.441992 0.300241 0.126631
H5    H     H_    0.648028 0.569711 0.299620 0.133608
H6    H     H_    0.703171 0.546222 0.173281 0.134026
H7    H     H_    0.093183 0.993542 0.222467 0.161293
H8    H     H_    0.904280 0.060342 0.200291 0.173042
H9    H     H_    0.850013 0.091994 0.324015 0.144140
H10   H     H_    0.041333 0.025554 0.345929 0.140680
H11   H     H_    0.397127 0.560736 0.273118 0.128823
H12   H     H_    0.806916 0.092321 0.010795 0.136328
H13   H     H_    0.359885 0.638817 0.147773 0.124669
H14   H     H_    0.228483 0.108787 0.221465 0.144172
H15   H     H_    0.407677 0.082369 0.229629 0.157521
H16   H     H_    0.423155 0.018902 0.352117 0.145779
H17   H     H_    0.242853 0.042425 0.345633 0.143058
H18   H     H_    0.082655 0.437232 0.790690 0.139581
H19   H     H_    0.565478 0.057687 0.815803 0.151417
H20   H     H_    0.657818 0.158479 0.825130 0.137684
H21   H     H_    0.680174 0.149610 0.697844 0.162735
H22   H     H_    0.969457 0.880190 0.383185 0.115826
H23   H     H_    0.576743 0.059920 0.690364 0.129080
H24   H     H_    0.909458 0.121220 0.681728 0.122259
H25   H     H_    0.935496 0.096066 0.812631 0.146373
H26   H     H_    0.656449 0.664793 0.839338 0.143066
H27   H     H_    0.560718 0.565341 0.836165 0.129796
H28   H     H_    0.542041 0.588726 0.709534 0.150062
H29   H     H_    0.639988 0.686937 0.712401 0.145133
H30   H     H_    0.442116 0.923256 0.674131 0.115635
H31   H     H_    0.422211 0.963252 0.802943 0.142160
H32   H     H_    0.058235 0.769810 0.816898 0.138010
H33   H     H_    0.928631 0.847201 0.055110 0.108619
H34   H     H_    0.253283 0.644605 0.827909 0.135966
H35   H     H_    0.273306 0.607173 0.702220 0.154597
H36   H     H_    0.077711 0.729344 0.691138 0.154550
H37   H     H_    0.853217 0.790955 0.167731 0.121503
H38   H     H_    0.655230 0.976985 0.234627 0.104000
H39   H     H_    0.166178 0.713894 0.309615 0.135918
H40   H     H_    0.612767 0.282811 0.078858 0.093775
H41   H     H_    0.139918 0.509155 0.170945 0.144002
O1    O     O_R   0.748670 0.497520 0.427970 -0.546037
O2    O     O_R   0.300170 0.471020 0.567120 -0.477880
O3    O     O_R   0.491630 0.259030 0.574940 -0.528845
O4    O     O_R   0.718640 0.304340 0.577850 -0.503768
O5    O     O_3   0.500010 0.500010 0.500020 -0.271066
O6    O     O_R   0.186620 0.923750 0.087000 -0.525000
O7    O     O_R   0.957350 0.194160 0.084660 -0.508676
O8    O     O_R   0.935120 0.407280 0.085350 -0.522752
O9    O     O_R   0.203800 0.365060 0.067090 -0.511865
O10   O     O_R   0.417470 0.174910 0.067830 -0.501487
O11   O     O_R   0.375160 0.946380 0.070880 -0.490578
O12   O     O_R   0.476470 0.723930 0.429450 -0.500338
O13   O     O_R   0.160500 0.919670 0.926690 -0.523787
O14   O     O_R   0.933140 0.190380 0.936050 -0.529994
O15   O     O_R   0.909010 0.403210 0.925030 -0.514257
O16   O     O_R   0.179590 0.361290 0.918480 -0.508121
O17   O     O_R   0.391360 0.170840 0.907510 -0.532728
O18   O     O_R   0.350950 0.942600 0.922260 -0.517473
O19   O     O_3   0.166650 0.166610 0.999880 -0.248535
O20   O     O_R   0.264730 0.744140 0.416740 -0.533916
O21   O     O_R   0.309440 0.472410 0.418220 -0.502676
O22   O     O_R   0.501630 0.260530 0.414310 -0.536056
O23   O     O_R   0.727920 0.305730 0.428950 -0.506377
O24   O     O_R   0.738670 0.496020 0.588600 -0.525090
O25   O     O_R   0.467190 0.722540 0.578350 -0.504193
O26   O     O_R   0.254720 0.742640 0.577370 -0.514031
N1    N     N_2   0.084360 0.452791 0.648407 -0.508882
H42   H     H_    0.989051 0.516605 0.672776 0.250519
C71   C     C_3   0.080370 0.352208 0.600110 -0.270080
H43   H     H_    0.068442 0.273447 0.630515 0.137419
H44   H     H_    0.177180 0.295863 0.568063 0.141516
H45   H     H_    0.991450 0.408175 0.561740 0.177163

loop_
_geom_bond_atom_site_label_1
_geom_bond_atom_site_label_2
_ccdc_geom_bond_type
C44   C49   A    
Cr2   O26   S    
Cr4   O7    S    
C21   C26   A    
C7    H22   S    
C41   C42   S    
C54   C55   A    
Cr1   O5    S    
C19   C20   A    
C23   O1    A    
C62   O7    A    
Cr6   O19   S    
C53   C54   A    
C70   H38   S    
C69   H37   S    
C30   C35   A    
C22   H6    S    
C21   C22   A    
C36   C37   A    
C24   H7    S    
C38   C42   S    
C1    O12   A    
C9    H12   S    
C49   H25   S    
C30   C31   A    
C36   C66   S    
C32   H15   S    
C20   C25   S    
C15   C16   A    
C66   O16   A    
C29   C33   S    
C59   H34   S    
C18   C19   A    
C23   C26   S    
C4    H1    S    
C53   C68   S    
C7    C13   A    
C66   O17   A    
C67   H33   S    
C32   H14   S    
C8    C9    A    
C31   H13   S    
Cr4   O19   S    
C12   C17   S    
C50   H27   S    
Cr1   O24   S    
C45   O2    A    
Cr2   O21   S    
C57   H30   S    
C59   C60   S    
Cr3   O3    S    
C13   C14   A    
C44   C65   S    
C65   O14   A    
Cr6   O18   S    
C44   C46   A    
C71   H44   S    
C54   C59   S    
C48   H24   S    
Cr4   O14   S    
C34   O26   A    
C27   C31   A    
C23   O23   A    
C36   C40   A    
C24   C25   S    
N1    C71   S    
C10   C11   A    
C42   H21   S    
C39   C40   A    
Cr6   O17   S    
Cr5   O19   S    
C4    C5    A    
C39   C43   A    
Cr3   O22   S    
C64   O11   A    
C51   H28   S    
C34   C61   S    
C33   H17   S    
Cr5   O8    S    
C9    C67   A    
C37   C38   A    
C60   H36   S    
Cr1   O12   S    
C71   H45   S    
C34   O25   A    
C11   C16   S    
C15   H4    S    
C28   C32   S    
C51   H29   S    
C25   H9    S    
C50   C51   S    
C12   O22   A    
C14   H3    S    
C68   O13   A    
C43   C45   S    
C47   C52   A    
Cr1   O25   S    
C56   O24   A    
C45   O3    A    
Cr2   O20   S    
C21   H5    S    
C50   H26   S    
Cr3   O4    S    
Cr4   O13   S    
Cr6   O11   S    
C12   O21   A    
C33   H16   S    
C2    C5    S    
C4    C17   A    
C58   H31   S    
C65   O15   A    
C1    O20   A    
Cr5   O15   S    
C1    C35   S    
C71   H43   S    
C46   C50   S    
C46   C47   A    
C28   C29   A    
Cr1   O1    S    
Cr2   O5    S    
C18   C22   A    
C68   O18   A    
C2    C8    A    
C40   H18   S    
N1    H42   S    
C3    C5    A    
C11   C17   A    
C62   O8    A    
C47   C51   S    
C53   C58   A    
Cr5   O16   S    
C57   C61   A    
C6    C7    A    
Cr3   O23   S    
C3    C63   S    
C64   O6    A    
C29   C35   A    
C8    H40   S    
C59   H32   S    
C10   H41   S    
Cr5   O9    S    
C32   C33   S    
C19   C24   S    
C24   H8    S    
C38   C43   A    
C60   H35   S    
C2    C70   A    
C42   H23   S    
C56   O4    A    
C57   C58   A    
C41   H19   S    
C20   C26   A    
C48   C49   A    
C55   C61   A    
Cr2   O2    S    
C25   H10   S    
Cr4   O6    S    
C37   C41   S    
C69   C70   A    
C6    H39   S    
C63   O9    A    
C27   C64   S    
C13   H2    S    
C6    C16   A    
C41   H20   S    
C48   C52   A    
C39   N1    S    
Cr3   O5    S    
C27   C28   A    
C3    C10   A    
Cr6   O10   S    
C14   C15   A    
C18   C62   S    
C67   C69   A    
C30   H11   S    
C55   C60   S    
C63   O10   A    
C52   C56   S    
