data_mof_unit_58164.cif
_audit_creation_date              2012-10-26T21:20:01-0400
_audit_creation_method            fapswitch 2.2
_symmetry_space_group_name_H-M    P1
_symmetry_Int_Tables_number       1
_space_group_crystal_system       triclinic
_cell_length_a                    12.992613
_cell_length_b                    10.760325
_cell_length_c                    9.539233
_cell_angle_alpha                 89.440527
_cell_angle_beta                  96.051083
_cell_angle_gamma                 90.831219
_cell_volume                      1326.01435636

loop_
_atom_site_label
_atom_site_type_symbol
_atom_type_description
_atom_site_fract_x
_atom_site_fract_y
_atom_site_fract_z
_atom_type_partial_charge
C1    C     C_R   0.500814 0.262400 0.500789 0.573209
C2    C     C_R   0.699517 0.502737 0.526502 0.575596
C3    C     C_R   0.812490 0.509316 0.542484 0.044443
C4    C     C_R   0.187461 0.493559 0.456707 0.046009
C5    C     C_R   0.023066 0.441947 0.323843 -0.122685
C6    C     C_R   0.976812 0.562578 0.674667 -0.124085
C7    C     C_R   0.131401 0.447840 0.332415 0.234658
C8    C     C_R   0.868517 0.555020 0.666819 0.235886
C9    C     C_R   0.135346 0.533324 0.568858 -0.181810
C10   C     C_R   0.864537 0.472033 0.429139 -0.182578
C11   C     C_R   0.028158 0.525471 0.560784 -0.003831
C12   C     C_R   0.498427 0.737525 0.499147 0.574326
C13   C     C_R   0.971719 0.479695 0.437421 -0.000687
C14   C     C_R   0.424274 0.065825 0.414820 -0.164286
C15   C     C_R   0.574115 0.933981 0.585688 -0.164022
C16   C     C_R   0.421845 0.936526 0.412458 0.110002
C17   C     C_R   0.575452 0.063148 0.589767 0.107133
C18   C     C_3   0.347260 0.860721 0.186433 -0.284768
C19   C     C_3   0.640285 0.130297 0.823073 -0.282074
C20   C     C_3   0.257351 0.347405 0.857675 -0.309219
C21   C     C_3   0.648050 0.783500 0.115757 -0.330500
C22   C     C_R   0.498062 0.871245 0.497767 0.026406
C23   C     C_R   0.500594 0.128570 0.502366 0.021752
C24   C     C_R   0.435110 0.422841 0.066634 0.002682
C25   C     C_R   0.565604 0.576252 0.933266 0.005934
C26   C     C_R   0.433617 0.423555 0.917278 0.233388
C27   C     C_R   0.565202 0.578236 0.082383 0.233289
C28   C     C_R   0.300469 0.498099 0.473389 0.577465
Cu1   Cu    Cu3+1 0.500000 0.500020 0.640660 0.992657
Cu2   Cu    Cu3+1 0.500000 0.499980 0.359340 0.987102
H1    H     H_    0.821499 0.436273 0.334057 0.120544
H2    H     H_    0.132356 0.378497 0.144586 0.304365
H3    H     H_    0.266792 0.908343 0.352570 0.244831
H4    H     H_    0.350303 0.953814 0.135341 0.118875
H5    H     H_    0.279441 0.808083 0.135606 0.144574
H6    H     H_    0.417803 0.808610 0.170235 0.187913
H7    H     H_    0.728223 0.096269 0.660033 0.243722
H8    H     H_    0.644364 0.035052 0.869397 0.117383
H9    H     H_    0.564213 0.170954 0.837668 0.163989
H10   H     H_    0.701779 0.189044 0.879925 0.147460
H11   H     H_    0.392014 0.252028 0.835181 0.228286
H12   H     H_    0.178398 0.570832 0.662882 0.124194
H13   H     H_    0.243053 0.295224 0.954901 0.123340
H14   H     H_    0.209719 0.304373 0.766998 0.149576
H15   H     H_    0.233014 0.445305 0.866653 0.156223
H16   H     H_    0.706256 0.615334 0.193158 0.250056
H17   H     H_    0.680587 0.842095 0.205274 0.154487
H18   H     H_    0.572529 0.822390 0.072542 0.132520
H19   H     H_    0.702246 0.787239 0.033122 0.120917
H20   H     H_    0.979018 0.406727 0.229312 0.089800
H21   H     H_    0.020859 0.597782 0.769207 0.087381
H22   H     H_    0.365397 0.117397 0.350485 0.124188
H23   H     H_    0.632634 0.882470 0.650754 0.124301
H24   H     H_    0.384548 0.360273 0.117587 0.150391
H25   H     H_    0.618584 0.635404 0.882191 0.155871
H26   H     H_    0.867400 0.623465 0.855139 0.308006
N1    N     N_R   0.500030 0.500030 0.852080 -0.231536
N2    N     N_R   0.499970 0.499970 0.147920 -0.233777
N3    N     N_2   0.337672 0.872876 0.335254 -0.505253
N4    N     N_2   0.655365 0.126956 0.675069 -0.499484
N5    N     N_2   0.365567 0.341856 0.834796 -0.461783
N6    N     N_2   0.636025 0.656906 0.165196 -0.461340
O1    O     O_R   0.499990 0.319660 0.618740 -0.473635
O2    O     O_3   0.183358 0.407062 0.222712 -0.714628
O3    O     O_R   0.500010 0.680340 0.381260 -0.461550
O4    O     O_R   0.499990 0.319630 0.381170 -0.522003
O5    O     O_R   0.500010 0.680370 0.618830 -0.523529
O6    O     O_R   0.349000 0.499990 0.599490 -0.493569
O7    O     O_R   0.651000 0.500010 0.400510 -0.519989
O8    O     O_R   0.348990 0.499960 0.361920 -0.445784
O9    O     O_R   0.651010 0.500040 0.638080 -0.443559
O10   O     O_3   0.816514 0.594260 0.777194 -0.713163

loop_
_geom_bond_atom_site_label_1
_geom_bond_atom_site_label_2
_ccdc_geom_bond_type
C14   C23   A    
C6    C8    A    
Cu1   O1    S    
Cu1   Cu2   S    
C19   H8    S    
C6    H21   S    
C25   C27   A    
Cu1   O6    S    
C11   C13   A    
C18   H5    S    
Cu2   O8    S    
C5    C13   A    
C20   H15   S    
C27   N6    S    
H11   N5    S    
C15   H23   S    
C21   H18   S    
Cu2   O7    S    
C21   H19   S    
C2    C3    S    
C9    H12   S    
C28   O6    A    
H3    N3    S    
C3    C10   A    
Cu2   O4    S    
C12   O5    A    
C9    C11   A    
C24   C26   A    
C18   H6    S    
C21   N6    S    
C17   C23   A    
C25   N1    A    
H16   N6    S    
C4    C7    A    
Cu2   N2    S    
C14   H22   S    
C20   H14   S    
C26   N5    S    
Cu1   N1    S    
C10   C13   A    
C1    C23   S    
C5    C7    A    
C18   H4    S    
C7    O2    S    
C26   N1    A    
C14   C16   A    
C5    H20   S    
C8    O10   S    
Cu2   O3    S    
C19   H10   S    
C17   N4    S    
C24   H24   S    
C2    O9    A    
H7    N4    S    
C12   C22   S    
C18   N3    S    
C6    C11   A    
C20   H13   S    
H2    O2    S    
C24   N2    A    
C3    C8    A    
C12   O3    A    
C2    O7    A    
C20   N5    S    
C15   C17   A    
C19   H9    S    
C1    O1    A    
C19   N4    S    
C16   C22   A    
C21   H17   S    
C4    C9    A    
Cu1   O5    S    
C4    C28   S    
C10   H1    S    
C16   N3    S    
C15   C22   A    
C28   O8    A    
C25   H25   S    
Cu1   O9    S    
H26   O10   S    
C27   N2    A    
C1    O4    A    
