data_mof_unit_25524.cif
_audit_creation_date              2012-12-11T20:10:36-0500
_audit_creation_method            fapswitch 2.2
_symmetry_space_group_name_H-M    P1
_symmetry_Int_Tables_number       1
_space_group_crystal_system       triclinic
_cell_length_a                    8.248953
_cell_length_b                    16.488655
_cell_length_c                    18.716331
_cell_angle_alpha                 111.98214
_cell_angle_beta                  91.022656
_cell_angle_gamma                 84.052146
_cell_volume                      2347.30247043

loop_
_atom_site_label
_atom_site_type_symbol
_atom_type_description
_atom_site_fract_x
_atom_site_fract_y
_atom_site_fract_z
_atom_type_partial_charge
Ba1   Ba    Ba6+2 0.333520 0.539550 0.472180 1.658442
Ba2   Ba    Ba6+2 0.856270 0.460520 0.527840 1.637838
C1    C     C_3   0.045147 0.845549 0.342679 -0.316377
C2    C     C_R   0.431557 0.420276 0.080629 0.002326
C3    C     C_R   0.281101 0.388727 0.053768 -0.037565
C4    C     C_3   0.534241 0.767171 0.314409 0.267775
C5    C     C_R   0.212644 0.398287 0.988121 -0.089101
C6    C     C_R   0.295725 0.436935 0.946357 0.029245
C7    C     C_R   0.442865 0.472208 0.974225 0.028397
C8    C     C_R   0.236964 0.437465 0.875773 -0.095258
C9    C     C_R   0.326391 0.469566 0.830164 -0.039032
C10   C     C_R   0.469541 0.510003 0.860106 -0.010609
C11   C     C_R   0.526994 0.511129 0.932466 -0.000785
C12   C     C_3   0.050548 0.757422 0.351434 0.339443
C13   C     C_R   0.279460 0.460665 0.754781 -0.010628
C14   C     C_R   0.373711 0.491362 0.710770 -0.299465
C15   C     C_R   0.507104 0.537973 0.741241 0.046162
C16   C     C_3   0.516162 0.831378 0.271478 -0.180044
C17   C     C_R   0.556340 0.548244 0.817578 -0.051603
C18   C     C_R   0.656375 0.499900 0.070525 0.014154
C19   C     C_R   0.719629 0.494478 0.139957 0.044686
C20   C     C_R   0.640658 0.447572 0.177557 -0.014255
C21   C     C_R   0.520702 0.393913 0.134923 -0.017661
C22   C     C_R   0.691328 0.593245 0.852360 -0.043534
C23   C     C_3   0.177914 0.282618 0.280729 0.284203
C24   C     C_R   0.753494 0.589919 0.921899 0.032801
C25   C     C_R   0.672207 0.547875 0.961705 0.010943
C26   C     C_R   0.736468 0.542603 0.030871 0.033842
C27   C     C_R   0.898525 0.626251 0.951478 -0.082629
C28   C     C_3   0.619095 0.735160 0.662948 0.324889
C29   C     C_R   0.962526 0.620530 0.019450 -0.091653
C30   C     C_R   0.881908 0.579187 0.059777 0.030837
C31   C     C_R   0.861392 0.535390 0.170963 -0.044344
C32   C     C_R   0.943754 0.574872 0.128821 -0.123083
C33   C     C_R   0.915327 0.536134 0.243364 -0.015284
C34   C     C_3   0.235946 0.235775 0.197756 -0.314063
C35   C     C_R   0.828568 0.497421 0.283618 -0.238033
C36   C     C_R   0.691848 0.453294 0.253341 0.054692
C37   C     C_2   0.379446 0.253587 0.518365 -0.292774
C38   C     C_R   0.808106 0.750848 0.513140 -0.290792
C39   C     C_2   0.205089 0.135738 0.458573 -0.050034
C40   C     C_3   0.575507 0.835181 0.696584 -0.216249
C41   C     C_2   0.239712 0.217412 0.470013 0.043087
C42   C     C_2   0.496507 0.199806 0.534813 -0.025009
C43   C     C_3   0.477155 0.102821 0.506058 0.013236
C44   C     C_3   0.297618 0.084655 0.500630 0.003259
C45   C     C_3   0.668690 0.300081 0.711484 0.303751
C46   C     C_2   0.581151 0.050126 0.543227 -0.111650
C47   C     C_2   0.586259 0.962607 0.511102 -0.058472
C48   C     C_R   0.845606 0.930140 0.570914 0.011374
C49   C     C_R   0.707829 0.900339 0.527953 -0.021271
C50   C     C_R   0.960870 0.871393 0.586743 -0.142328
C51   C     C_R   0.940249 0.781807 0.559219 0.056158
C52   C     C_3   0.730632 0.253505 0.282893 0.287703
C53   C     C_R   0.689471 0.809566 0.498776 -0.012028
C54   C     C_3   0.805876 0.223142 0.202500 -0.388006
C55   C     C_3   0.147891 0.670672 0.713090 0.313654
C56   C     C_3   0.698206 0.282801 0.785695 -0.166762
C57   C     C_3   0.160096 0.702893 0.800357 -0.399574
C58   C     C_3   0.701905 0.885389 0.752683 -0.198813
C59   C     C_3   0.705774 0.870475 0.828525 -0.328028
C60   C     C_3   0.714635 0.170888 0.300773 -0.163334
C61   C     C_3   0.595616 0.189705 0.366752 -0.284438
C62   C     C_2   0.670067 0.190348 0.774610 0.900826
C63   C     C_2   0.492753 0.678921 0.260643 0.872003
C64   C     C_2   0.577000 0.298904 0.098445 0.809118
C65   C     C_2   0.552711 0.922410 0.320149 0.849151
C66   C     C_3   0.155925 0.244802 0.670891 0.329397
C67   C     C_3   0.146421 0.164046 0.690942 -0.299368
C68   C     C_R   0.508773 0.465581 0.042503 -0.016092
H1    H     H_    0.128091 0.760013 0.401216 0.102237
H2    H     H_    0.169231 0.860467 0.334115 0.145746
H3    H     H_    0.241152 0.756444 0.820963 0.127423
H4    H     H_    0.210328 0.648555 0.818140 0.061296
H5    H     H_    0.037317 0.728122 0.827667 0.109924
H6    H     H_    0.924836 0.747022 0.363529 -0.049674
H7    H     H_    0.990969 0.898346 0.395760 0.110964
H8    H     H_    0.061506 0.324190 0.283737 -0.050119
H9    H     H_    0.271919 0.324284 0.310632 0.112522
H10   H     H_    0.159416 0.183582 0.164893 0.120234
H11   H     H_    0.231048 0.285003 0.170486 0.112545
H12   H     H_    0.566229 0.859085 0.648479 0.054838
H13   H     H_    0.362528 0.204633 0.195843 0.161822
H14   H     H_    0.972074 0.844110 0.291935 0.155621
H15   H     H_    0.602020 0.806515 0.220958 0.033025
H16   H     H_    0.698065 0.367637 0.721485 0.069794
H17   H     H_    0.537490 0.296282 0.698202 -0.057697
H18   H     H_    0.824549 0.295358 0.804944 0.106630
H19   H     H_    0.613414 0.328838 0.831753 0.003554
H20   H     H_    0.285041 0.258440 0.673710 -0.019242
H21   H     H_    0.110283 0.230710 0.611863 0.068081
H22   H     H_    0.234559 0.109189 0.654532 0.077781
H23   H     H_    0.453089 0.851228 0.725365 0.124260
H24   H     H_    0.021985 0.142738 0.680910 0.155503
H25   H     H_    0.176194 0.179349 0.752423 0.160555
H26   H     H_    0.218204 0.354672 0.082439 0.102905
H27   H     H_    0.098046 0.371848 0.968082 0.090032
H28   H     H_    0.336884 0.483051 0.652879 0.066497
H29   H     H_    0.123520 0.410096 0.856193 0.111556
H30   H     H_    0.753619 0.628479 0.824698 0.097202
H31   H     H_    0.963794 0.658187 0.921513 0.064814
H32   H     H_    0.075212 0.648658 0.040576 0.089379
H33   H     H_    0.056670 0.602604 0.148787 0.120411
H34   H     H_    0.814116 0.294920 0.323551 0.077068
H35   H     H_    0.663080 0.761808 0.331603 -0.085483
H36   H     H_    0.869352 0.501391 0.340012 0.055172
H37   H     H_    0.108631 0.106578 0.420350 0.103165
H38   H     H_    0.062957 0.896213 0.622509 0.096845
H39   H     H_    0.395883 0.322094 0.531741 0.077743
H40   H     H_    0.791325 0.681692 0.493274 0.068682
H41   H     H_    0.662500 0.081237 0.589259 0.116607
H42   H     H_    0.500353 0.936081 0.466467 0.131761
H43   H     H_    0.390662 0.834428 0.249238 0.106505
H44   H     H_    0.748762 0.718689 0.644821 -0.012140
H45   H     H_    0.717881 0.188738 0.159184 0.155026
H46   H     H_    0.542310 0.708025 0.611891 0.060314
H47   H     H_    0.783717 0.916714 0.869714 0.120284
H48   H     H_    0.581136 0.882353 0.854319 0.128220
H49   H     H_    0.758615 0.802587 0.819351 0.148569
H50   H     H_    0.825165 0.866952 0.725112 0.127421
H51   H     H_    0.670722 0.956821 0.765977 0.137019
H52   H     H_    0.619464 0.251299 0.414676 0.130387
H53   H     H_    0.608509 0.133973 0.386130 0.114217
H54   H     H_    0.469390 0.196644 0.347166 0.117665
H55   H     H_    0.670277 0.117667 0.249867 0.100123
H56   H     H_    0.912813 0.174653 0.196847 0.101477
H57   H     H_    0.835947 0.145676 0.315288 0.110716
H58   H     H_    0.513069 0.097843 0.746474 0.299458
H59   H     H_    0.384132 0.607907 0.162996 0.317528
H60   H     H_    0.518481 0.174237 0.052060 0.314650
H61   H     H_    0.720340 0.000244 0.381144 0.304734
H62   H     H_    0.846410 0.279768 0.192034 0.098306
H63   H     H_    0.271982 0.649813 0.687026 0.011397
H64   H     H_    0.073922 0.614050 0.693475 0.067315
O1    O     O_2   0.402610 0.439360 0.314250 -0.444280
O2    O     O_2   0.832155 0.188823 0.502773 -0.501641
O3    O     O_3   0.769400 0.238862 0.651540 -0.595723
O4    O     O_3   0.648560 0.446300 0.404730 -0.483567
O5    O     O_3   0.025080 0.609480 0.556050 -0.490940
O6    O     O_2   0.948320 0.280590 0.426090 -0.469457
O7    O     O_3   0.160248 0.221129 0.314026 -0.643788
O8    O     O_2   0.944711 0.476027 0.751787 -0.488005
O9    O     O_3   0.057797 0.315720 0.723242 -0.593744
O10   O     O_3   0.108870 0.604000 0.387500 -0.484922
O11   O     O_2   0.251173 0.530194 0.248755 -0.450423
O12   O     O_3   0.073966 0.739793 0.693803 -0.638093
O13   O     O_3   0.575128 0.299555 0.287100 -0.643962
O14   O     O_3   0.115631 0.690531 0.283457 -0.591876
O15   O     O_2   0.241370 0.719440 0.573960 -0.462004
O16   O     O_3   0.507090 0.652150 0.432150 -0.432272
O17   O     O_2   0.364139 0.809755 0.516637 -0.492900
O18   O     O_2   0.781010 0.140748 0.784602 -0.618302
O19   O     O_R   0.516762 0.161512 0.753063 -0.785365
O20   O     O_2   0.511934 0.617515 0.281885 -0.597024
O21   O     O_R   0.424703 0.667624 0.188910 -0.775489
O22   O     O_2   0.716920 0.276255 0.072755 -0.624060
O23   O     O_3   0.424300 0.796464 0.378046 -0.633834
O24   O     O_R   0.466391 0.236150 0.081660 -0.782366
O25   O     O_2   0.448269 0.984385 0.331513 -0.633786
O26   O     O_R   0.707843 0.936277 0.349975 -0.796175
O27   O     O_2   0.787080 0.560670 0.685800 -0.463124
O28   O     O_3   0.541120 0.553770 0.595290 -0.500053
O29   O     O_3   0.080800 0.396070 0.612520 -0.479666
O30   O     O_3   0.588725 0.701277 0.719068 -0.650297
O31   O     O_3   0.164600 0.390590 0.443970 -0.486686
O32   O     O_3   0.682580 0.347920 0.567870 -0.472309
P1    P     P_3+3 0.582960 0.413890 0.320860 0.999077
P2    P     P_3+3 0.071690 0.707860 0.593450 0.975474
P3    P     P_3+3 0.499750 0.765916 0.454317 0.963766
P4    P     P_3+3 0.606720 0.586180 0.679160 0.965145
P5    P     P_3+3 0.697144 0.240933 0.563848 0.950813
P6    P     P_3+3 0.096752 0.588841 0.290279 0.973509
P7    P     P_3+3 0.136575 0.277359 0.413657 0.941126
P8    P     P_3+3 0.093095 0.412101 0.710231 0.942683

loop_
_geom_bond_atom_site_label_1
_geom_bond_atom_site_label_2
_ccdc_geom_bond_type
C6    C7    A    
C30   C32   A    
C4    O23   S    
C59   H49   S    
C40   H23   S    
C12   H1    S    
O30   P4    S    
C40   H12   S    
C28   O30   S    
C18   C68   A    
Ba2   O28   S    
C2    C68   A    
C61   H54   S    
C5    C6    A    
O8    P8    D    
C28   H46   S    
C43   C44   S    
C42   C43   S    
C10   C11   A    
C24   C25   A    
C35   C36   A    
C62   O18   D    
O5    P2    S    
Ba2   O5    S    
C21   C64   S    
C52   H34   S    
C33   C35   A    
C22   C24   A    
C60   H57   S    
C55   C57   S    
O16   P3    S    
C19   C31   A    
Ba1   P1    S    
C34   H13   S    
O31   P7    S    
C13   C14   A    
C20   C36   A    
C12   O14   S    
C66   H21   S    
Ba2   O27   S    
C66   O9    S    
Ba1   Ba2   S    
C7    C11   A    
O12   P2    S    
O23   P3    S    
C66   C67   S    
C9    C13   A    
C54   H45   S    
C4    C63   S    
C14   C15   A    
C47   C49   S    
C48   C50   A    
C39   C44   S    
Ba1   O15   S    
C65   O26   S    
C54   H56   S    
C67   H22   S    
C5    H27   S    
C57   H3    S    
C49   C53   A    
Ba1   O5    S    
C63   O20   D    
O11   P6    D    
O32   P5    S    
C22   H30   S    
C55   O12   S    
O7    P7    S    
C33   P6    S    
C39   C41   D    
C55   H63   S    
C8    H29   S    
O15   P2    D    
C16   H43   S    
C48   C49   A    
C58   H51   S    
C56   C62   S    
C36   P1    S    
C4    C16   S    
C52   C54   S    
C16   H15   S    
C59   H47   S    
C23   H8    S    
Ba2   O4    S    
C45   H16   S    
C26   C30   A    
C7    C68   A    
C67   H24   S    
C34   H10   S    
C40   C58   S    
C3    C5    A    
C2    C21   A    
C15   P4    S    
O6    P7    D    
C38   H40   S    
C18   C26   A    
Ba1   P2    S    
C16   C65   S    
C62   O19   S    
C58   C59   S    
C45   H17   S    
C29   H32   S    
C60   C61   S    
C51   P2    S    
C66   H20   S    
C29   C30   A    
O28   P4    S    
O2    P5    D    
Ba1   O31   S    
C34   H11   S    
C38   C53   A    
C45   O3    S    
C31   C32   A    
C27   H31   S    
Ba1   O16   S    
O14   P6    S    
Ba2   O31   S    
C50   H38   S    
C54   H62   S    
C1    C12   S    
O13   P1    S    
H58   O19   S    
Ba2   P4    S    
C47   H42   S    
O27   P4    D    
C6    C8    A    
C46   C47   D    
Ba1   O28   S    
O4    P1    S    
C55   H64   S    
C15   C17   A    
C1    H7    S    
C57   H5    S    
C64   O24   S    
C3    H26   S    
C50   C51   A    
H59   O21   S    
C28   H44   S    
C43   C46   S    
Ba2   O32   S    
C39   H37   S    
C13   P8    S    
C59   H48   S    
C23   H9    S    
C23   O7    S    
C2    C3    A    
C67   H25   S    
C56   H18   S    
Ba2   O29   S    
C60   H55   S    
C61   H53   S    
C9    C10   A    
C37   C42   D    
C57   H4    S    
C52   C60   S    
O10   P6    S    
C32   H33   S    
O17   P3    D    
H60   O24   S    
Ba2   O6    S    
C17   C22   A    
C42   P5    S    
C35   H36   S    
C63   O21   S    
Ba1   O10   S    
C23   C34   S    
C45   C56   S    
C64   O22   D    
C61   H52   S    
C41   P7    S    
C14   H28   S    
C10   C17   A    
C31   C33   A    
C4    H35   S    
C1    H2    S    
C28   C40   S    
H61   O26   S    
C56   H19   S    
O3    P5    S    
C8    C9    A    
C58   H50   S    
C37   H39   S    
C46   H41   S    
C18   C19   A    
C37   C41   S    
C24   C27   A    
C27   C29   A    
C38   C51   A    
Ba1   O1    S    
C1    H14   S    
O1    P1    D    
C20   C21   A    
C11   C25   A    
C65   O25   D    
O9    P8    S    
C19   C20   A    
O29   P8    S    
C53   P3    S    
Ba1   O4    S    
C12   H6    S    
C52   O13   S    
C25   C26   A    
