data_mof_unit_54599.cif
_audit_creation_date              2012-12-11T15:09:35-0500
_audit_creation_method            fapswitch 2.2
_symmetry_space_group_name_H-M    P1
_symmetry_Int_Tables_number       1
_space_group_crystal_system       triclinic
_cell_length_a                    20.915311
_cell_length_b                    7.126133
_cell_length_c                    14.007259
_cell_angle_alpha                 89.987595
_cell_angle_beta                  98.105417
_cell_angle_gamma                 90.033138
_cell_volume                      2066.85999624

loop_
_atom_site_label
_atom_site_type_symbol
_atom_type_description
_atom_site_fract_x
_atom_site_fract_y
_atom_site_fract_z
_atom_type_partial_charge
O1    O     O_R   0.447130 0.507140 0.597350 -0.546238
O2    O     O_R   0.552870 0.007140 0.402650 -0.548303
O3    O     O_R   0.578910 0.181280 0.586990 -0.542438
O4    O     O_R   0.421090 0.681280 0.413010 -0.541215
C1    C     C_R   0.604444 0.344523 0.607497 0.727181
C2    C     C_R   0.395495 0.844448 0.392652 0.724737
O5    O     O_R   0.449230 0.177860 0.608640 -0.534396
O6    O     O_R   0.550770 0.677860 0.391360 -0.530213
O7    O     O_R   0.422260 0.000770 0.424450 -0.531132
O8    O     O_R   0.577740 0.500770 0.575550 -0.531099
C3    C     C_R   0.432610 0.346061 0.634511 0.724375
C4    C     C_R   0.567841 0.846134 0.365888 0.729110
O9    O     O_3   0.491310 0.336980 0.439550 -0.373629
O10   O     O_3   0.508690 0.836980 0.560450 -0.375615
V1    V     V_3+5 0.501610 0.064760 0.511210 1.464844
V2    V     V_3+5 0.498390 0.564760 0.488790 1.471956
C5    C     C_R   0.615022 0.798628 0.115279 0.432222
C6    C     C_R   0.384104 0.301127 0.882921 0.414637
C7    C     C_R   0.605969 0.852707 0.285378 -0.190439
C8    C     C_R   0.393380 0.351895 0.713495 -0.227572
C9    C     C_R   0.917422 0.828470 0.302860 0.183382
C10   C     C_R   0.081903 0.316561 0.697979 0.187115
C11   C     C_R   0.878580 0.784591 0.374553 0.206579
C12   C     C_R   0.120662 0.268558 0.626855 0.207051
C13   C     C_R   0.811392 0.762524 0.348613 0.430974
C14   C     C_R   0.188049 0.252206 0.652500 0.424385
C15   C     C_R   0.781176 0.819873 0.255832 -0.033594
C16   C     C_R   0.218219 0.319159 0.743506 -0.034135
C17   C     C_R   0.820063 0.849921 0.182021 -0.149562
C18   C     C_R   0.179557 0.356945 0.816745 -0.152586
C19   C     C_R   0.712650 0.837051 0.233413 -0.043050
C20   C     C_R   0.286618 0.337868 0.765136 -0.015069
C21   C     C_R   0.683143 0.820678 0.136260 -0.095391
C22   C     C_R   0.316190 0.329361 0.862432 -0.148154
C23   C     C_R   0.722550 0.828542 0.062075 0.341567
C24   C     C_R   0.277733 0.358096 0.936354 0.287623
C25   C     C_R   0.789402 0.866898 0.085143 0.222090
C26   C     C_R   0.210560 0.390918 0.912290 0.255329
C27   C     C_R   0.673486 0.879615 0.305003 0.366302
C28   C     C_R   0.325729 0.375321 0.692721 0.375483
C29   C     C_R   0.576317 0.811517 0.190640 -0.014712
C30   C     C_R   0.422513 0.312046 0.808340 0.036271
C31   C     C_R   0.888480 0.856585 0.207255 -0.136942
C32   C     C_R   0.111089 0.356279 0.792335 -0.139344
C33   C     C_1   0.166632 0.857237 0.168213 -0.158922
C34   C     C_1   0.833323 0.357116 0.831908 -0.155626
C35   C     C_1   0.219060 0.854918 0.219267 0.019790
C36   C     C_1   0.780882 0.354895 0.780882 0.020830
C37   C     C_1   0.280806 0.853385 0.279293 0.035602
C38   C     C_1   0.719132 0.353504 0.720865 0.040605
C39   C     C_1   0.333148 0.851018 0.330581 -0.160658
C40   C     C_1   0.666789 0.351186 0.669574 -0.157002
O11   O     O_R   0.922300 0.202240 0.924350 -0.526768
O12   O     O_R   0.077700 0.702240 0.075650 -0.525103
O13   O     O_R   0.050780 0.535130 0.891350 -0.531889
O14   O     O_R   0.949220 0.035130 0.108650 -0.534999
C41   C     C_R   0.068374 0.367986 0.866538 0.907197
C42   C     C_R   0.931707 0.867927 0.133622 0.912099
O15   O     O_R   0.921100 0.531560 0.912990 -0.535390
O16   O     O_R   0.078900 0.031560 0.087010 -0.537592
O17   O     O_R   0.947120 0.708470 0.097370 -0.545805
O18   O     O_R   0.052880 0.208470 0.902630 -0.548642
C43   C     C_R   0.895846 0.363546 0.893524 0.731083
C44   C     C_R   0.104136 0.863597 0.106524 0.729061
O19   O     O_3   0.008710 0.375800 0.060400 -0.379814
O20   O     O_3   0.991290 0.875800 0.939600 -0.378452
V3    V     V_3+5 0.998380 0.648080 0.988790 1.538458
V4    V     V_3+5 0.001620 0.148080 0.011210 1.533384
C45   C     C_3   0.503337 0.793973 0.167959 -0.715044
H1    H     H_    0.484827 0.892171 0.108883 0.220775
H2    H     H_    0.490082 0.647786 0.145928 0.220173
H3    H     H_    0.477494 0.829519 0.229306 0.189178
C46   C     C_3   0.494961 0.283814 0.829684 -0.643513
H4    H     H_    0.512546 0.264394 0.907503 0.251917
H5    H     H_    0.509102 0.157661 0.791174 0.200218
H6    H     H_    0.520125 0.408413 0.805159 0.184225
O21   O     O_3   0.695105 0.806192 0.967051 -0.602220
H7    H     H_    0.727947 0.753899 0.929885 0.297712
O22   O     O_3   0.306876 0.369245 0.031053 -0.634413
H8    H     H_    0.275878 0.324776 0.073503 0.296049
O23   O     O_3   0.587779 0.766582 0.020679 -0.597004
H9    H     H_    0.544799 0.707792 0.017900 0.307293
O24   O     O_3   0.413792 0.255135 0.974111 -0.620390
H10   H     H_    0.387549 0.154941 0.998780 0.316458
O25   O     O_3   0.702594 0.958835 0.390697 -0.613766
H11   H     H_    0.670090 0.006076 0.429387 0.292608
O26   O     O_3   0.296474 0.447460 0.605381 -0.613617
H12   H     H_    0.328815 0.484448 0.563978 0.292722
O27   O     O_3   0.984143 0.831508 0.322147 -0.647170
H13   H     H_    0.998441 0.745889 0.376657 0.312064
O28   O     O_3   0.015151 0.312972 0.679661 -0.647191
H14   H     H_    0.001463 0.221086 0.627765 0.310117
O29   O     O_3   0.774719 0.673020 0.410018 -0.613578
H15   H     H_    0.802742 0.625152 0.467730 0.340169
O30   O     O_3   0.225060 0.159203 0.592834 -0.614440
H16   H     H_    0.197176 0.104980 0.536618 0.340833
O31   O     O_3   0.904628 0.761053 0.470048 -0.643097
H17   H     H_    0.943153 0.842653 0.484244 0.313361
O32   O     O_3   0.094312 0.234693 0.532343 -0.643090
H18   H     H_    0.054915 0.312142 0.516677 0.314174
O33   O     O_3   0.824916 0.918326 0.013288 -0.654391
H19   H     H_    0.796363 0.984858 0.961670 0.294251
O34   O     O_3   0.175137 0.456194 0.981479 -0.654947
H20   H     H_    0.203162 0.536257 0.027760 0.293745

loop_
_geom_bond_atom_site_label_1
_geom_bond_atom_site_label_2
_ccdc_geom_bond_type
O20   V4    S    
O26   H12   S    
C13   O29   S    
O29   H15   S    
C15   C17   A    
C12   O32   S    
C46   H4    S    
O30   H16   S    
O1    C3    A    
O2    C4    A    
C2    O7    A    
O23   H9    S    
C41   O18   A    
C35   C37   S    
C9    O27   S    
O21   H7    S    
O5    C3    A    
O33   H19   S    
C28   O26   S    
C23   C25   A    
C12   C14   A    
C6    C30   A    
O25   H11   S    
C8    C28   A    
C18   C26   A    
C45   H2    S    
O11   V4    S    
C31   C42   S    
O15   V3    S    
C9    C31   A    
C10   C32   A    
O32   H18   S    
O14   C42   A    
C16   C18   A    
C37   C39   T    
C38   C40   T    
C10   O28   S    
C19   C21   A    
C1    C40   S    
C2    C39   S    
C22   C24   A    
C42   O17   A    
C36   C38   S    
O20   V3    S    
O6    V2    S    
C17   C31   A    
C46   H5    S    
C18   C32   A    
C5    C21   A    
O31   H17   S    
C33   C35   T    
C34   C36   T    
C3    C8    S    
C15   C19   A    
C16   C20   A    
O4    C2    A    
O28   H14   S    
O12   V3    S    
O19   V3    S    
O14   V4    S    
C23   O21   S    
C20   C22   A    
O4    V2    S    
C45   H3    S    
C26   O34   S    
O17   V3    S    
C8    C30   A    
O24   H10   S    
C32   C41   S    
O6    C4    A    
O19   V4    S    
C6    O24   S    
O1    V2    S    
O2    V1    S    
C6    C22   A    
C7    C27   A    
C11   O31   S    
O13   C41   A    
C46   H6    S    
C10   C12   A    
C27   O25   S    
C24   C26   A    
O3    V1    S    
C29   C45   S    
C14   O30   S    
C30   C46   S    
C14   C16   A    
O3    C1    A    
C24   O22   S    
O13   V3    S    
C13   C15   A    
C33   C44   S    
O15   C43   A    
O18   V4    S    
C34   C43   S    
O16   C44   A    
C9    C11   A    
O7    V1    S    
C1    O8    A    
O8    V2    S    
C25   O33   S    
O11   C43   A    
O12   C44   A    
C4    C7    S    
O5    V1    S    
C21   C23   A    
C19   C27   A    
C5    O23   S    
C20   C28   A    
C45   H1    S    
C5    C29   A    
O22   H8    S    
C11   C13   A    
O16   V4    S    
O9    V2    S    
C17   C25   A    
O34   H20   S    
O10   V1    S    
O27   H13   S    
C7    C29   A    
