data_mof_unit_63647.cif
_audit_creation_date              2012-12-10T17:51:20-0500
_audit_creation_method            fapswitch 2.2
_symmetry_space_group_name_H-M    P1
_symmetry_Int_Tables_number       1
_space_group_crystal_system       triclinic
_cell_length_a                    38.965501
_cell_length_b                    38.992407
_cell_length_c                    47.237363
_cell_angle_alpha                 90.000491
_cell_angle_beta                  90.004155
_cell_angle_gamma                 90.000024
_cell_volume                      71770.4970173

loop_
_atom_site_label
_atom_site_type_symbol
_atom_type_description
_atom_site_fract_x
_atom_site_fract_y
_atom_site_fract_z
_atom_type_partial_charge
C1    C     C_R   0.566111 1.000000 0.000007 0.806287
C2    C     C_R   0.000000 0.566098 1.000000 0.811596
C3    C     C_R   0.433889 1.000000 0.999993 0.806285
C4    C     C_R   1.000000 0.433902 1.000000 0.811589
C5    C     C_R   0.066111 0.500000 0.500000 0.806265
C6    C     C_R   0.500000 0.066109 0.500000 0.810538
C7    C     C_R   0.933889 0.500000 0.500000 0.806264
C8    C     C_R   0.500000 0.933903 0.500000 0.811790
C9    C     C_R   0.500050 0.000293 0.854643 0.323297
C10   C     C_R   0.999994 0.499998 0.854531 0.334135
C11   C     C_R   0.499950 0.000295 0.145357 0.323300
C12   C     C_R   0.000006 0.499998 0.145469 0.334136
C13   C     C_R   0.999999 0.499999 0.354653 0.322857
C14   C     C_R   0.500097 0.001695 0.354520 0.335480
C15   C     C_R   0.000001 0.500000 0.645347 0.322857
C16   C     C_R   0.499903 0.001694 0.645480 0.335484
C17   C     C_R   1.000000 0.066323 0.000000 0.794300
C18   C     C_R   0.933707 0.999998 0.999999 0.794102
C19   C     C_R   1.000000 0.933676 1.000000 0.794276
C20   C     C_R   0.066293 0.999998 0.000000 0.794103
C21   C     C_R   0.500000 0.566322 0.500000 0.794090
C22   C     C_R   0.433707 0.500000 0.499999 0.794184
C23   C     C_R   0.500000 0.433669 0.500000 0.794773
C24   C     C_R   0.566292 0.500000 0.500001 0.794186
C25   C     C_R   0.877737 0.012232 0.976412 -0.179765
C26   C     C_R   0.994716 0.877613 0.974722 -0.179054
C27   C     C_R   0.122249 0.987749 0.976407 -0.179758
C28   C     C_R   0.005282 0.122387 0.974723 -0.179040
C29   C     C_R   0.877751 0.987750 0.023593 -0.179757
C30   C     C_R   0.994719 0.122387 0.025277 -0.179041
C31   C     C_R   0.122263 0.012233 0.023588 -0.179765
C32   C     C_R   0.005283 0.877613 0.025277 -0.179054
C33   C     C_R   0.377742 0.512287 0.476424 -0.179454
C34   C     C_R   0.498681 0.377583 0.474377 -0.178860
C35   C     C_R   0.622254 0.487710 0.476428 -0.180001
C36   C     C_R   0.505827 0.622381 0.474804 -0.179087
C37   C     C_R   0.377746 0.487710 0.523572 -0.180003
C38   C     C_R   0.494174 0.622382 0.525196 -0.179088
C39   C     C_R   0.622258 0.512288 0.523576 -0.179454
C40   C     C_R   0.501317 0.377582 0.525621 -0.178861
C41   C     C_R   0.841917 0.012560 0.976544 -0.152794
C42   C     C_R   0.994566 0.841825 0.974752 -0.154659
C43   C     C_R   0.158068 0.987420 0.976529 -0.152846
C44   C     C_R   0.005432 0.158175 0.974753 -0.154639
C45   C     C_R   0.841932 0.987420 0.023471 -0.152848
C46   C     C_R   0.994569 0.158175 0.025248 -0.154640
C47   C     C_R   0.158083 0.012561 0.023455 -0.152793
C48   C     C_R   0.005433 0.841825 0.025247 -0.154659
C49   C     C_R   0.341923 0.512616 0.476552 -0.152705
C50   C     C_R   0.498632 0.341799 0.474385 -0.154937
C51   C     C_R   0.658073 0.487380 0.476556 -0.152879
C52   C     C_R   0.505992 0.658171 0.474839 -0.154590
C53   C     C_R   0.341927 0.487380 0.523444 -0.152877
C54   C     C_R   0.494010 0.658171 0.525162 -0.154590
C55   C     C_R   0.658077 0.512617 0.523448 -0.152706
C56   C     C_R   0.501366 0.341799 0.525613 -0.154937
C57   C     C_R   0.823807 0.999990 0.000011 0.125775
C58   C     C_R   1.000000 0.823635 1.000000 0.129631
C59   C     C_R   0.176193 0.999990 0.999989 0.125774
C60   C     C_R   0.000000 0.176364 0.000000 0.129630
C61   C     C_R   0.323808 0.499998 0.499998 0.125750
C62   C     C_R   0.499999 0.323577 0.499999 0.130818
C63   C     C_R   0.676192 0.499999 0.500002 0.125749
C64   C     C_R   0.500001 0.676356 0.500000 0.129409
C65   C     C_R   0.895937 0.999993 0.000000 -0.034719
C66   C     C_R   1.000000 0.895851 1.000000 -0.039054
C67   C     C_R   0.104063 0.999993 0.999999 -0.034718
C68   C     C_R   0.000000 0.104149 0.000000 -0.039062
C69   C     C_R   0.395937 0.499999 0.499998 -0.034550
C70   C     C_R   0.499999 0.395830 0.499999 -0.039731
C71   C     C_R   0.604063 0.499999 0.500002 -0.034550
C72   C     C_R   0.500000 0.604146 0.500000 -0.038888
C73   C     C_R   0.767950 0.969703 0.005620 -0.189737
C74   C     C_R   0.025655 0.767611 0.014454 -0.189767
C75   C     C_R   0.232050 0.030284 0.005571 -0.189724
C76   C     C_R   0.974347 0.232389 0.014453 -0.189750
C77   C     C_R   0.767950 0.030284 0.994428 -0.189725
C78   C     C_R   0.025654 0.232389 0.985547 -0.189751
C79   C     C_R   0.232050 0.969704 0.994380 -0.189736
C80   C     C_R   0.974344 0.767611 0.985545 -0.189767
C81   C     C_R   0.267952 0.469688 0.505519 -0.189700
C82   C     C_R   0.522180 0.267476 0.517950 -0.191025
C83   C     C_R   0.732048 0.530309 0.505521 -0.189743
C84   C     C_R   0.473912 0.732372 0.513911 -0.189668
C85   C     C_R   0.267952 0.530309 0.494479 -0.189744
C86   C     C_R   0.526090 0.732371 0.486089 -0.189668
C87   C     C_R   0.732047 0.469688 0.494481 -0.189700
C88   C     C_R   0.477816 0.267477 0.482045 -0.191024
C89   C     C_R   0.732117 0.969411 0.005377 0.146937
C90   C     C_R   0.025900 0.731807 0.014446 0.149094
C91   C     C_R   0.267883 0.030581 0.005312 0.146922
C92   C     C_R   0.974102 0.268193 0.014445 0.149106
C93   C     C_R   0.732117 0.030580 0.994687 0.146923
C94   C     C_R   0.025899 0.268193 0.985555 0.149106
C95   C     C_R   0.267883 0.969412 0.994622 0.146937
C96   C     C_R   0.974099 0.731807 0.985554 0.149094
C97   C     C_R   0.232119 0.469395 0.505267 0.146905
C98   C     C_R   0.522336 0.231675 0.518028 0.150370
C99   C     C_R   0.767881 0.530604 0.505267 0.146896
C100  C     C_R   0.473657 0.768177 0.513888 0.148961
C101  C     C_R   0.232119 0.530603 0.494733 0.146897
C102  C     C_R   0.526345 0.768176 0.486112 0.148960
C103  C     C_R   0.767880 0.469395 0.494732 0.146905
C104  C     C_R   0.477660 0.231676 0.481967 0.150368
C105  C     C_R   0.713860 0.999997 0.000035 -0.011358
C106  C     C_R   0.999999 0.713621 1.000000 -0.010375
C107  C     C_R   0.286140 0.999998 0.999965 -0.011357
C108  C     C_R   0.000001 0.286379 1.000000 -0.010380
C109  C     C_R   0.213861 0.499999 0.500000 -0.011270
C110  C     C_R   0.499998 0.213536 0.499997 -0.012917
C111  C     C_R   0.786139 0.500000 0.499999 -0.011269
C112  C     C_R   0.500001 0.786369 0.500000 -0.010151
C113  C     C_R   0.786017 0.999992 0.000019 0.011014
C114  C     C_R   1.000000 0.785756 0.999999 0.014390
C115  C     C_R   0.213983 0.999993 0.999981 0.011014
C116  C     C_R   0.000001 0.214244 0.000000 0.014393
C117  C     C_R   0.286018 0.499998 0.499998 0.011026
C118  C     C_R   0.499998 0.285657 0.499998 0.015709
C119  C     C_R   0.713982 0.499999 0.500001 0.011026
C120  C     C_R   0.500001 0.714231 0.500000 0.014204
C121  C     C_R   0.499991 0.000005 0.945466 0.818420
C122  C     C_R   0.999999 0.500000 0.945427 0.820160
C123  C     C_R   0.500008 0.000005 0.054534 0.818422
C124  C     C_R   0.000001 0.500000 0.054573 0.820161
C125  C     C_R   1.000000 0.500000 0.445470 0.818470
C126  C     C_R   0.500003 0.000207 0.445422 0.819872
C127  C     C_R   0.000000 0.500000 0.554530 0.818471
C128  C     C_R   0.499997 0.000207 0.554577 0.819877
C129  C     C_R   0.658064 0.993842 0.025101 -0.133070
C130  C     C_R   0.992081 0.657969 0.024735 -0.132269
C131  C     C_R   0.341926 0.006155 0.025045 -0.133073
C132  C     C_R   0.007923 0.342031 0.024735 -0.132255
C133  C     C_R   0.658074 0.006153 0.974954 -0.133073
C134  C     C_R   0.992078 0.342031 0.975264 -0.132256
C135  C     C_R   0.341936 0.993842 0.974899 -0.133070
C136  C     C_R   0.007917 0.657968 0.975264 -0.132270
C137  C     C_R   0.158070 0.493735 0.525056 -0.133155
C138  C     C_R   0.484551 0.157968 0.522218 -0.132546
C139  C     C_R   0.841933 0.506265 0.525055 -0.133097
C140  C     C_R   0.506911 0.842035 0.524940 -0.132235
C141  C     C_R   0.158067 0.506263 0.474945 -0.133098
C142  C     C_R   0.493090 0.842034 0.475060 -0.132237
C143  C     C_R   0.841929 0.493735 0.474944 -0.133155
C144  C     C_R   0.515445 0.157968 0.477777 -0.132546
C145  C     C_R   0.622142 0.993018 0.025271 -0.020216
C146  C     C_R   0.991988 0.622075 0.025017 -0.021746
C147  C     C_R   0.377847 0.006983 0.025229 -0.020215
C148  C     C_R   0.008016 0.377925 0.025017 -0.021745
C149  C     C_R   0.622153 0.006982 0.974771 -0.020214
C150  C     C_R   0.991984 0.377924 0.974982 -0.021743
C151  C     C_R   0.377858 0.993017 0.974729 -0.020216
C152  C     C_R   0.008011 0.622075 0.974982 -0.021745
C153  C     C_R   0.122149 0.492907 0.525231 -0.020200
C154  C     C_R   0.484426 0.122100 0.522441 -0.026513
C155  C     C_R   0.877854 0.507094 0.525230 -0.020221
C156  C     C_R   0.506978 0.877930 0.525223 -0.021776
C157  C     C_R   0.122146 0.507093 0.474769 -0.020220
C158  C     C_R   0.493023 0.877929 0.474776 -0.021774
C159  C     C_R   0.877851 0.492907 0.474768 -0.020199
C160  C     C_R   0.515573 0.122099 0.477555 -0.026513
C161  C     C_R   0.603840 1.000000 0.000016 -0.104930
C162  C     C_R   0.000000 0.603780 1.000000 -0.101258
C163  C     C_R   0.396160 1.000000 0.999983 -0.104931
C164  C     C_R   1.000000 0.396220 1.000000 -0.101260
C165  C     C_R   0.103840 0.500000 0.500000 -0.104955
C166  C     C_R   0.500000 0.103821 0.499999 -0.104722
C167  C     C_R   0.896160 0.500000 0.499999 -0.104956
C168  C     C_R   0.500000 0.896223 0.499999 -0.100974
C169  C     C_R   0.676056 0.999997 0.000031 0.106506
C170  C     C_R   0.999999 0.675906 1.000000 0.108202
C171  C     C_R   0.323943 0.999998 0.999969 0.106506
C172  C     C_R   0.000001 0.324094 1.000000 0.108190
C173  C     C_R   0.176056 0.499999 0.500001 0.106577
C174  C     C_R   0.499997 0.175874 0.499997 0.110002
C175  C     C_R   0.823943 0.500000 0.499999 0.106576
C176  C     C_R   0.500001 0.824091 0.500000 0.108085
C177  C     C_R   0.512822 0.029224 0.690505 0.529315
C178  C     C_R   0.985743 0.527119 0.690326 0.526831
C179  C     C_R   0.487185 0.973564 0.690264 0.525845
C180  C     C_R   0.014257 0.472881 0.690327 0.526820
C181  C     C_R   0.512816 0.973566 0.309736 0.525845
C182  C     C_R   0.985743 0.472880 0.309672 0.526822
C183  C     C_R   0.487176 0.029224 0.309496 0.529312
C184  C     C_R   0.014257 0.527118 0.309675 0.526832
C185  C     C_R   0.012103 0.528149 0.190386 0.526909
C186  C     C_R   0.485094 0.027383 0.190206 0.526920
C187  C     C_R   0.987911 0.471846 0.190383 0.526908
C188  C     C_R   0.514647 0.973705 0.190445 0.527127
C189  C     C_R   0.012089 0.471846 0.809616 0.526910
C190  C     C_R   0.485354 0.973702 0.809554 0.527128
C191  C     C_R   0.987897 0.528149 0.809615 0.526908
C192  C     C_R   0.514904 0.027383 0.809794 0.526918
C193  C     C_R   0.486376 0.973085 0.720006 -0.009383
C194  C     C_R   0.013877 0.472019 0.720074 -0.009258
C195  C     C_R   0.513729 0.029267 0.720254 -0.012607
C196  C     C_R   0.986119 0.527980 0.720073 -0.009272
C197  C     C_R   0.486270 0.029267 0.279746 -0.012606
C198  C     C_R   0.013881 0.527979 0.279928 -0.009271
C199  C     C_R   0.513626 0.973087 0.279994 -0.009384
C200  C     C_R   0.986123 0.472018 0.279925 -0.009258
C201  C     C_R   0.987007 0.471589 0.220128 -0.009893
C202  C     C_R   0.514348 0.973064 0.220196 -0.009317
C203  C     C_R   0.013004 0.528407 0.220131 -0.009903
C204  C     C_R   0.485409 0.028428 0.219949 -0.009435
C205  C     C_R   0.986997 0.528407 0.779870 -0.009902
C206  C     C_R   0.514589 0.028427 0.780051 -0.009435
C207  C     C_R   0.012993 0.471589 0.779871 -0.009893
C208  C     C_R   0.485654 0.973061 0.779803 -0.009317
C209  C     C_R   0.500070 0.001069 0.735060 -0.020079
C210  C     C_R   0.999997 0.499999 0.735003 -0.021024
C211  C     C_R   0.499930 0.001070 0.264940 -0.020079
C212  C     C_R   0.000003 0.499998 0.264997 -0.021024
C213  C     C_R   0.000005 0.499998 0.235059 -0.020526
C214  C     C_R   0.499894 0.000853 0.235002 -0.020921
C215  C     C_R   0.999995 0.499998 0.764941 -0.020526
C216  C     C_R   0.500106 0.000851 0.764998 -0.020921
C217  C     C_R   0.472339 0.945290 0.735000 -0.165512
C218  C     C_R   0.027147 0.443943 0.735197 -0.164599
C219  C     C_R   0.527824 0.056832 0.735500 -0.163690
C220  C     C_R   0.972847 0.556055 0.735194 -0.164566
C221  C     C_R   0.472172 0.056831 0.264501 -0.163691
C222  C     C_R   0.027153 0.556054 0.264807 -0.164566
C223  C     C_R   0.527665 0.945294 0.264999 -0.165513
C224  C     C_R   0.972853 0.443943 0.264802 -0.164599
C225  C     C_R   0.973559 0.443603 0.235247 -0.165297
C226  C     C_R   0.528267 0.945405 0.235443 -0.164698
C227  C     C_R   0.026451 0.556393 0.235252 -0.165284
C228  C     C_R   0.471505 0.056294 0.234947 -0.163913
C229  C     C_R   0.973549 0.556393 0.764749 -0.165285
C230  C     C_R   0.528491 0.056295 0.765054 -0.163912
C231  C     C_R   0.026441 0.443603 0.764751 -0.165298
C232  C     C_R   0.471737 0.945402 0.764556 -0.164697
C233  C     C_R   0.486576 0.028228 0.869785 -0.141841
C234  C     C_R   0.969525 0.506091 0.869580 -0.144310
C235  C     C_R   0.513450 0.972216 0.869660 -0.141776
C236  C     C_R   0.030464 0.493905 0.869582 -0.144338
C237  C     C_R   0.486550 0.972217 0.130339 -0.141779
C238  C     C_R   0.969536 0.493906 0.130418 -0.144341
C239  C     C_R   0.513422 0.028230 0.130215 -0.141845
C240  C     C_R   0.030475 0.506091 0.130420 -0.144312
C241  C     C_R   0.986261 0.527859 0.369738 -0.141333
C242  C     C_R   0.469430 0.006600 0.369585 -0.142014
C243  C     C_R   0.013736 0.472139 0.369740 -0.141314
C244  C     C_R   0.530761 0.996615 0.369541 -0.139912
C245  C     C_R   0.986263 0.472140 0.630260 -0.141315
C246  C     C_R   0.469239 0.996615 0.630459 -0.139924
C247  C     C_R   0.013739 0.527860 0.630262 -0.141333
C248  C     C_R   0.530570 0.006599 0.630415 -0.142025
C249  C     C_R   0.487016 0.028345 0.899340 -0.225711
C250  C     C_R   0.969554 0.506315 0.899131 -0.226361
C251  C     C_R   0.512931 0.971864 0.899221 -0.226259
C252  C     C_R   0.030438 0.493682 0.899133 -0.226353
C253  C     C_R   0.487070 0.971865 0.100779 -0.226260
C254  C     C_R   0.969562 0.493683 0.100867 -0.226355
C255  C     C_R   0.512982 0.028346 0.100660 -0.225711
C256  C     C_R   0.030446 0.506315 0.100869 -0.226362
C257  C     C_R   0.986764 0.528110 0.399294 -0.225834
C258  C     C_R   0.469425 0.006428 0.399143 -0.236860
C259  C     C_R   0.013233 0.471889 0.399296 -0.225855
C260  C     C_R   0.530693 0.995856 0.399081 -0.221689
C261  C     C_R   0.986766 0.471890 0.600704 -0.225855
C262  C     C_R   0.469307 0.995856 0.600919 -0.221707
C263  C     C_R   0.013235 0.528111 0.600706 -0.225836
C264  C     C_R   0.530575 0.006427 0.600858 -0.236873
C265  C     C_R   0.499967 0.000054 0.914298 -0.005145
C266  C     C_R   0.999997 0.499999 0.914197 -0.002114
C267  C     C_R   0.500033 0.000055 0.085702 -0.005144
C268  C     C_R   0.000003 0.499999 0.085803 -0.002114
C269  C     C_R   0.999999 0.499999 0.414308 -0.005230
C270  C     C_R   0.500029 0.000804 0.414183 -0.011385
C271  C     C_R   0.000001 0.500000 0.585692 -0.005229
C272  C     C_R   0.499970 0.000803 0.585817 -0.011392
Cu1   Cu    Cu3+1 0.500000 0.965740 0.000000 0.950673
Cu2   Cu    Cu3+1 0.034260 0.500000 0.000000 0.952695
Cu3   Cu    Cu3+1 0.500000 0.034260 0.000000 0.950705
Cu4   Cu    Cu3+1 0.965740 0.500000 0.000000 0.952695
Cu5   Cu    Cu3+1 0.000000 0.465740 0.500000 0.950420
Cu6   Cu    Cu3+1 0.534260 0.000000 0.500000 0.955639
Cu7   Cu    Cu3+1 0.000000 0.534260 0.500000 0.950520
Cu8   Cu    Cu3+1 0.465740 0.000000 0.500000 0.955646
Cu9   Cu    Cu3+1 0.000000 0.000000 0.971840 0.956510
Cu10  Cu    Cu3+1 0.000000 0.000000 0.028160 0.956510
Cu11  Cu    Cu3+1 0.500000 0.500000 0.471840 0.956582
Cu12  Cu    Cu3+1 0.500000 0.500000 0.528160 0.956583
H1    H     H_    0.461564 0.923456 0.723960 0.188692
H2    H     H_    0.037909 0.422029 0.724258 0.189154
H3    H     H_    0.538580 0.078819 0.724659 0.190067
H4    H     H_    0.962087 0.577969 0.724254 0.189181
H5    H     H_    0.461415 0.078818 0.275342 0.190066
H6    H     H_    0.037913 0.577969 0.275747 0.189181
H7    H     H_    0.538441 0.923460 0.276038 0.188692
H8    H     H_    0.962091 0.422028 0.275740 0.189154
H9    H     H_    0.963314 0.421444 0.224306 0.188817
H10   H     H_    0.539484 0.923649 0.224601 0.189157
H11   H     H_    0.036697 0.578551 0.224313 0.188831
H12   H     H_    0.460260 0.077892 0.223909 0.189503
H13   H     H_    0.963303 0.578552 0.775689 0.188831
H14   H     H_    0.539735 0.077893 0.776092 0.189503
H15   H     H_    0.036686 0.421444 0.775693 0.188817
H16   H     H_    0.460521 0.923645 0.775397 0.189156
H17   H     H_    0.475673 0.049909 0.858648 0.160125
H18   H     H_    0.945689 0.510451 0.858367 0.157810
H19   H     H_    0.524388 0.950629 0.858425 0.160130
H20   H     H_    0.054299 0.489545 0.858370 0.157786
H21   H     H_    0.475614 0.950629 0.141574 0.160130
H22   H     H_    0.945701 0.489547 0.141629 0.157786
H23   H     H_    0.524324 0.049911 0.141352 0.160124
H24   H     H_    0.054311 0.510450 0.141633 0.157809
H25   H     H_    0.975085 0.549369 0.358560 0.160407
H26   H     H_    0.445462 0.010209 0.358381 0.159149
H27   H     H_    0.024913 0.450629 0.358563 0.160411
H28   H     H_    0.554734 0.993191 0.358307 0.155223
H29   H     H_    0.975087 0.450630 0.641437 0.160412
H30   H     H_    0.445266 0.993190 0.641693 0.155223
H31   H     H_    0.024915 0.549370 0.641440 0.160407
H32   H     H_    0.554538 0.010208 0.641620 0.159149
H33   H     H_    0.476581 0.050249 0.910499 0.159973
H34   H     H_    0.945700 0.511232 0.910162 0.161354
H35   H     H_    0.523345 0.949884 0.910292 0.159822
H36   H     H_    0.054293 0.488765 0.910165 0.161350
H37   H     H_    0.476657 0.949884 0.089708 0.159822
H38   H     H_    0.945707 0.488767 0.089835 0.161351
H39   H     H_    0.523416 0.050251 0.089502 0.159973
H40   H     H_    0.054300 0.511231 0.089838 0.161354
H41   H     H_    0.976116 0.549942 0.410413 0.159758
H42   H     H_    0.445396 0.010329 0.410192 0.163947
H43   H     H_    0.023882 0.450057 0.410416 0.159745
H44   H     H_    0.554696 0.991573 0.410076 0.163746
H45   H     H_    0.976118 0.450058 0.589584 0.159746
H46   H     H_    0.445304 0.991573 0.589924 0.163751
H47   H     H_    0.023883 0.549943 0.589587 0.159759
H48   H     H_    0.554604 0.010328 0.589808 0.163952
H49   H     H_    0.891196 0.021927 0.958017 0.153376
H50   H     H_    0.990552 0.890976 0.954921 0.157029
H51   H     H_    0.108779 0.978056 0.958015 0.153365
H52   H     H_    0.009444 0.109023 0.954922 0.157032
H53   H     H_    0.891220 0.978057 0.041985 0.153365
H54   H     H_    0.990556 0.109024 0.045078 0.157032
H55   H     H_    0.108804 0.021928 0.041983 0.153376
H56   H     H_    0.009447 0.890977 0.045078 0.157030
H57   H     H_    0.391206 0.522018 0.458044 0.153410
H58   H     H_    0.497711 0.390925 0.454288 0.157626
H59   H     H_    0.608787 0.477979 0.458048 0.153029
H60   H     H_    0.510427 0.609012 0.455072 0.156884
H61   H     H_    0.391213 0.477979 0.541952 0.153029
H62   H     H_    0.489574 0.609013 0.544929 0.156884
H63   H     H_    0.608794 0.522018 0.541956 0.153410
H64   H     H_    0.502288 0.390924 0.545711 0.157626
H65   H     H_    0.828302 0.022221 0.958209 0.141118
H66   H     H_    0.990629 0.828330 0.954975 0.139259
H67   H     H_    0.171672 0.977758 0.958189 0.141078
H68   H     H_    0.009367 0.171669 0.954976 0.139263
H69   H     H_    0.828328 0.977759 0.041811 0.141079
H70   H     H_    0.990634 0.171670 0.045025 0.139263
H71   H     H_    0.171698 0.022222 0.041791 0.141118
H72   H     H_    0.009370 0.828331 0.045024 0.139259
H73   H     H_    0.328311 0.522316 0.458229 0.141162
H74   H     H_    0.497963 0.328355 0.454330 0.138698
H75   H     H_    0.671682 0.477680 0.458233 0.140982
H76   H     H_    0.510377 0.671672 0.455129 0.139362
H77   H     H_    0.328318 0.477680 0.541767 0.140981
H78   H     H_    0.489625 0.671672 0.544872 0.139362
H79   H     H_    0.671689 0.522317 0.541771 0.141163
H80   H     H_    0.502034 0.328354 0.545667 0.138699
H81   H     H_    0.781768 0.946091 0.009629 0.167473
H82   H     H_    0.045901 0.781299 0.025369 0.165454
H83   H     H_    0.218232 0.053895 0.009587 0.167484
H84   H     H_    0.954102 0.218702 0.025368 0.165454
H85   H     H_    0.781767 0.053894 0.990413 0.167485
H86   H     H_    0.045899 0.218701 0.974633 0.165454
H87   H     H_    0.218232 0.946091 0.990370 0.167472
H88   H     H_    0.954098 0.781298 0.974630 0.165454
H89   H     H_    0.281771 0.446062 0.509472 0.167417
H90   H     H_    0.539822 0.281103 0.531635 0.164506
H91   H     H_    0.718230 0.553935 0.509475 0.167489
H92   H     H_    0.453344 0.718676 0.524400 0.165577
H93   H     H_    0.281770 0.553935 0.490525 0.167489
H94   H     H_    0.546658 0.718675 0.475601 0.165577
H95   H     H_    0.718229 0.446062 0.490527 0.167417
H96   H     H_    0.460175 0.281104 0.468361 0.164505
H97   H     H_    0.672151 0.989008 0.044498 0.157031
H98   H     H_    0.985901 0.672053 0.043868 0.156696
H99   H     H_    0.327832 0.010991 0.044437 0.157060
H100  H     H_    0.014106 0.327948 0.043868 0.156706
H101  H     H_    0.672168 0.010989 0.955562 0.157059
H102  H     H_    0.985895 0.327947 0.956131 0.156705
H103  H     H_    0.327849 0.989007 0.955502 0.157031
H104  H     H_    0.014097 0.672052 0.956131 0.156695
H105  H     H_    0.172164 0.488820 0.544436 0.157010
H106  H     H_    0.472748 0.172025 0.539471 0.155716
H107  H     H_    0.827843 0.511181 0.544435 0.157051
H108  H     H_    0.512333 0.827956 0.544231 0.156793
H109  H     H_    0.172157 0.511179 0.455565 0.157050
H110  H     H_    0.487669 0.827955 0.455768 0.156789
H111  H     H_    0.827836 0.488820 0.455563 0.157010
H112  H     H_    0.527247 0.172024 0.460523 0.155717
N1    N     N_R   0.499953 0.001511 0.676042 -0.461030
N2    N     N_R   0.000001 0.500000 0.675947 -0.458555
N3    N     N_R   0.500046 0.001512 0.323958 -0.461030
N4    N     N_R   1.000000 0.499999 0.324053 -0.458555
N5    N     N_R   0.000007 0.499998 0.176036 -0.460479
N6    N     N_R   0.499878 0.000453 0.175951 -0.458587
N7    N     N_R   0.999993 0.499997 0.823964 -0.460478
N8    N     N_R   0.500122 0.000451 0.824049 -0.458587
O1    O     O_R   0.549920 0.971060 0.999980 -0.586827
O2    O     O_R   0.028940 0.549920 0.999980 -0.585246
O3    O     O_R   0.450080 0.028940 0.999980 -0.586831
O4    O     O_R   0.971060 0.450080 0.999980 -0.585244
O5    O     O_R   0.549920 0.028940 0.000020 -0.586834
O6    O     O_R   0.028940 0.450080 0.000020 -0.585240
O7    O     O_R   0.450080 0.971060 0.000020 -0.586828
O8    O     O_R   0.971060 0.549920 0.000020 -0.585241
O9    O     O_R   0.049920 0.471060 0.499980 -0.586948
O10   O     O_R   0.528940 0.049920 0.499980 -0.581992
O11   O     O_R   0.950080 0.528940 0.499980 -0.586932
O12   O     O_R   0.471060 0.950080 0.499980 -0.584966
O13   O     O_R   0.049920 0.528940 0.500020 -0.586934
O14   O     O_R   0.528940 0.950080 0.500020 -0.584951
O15   O     O_R   0.950080 0.471060 0.500020 -0.586948
O16   O     O_R   0.471060 0.049920 0.500020 -0.581970
O17   O     O_R   0.499990 0.971060 0.958930 -0.587989
O18   O     O_R   0.028940 0.499990 0.958930 -0.589053
O19   O     O_R   0.500010 0.028940 0.958930 -0.588076
O20   O     O_R   0.971060 0.500010 0.958930 -0.589051
O21   O     O_R   0.499990 0.028940 0.041070 -0.588075
O22   O     O_R   0.028940 0.500010 0.041070 -0.589050
O23   O     O_R   0.500010 0.971060 0.041070 -0.587989
O24   O     O_R   0.971060 0.499990 0.041070 -0.589052
O25   O     O_R   0.999990 0.471060 0.458930 -0.587971
O26   O     O_R   0.528940 0.999990 0.458930 -0.584083
O27   O     O_R   0.000010 0.528940 0.458930 -0.587958
O28   O     O_R   0.471060 0.000010 0.458930 -0.591223
O29   O     O_R   0.999990 0.528940 0.541070 -0.587958
O30   O     O_R   0.528940 0.000010 0.541070 -0.591221
O31   O     O_R   0.000010 0.471060 0.541070 -0.587971
O32   O     O_R   0.471060 0.999990 0.541070 -0.584080
O33   O     O_2   0.524383 0.056847 0.676182 -0.553266
O34   O     O_2   0.970866 0.553054 0.675939 -0.567931
O35   O     O_2   0.475639 0.946113 0.675704 -0.566471
O36   O     O_2   0.029135 0.446947 0.675942 -0.567962
O37   O     O_2   0.524364 0.946115 0.324295 -0.566468
O38   O     O_2   0.970865 0.446946 0.324057 -0.567962
O39   O     O_2   0.475614 0.056847 0.323818 -0.553269
O40   O     O_2   0.029133 0.553052 0.324062 -0.567932
O41   O     O_2   0.022890 0.556004 0.175957 -0.565964
O42   O     O_2   0.469776 0.052957 0.175697 -0.568341
O43   O     O_2   0.977125 0.443991 0.175952 -0.565969
O44   O     O_2   0.529960 0.947939 0.176165 -0.568246
O45   O     O_2   0.022875 0.443991 0.824047 -0.565968
O46   O     O_2   0.470043 0.947936 0.823834 -0.568244
O47   O     O_2   0.977110 0.556004 0.824044 -0.565967
O48   O     O_2   0.530221 0.052958 0.824304 -0.568339
O49   O     O_R   0.000010 0.049920 0.976260 -0.586387
O50   O     O_R   0.950080 0.000010 0.976260 -0.584388
O51   O     O_R   0.999990 0.950080 0.976260 -0.586395
O52   O     O_R   0.049920 0.999990 0.976260 -0.584408
O53   O     O_R   0.000010 0.950080 0.023740 -0.586395
O54   O     O_R   0.950080 0.999990 0.023740 -0.584407
O55   O     O_R   0.999990 0.049920 0.023740 -0.586387
O56   O     O_R   0.049920 0.000010 0.023740 -0.584389
O57   O     O_R   0.500010 0.549920 0.476260 -0.586311
O58   O     O_R   0.450080 0.500010 0.476260 -0.583827
O59   O     O_R   0.499990 0.450080 0.476260 -0.586729
O60   O     O_R   0.549920 0.499990 0.476260 -0.584842
O61   O     O_R   0.500010 0.450080 0.523740 -0.586728
O62   O     O_R   0.450080 0.499990 0.523740 -0.584841
O63   O     O_R   0.499990 0.549920 0.523740 -0.586310
O64   O     O_R   0.549920 0.500010 0.523740 -0.583827
I1    I     I_    0.707399 0.921491 0.011879 -0.379623
I2    I     I_    0.066896 0.706846 0.035749 -0.388589
I3    I     I_    0.292600 0.078505 0.011804 -0.379361
I4    I     I_    0.933109 0.293155 0.035746 -0.388533
I5    I     I_    0.707400 0.078504 0.988195 -0.379360
I6    I     I_    0.066892 0.293154 0.964254 -0.388535
I7    I     I_    0.292601 0.921491 0.988121 -0.379623
I8    I     I_    0.933103 0.706845 0.964251 -0.388590
I9    I     I_    0.207404 0.421447 0.511640 -0.380440
I10   I     I_    0.557641 0.206512 0.545253 -0.381299
I11   I     I_    0.792597 0.578552 0.511638 -0.379638
I12   I     I_    0.431970 0.793115 0.534274 -0.389167
I13   I     I_    0.207403 0.578551 0.488362 -0.379637
I14   I     I_    0.568032 0.793114 0.465725 -0.389175
I15   I     I_    0.792596 0.421447 0.488360 -0.380440
I16   I     I_    0.442355 0.206513 0.454740 -0.381308
C273  C     C_R   0.604780 0.984671 0.052245 0.076842
C274  C     C_R   0.587696 0.953216 0.055558 -0.097687
C275  C     C_R   0.573683 0.944216 0.081774 -0.132392
C276  C     C_R   0.577012 0.966329 0.104888 -0.083783
C277  C     C_R   0.593994 0.997663 0.101752 -0.134988
C278  C     C_R   0.607888 0.006834 0.075537 -0.159746
H113  H     H_    0.585868 0.935389 0.038050 0.151382
H114  H     H_    0.560521 0.919960 0.084245 0.143313
H115  H     H_    0.566318 0.959253 0.125196 0.183337
H116  H     H_    0.596453 0.014801 0.119661 0.141247
H117  H     H_    0.621370 0.030992 0.073438 0.143504
C279  C     C_R   0.983976 0.604754 0.052020 0.073311
C280  C     C_R   0.007277 0.606598 0.074644 -0.162509
C281  C     C_R   0.998473 0.593197 0.101113 -0.107625
C282  C     C_R   0.966291 0.578200 0.105192 -0.083650
C283  C     C_R   0.943141 0.575897 0.082659 -0.151116
C284  C     C_R   0.951884 0.589198 0.056130 -0.103712
H118  H     H_    0.031998 0.618848 0.071858 0.159982
H119  H     H_    0.016446 0.594743 0.118535 0.175803
H120  H     H_    0.959360 0.568222 0.125788 0.151155
H121  H     H_    0.918296 0.564104 0.085834 0.135123
H122  H     H_    0.933407 0.588108 0.039028 0.146522
C285  C     C_R   0.395196 0.015345 0.052206 0.076884
C286  C     C_R   0.412264 0.046810 0.055517 -0.097758
C287  C     C_R   0.426260 0.055827 0.081736 -0.131913
C288  C     C_R   0.422927 0.033723 0.104855 -0.083637
C289  C     C_R   0.405963 0.002380 0.101721 -0.135355
C290  C     C_R   0.392088 0.993190 0.075502 -0.159547
H123  H     H_    0.414091 0.064631 0.038005 0.151422
H124  H     H_    0.439407 0.080092 0.084207 0.143570
H125  H     H_    0.433599 0.040817 0.125166 0.183926
H126  H     H_    0.403502 0.985250 0.119634 0.141193
H127  H     H_    0.378617 0.969025 0.073403 0.143491
C291  C     C_R   0.016032 0.395246 0.052020 0.073308
C292  C     C_R   0.992736 0.393403 0.074645 -0.162512
C293  C     C_R   0.001544 0.406804 0.101113 -0.107619
C294  C     C_R   0.033727 0.421801 0.105193 -0.083627
C295  C     C_R   0.056873 0.424103 0.082659 -0.151088
C296  C     C_R   0.048125 0.410803 0.056130 -0.103700
H128  H     H_    0.968014 0.381153 0.071858 0.159979
H129  H     H_    0.983574 0.405257 0.118535 0.175811
H130  H     H_    0.040661 0.431778 0.125789 0.151165
H131  H     H_    0.081719 0.435896 0.085835 0.135148
H132  H     H_    0.066599 0.411893 0.039028 0.146532
C297  C     C_R   0.604804 0.015344 0.947794 0.076884
C298  C     C_R   0.587735 0.046808 0.944483 -0.097761
C299  C     C_R   0.573739 0.055825 0.918264 -0.131910
C300  C     C_R   0.577073 0.033721 0.895145 -0.083637
C301  C     C_R   0.594038 0.002378 0.898278 -0.135356
C302  C     C_R   0.607914 0.993189 0.924497 -0.159546
H133  H     H_    0.585907 0.064628 0.961996 0.151423
H134  H     H_    0.560591 0.080089 0.915793 0.143571
H135  H     H_    0.566401 0.040815 0.874834 0.183923
H136  H     H_    0.596500 0.985249 0.880365 0.141191
H137  H     H_    0.621385 0.969025 0.926595 0.143490
C303  C     C_R   0.983967 0.395245 0.947979 0.073306
C304  C     C_R   0.007263 0.393400 0.925354 -0.162511
C305  C     C_R   0.998454 0.406801 0.898886 -0.107621
C306  C     C_R   0.966273 0.421800 0.894807 -0.083629
C307  C     C_R   0.943128 0.424105 0.917341 -0.151085
C308  C     C_R   0.951876 0.410804 0.943870 -0.103702
H138  H     H_    0.031984 0.381148 0.928140 0.159980
H139  H     H_    0.016424 0.405253 0.881463 0.175808
H140  H     H_    0.959339 0.431778 0.874212 0.151165
H141  H     H_    0.918283 0.435899 0.914166 0.135147
H142  H     H_    0.933403 0.411896 0.960973 0.146534
C309  C     C_R   0.395220 0.984670 0.947755 0.076842
C310  C     C_R   0.412305 0.953214 0.944442 -0.097687
C311  C     C_R   0.426318 0.944214 0.918227 -0.132390
C312  C     C_R   0.422989 0.966326 0.895112 -0.083784
C313  C     C_R   0.406005 0.997658 0.898247 -0.134987
C314  C     C_R   0.392111 0.006831 0.924462 -0.159747
H143  H     H_    0.414133 0.935388 0.961951 0.151382
H144  H     H_    0.439480 0.919958 0.915756 0.143312
H145  H     H_    0.433682 0.959248 0.874804 0.183334
H146  H     H_    0.403546 0.014795 0.880338 0.141247
H147  H     H_    0.378628 0.030989 0.926561 0.143503
C315  C     C_R   0.016024 0.604753 0.947979 0.073310
C316  C     C_R   0.992725 0.606599 0.925354 -0.162510
C317  C     C_R   0.001530 0.593197 0.898886 -0.107622
C318  C     C_R   0.033710 0.578198 0.894807 -0.083650
C319  C     C_R   0.056859 0.575894 0.917342 -0.151116
C320  C     C_R   0.048115 0.589195 0.943871 -0.103713
H148  H     H_    0.968004 0.618850 0.928140 0.159982
H149  H     H_    0.983557 0.594746 0.881463 0.175806
H150  H     H_    0.040642 0.568220 0.874212 0.151154
H151  H     H_    0.081704 0.564100 0.914167 0.135123
H152  H     H_    0.066591 0.588104 0.960974 0.146525
C321  C     C_R   0.104794 0.484459 0.552189 0.076904
C322  C     C_R   0.087669 0.453012 0.555418 -0.097522
C323  C     C_R   0.073622 0.443935 0.581604 -0.131948
C324  C     C_R   0.076972 0.465952 0.604778 -0.083890
C325  C     C_R   0.094019 0.497264 0.601733 -0.135374
C326  C     C_R   0.107933 0.506520 0.575545 -0.159871
H153  H     H_    0.085827 0.435252 0.537864 0.151358
H154  H     H_    0.060420 0.419690 0.584005 0.143307
H155  H     H_    0.066247 0.458818 0.625062 0.182621
H156  H     H_    0.096501 0.514327 0.619689 0.141026
H157  H     H_    0.121450 0.530667 0.573514 0.143458
C327  C     C_R   0.469038 0.104545 0.547008 0.085348
C328  C     C_R   0.488443 0.099489 0.571680 -0.157878
C329  C     C_R   0.473362 0.084507 0.595519 -0.110707
C330  C     C_R   0.438930 0.074462 0.594788 -0.109246
C331  C     C_R   0.419589 0.079185 0.570169 -0.136876
C332  C     C_R   0.434527 0.094345 0.546341 -0.091604
H158  H     H_    0.515070 0.107403 0.572492 0.155074
H159  H     H_    0.488353 0.080646 0.614548 0.174258
H160  H     H_    0.427287 0.062870 0.613258 0.134693
H161  H     H_    0.392965 0.071309 0.569618 0.132551
H162  H     H_    0.419234 0.098323 0.527477 0.138120
C333  C     C_R   0.895213 0.515545 0.552188 0.076864
C334  C     C_R   0.912337 0.546993 0.555416 -0.097472
C335  C     C_R   0.926386 0.556074 0.581602 -0.131878
C336  C     C_R   0.923037 0.534060 0.604777 -0.083851
C337  C     C_R   0.905990 0.502747 0.601734 -0.135310
C338  C     C_R   0.892075 0.493487 0.575546 -0.159852
H163  H     H_    0.914178 0.564750 0.537860 0.151396
H164  H     H_    0.939588 0.580319 0.584002 0.143360
H165  H     H_    0.933762 0.541198 0.625062 0.182659
H166  H     H_    0.903509 0.485688 0.619691 0.141062
H167  H     H_    0.878558 0.469339 0.573516 0.143477
C339  C     C_R   0.513975 0.895256 0.552411 0.073593
C340  C     C_R   0.489822 0.893462 0.574418 -0.161032
C341  C     C_R   0.497652 0.906826 0.601107 -0.108432
C342  C     C_R   0.529718 0.921696 0.606034 -0.080530
C343  C     C_R   0.553723 0.923938 0.584114 -0.151954
C344  C     C_R   0.545931 0.910733 0.557351 -0.106736
H168  H     H_    0.465189 0.881274 0.570986 0.159734
H169  H     H_    0.479022 0.905322 0.618054 0.173631
H170  H     H_    0.535897 0.931625 0.626809 0.154033
H171  H     H_    0.578476 0.935641 0.587942 0.135438
H172  H     H_    0.565036 0.911810 0.540725 0.146491
C345  C     C_R   0.104787 0.515544 0.447811 0.076864
C346  C     C_R   0.087662 0.546991 0.444584 -0.097474
C347  C     C_R   0.073614 0.556072 0.418398 -0.131877
C348  C     C_R   0.076963 0.534058 0.395222 -0.083851
C349  C     C_R   0.094011 0.502745 0.398265 -0.135311
C350  C     C_R   0.107926 0.493486 0.424454 -0.159851
H173  H     H_    0.085821 0.564748 0.462139 0.151397
H174  H     H_    0.060411 0.580316 0.415998 0.143361
H175  H     H_    0.066238 0.541195 0.374937 0.182660
H176  H     H_    0.096493 0.485686 0.380308 0.141061
H177  H     H_    0.121443 0.469338 0.426483 0.143477
C351  C     C_R   0.486025 0.895255 0.447588 0.073586
C352  C     C_R   0.510173 0.893452 0.425578 -0.161030
C353  C     C_R   0.502341 0.906816 0.398889 -0.108431
C354  C     C_R   0.470279 0.921696 0.393966 -0.080541
C355  C     C_R   0.446279 0.923945 0.415889 -0.151949
C356  C     C_R   0.454071 0.910739 0.442651 -0.106739
H178  H     H_    0.534803 0.881257 0.429008 0.159737
H179  H     H_    0.520967 0.905305 0.381940 0.173625
H180  H     H_    0.464099 0.931624 0.373192 0.154027
H181  H     H_    0.421528 0.935654 0.412064 0.135437
H182  H     H_    0.434970 0.911822 0.459279 0.146500
C357  C     C_R   0.895205 0.484458 0.447810 0.076904
C358  C     C_R   0.912331 0.453011 0.444582 -0.097521
C359  C     C_R   0.926379 0.443933 0.418396 -0.131948
C360  C     C_R   0.923028 0.465950 0.395222 -0.083890
C361  C     C_R   0.905980 0.497261 0.398267 -0.135372
C362  C     C_R   0.892066 0.506518 0.424454 -0.159871
H183  H     H_    0.914174 0.435252 0.462136 0.151358
H184  H     H_    0.939582 0.419689 0.415996 0.143306
H185  H     H_    0.933753 0.458815 0.374938 0.182620
H186  H     H_    0.903498 0.514323 0.380311 0.141026
H187  H     H_    0.878548 0.530665 0.426485 0.143458
C363  C     C_R   0.530962 0.104543 0.452990 0.085319
C364  C     C_R   0.511564 0.099499 0.428313 -0.157881
C365  C     C_R   0.526646 0.084515 0.404475 -0.110703
C366  C     C_R   0.561075 0.074456 0.405213 -0.109259
C367  C     C_R   0.580409 0.079167 0.429836 -0.136874
C368  C     C_R   0.565469 0.094329 0.453663 -0.091570
H188  H     H_    0.484939 0.107423 0.427496 0.155089
H189  H     H_    0.511660 0.080662 0.385442 0.174253
H190  H     H_    0.572719 0.062863 0.386744 0.134689
H191  H     H_    0.607030 0.071281 0.430392 0.132546
H192  H     H_    0.580757 0.098297 0.472532 0.138124

loop_
_geom_bond_atom_site_label_1
_geom_bond_atom_site_label_2
_ccdc_geom_bond_type
C12   N5    S    
C337  C338  A    
C79   H87   S    
C183  O39   S    
C130  C146  A    
C106  C170  S    
C311  C312  A    
C299  C300  A    
C143  C175  A    
C84   H92   S    
C234  C250  A    
C3    O7    A    
C223  C226  A    
C18   O54   A    
C107  C171  S    
C253  C267  A    
C18   C65   S    
C201  C225  A    
C134  C172  A    
C157  C345  S    
C183  C197  A    
C105  C169  S    
C238  C254  A    
C32   C66   A    
C195  C209  A    
C37   C69   A    
C336  H165  S    
C34   H58   S    
C305  C306  A    
C109  C173  S    
C346  C347  A    
Cu12  O62   S    
C343  H171  S    
C74   C114  A    
C81   C117  A    
C45   C57   A    
C348  C349  A    
Cu11  O60   S    
C328  C329  A    
C83   C119  A    
Cu3   O19   S    
C145  C273  S    
C52   H76   S    
Cu9   O50   S    
C8    C168  S    
C42   H66   S    
C287  H124  S    
C155  C167  A    
C141  H109  S    
C138  C174  A    
C185  O41   S    
C160  C166  A    
C144  C160  A    
C121  O17   A    
C22   C69   S    
C75   H83   S    
Cu6   O30   S    
C319  H151  S    
C196  C210  A    
C138  C154  A    
C12   C238  A    
C333  C338  A    
C256  C268  A    
C35   C71   A    
C341  H169  S    
C87   H95   S    
C82   C98   A    
C42   C58   A    
C368  H192  S    
C35   H59   S    
C142  C158  A    
C177  O33   S    
C98   I10   S    
C203  C227  A    
C136  C152  A    
C126  C270  S    
C286  H123  S    
C92   I4    S    
C191  O47   S    
C16   C248  A    
Cu4   O20   S    
C247  H31   S    
C21   C72   S    
C9    C233  A    
C316  C317  A    
C84   C100  A    
C91   C107  A    
C334  C335  A    
C25   C41   A    
C291  C296  A    
C340  H168  S    
C263  H47   S    
C148  C291  S    
C362  H187  S    
C96   I8    S    
C124  C268  S    
C192  N8    A    
C29   C45   A    
C148  C164  A    
C348  H175  S    
C1    O5    A    
C294  H130  S    
C73   C89   A    
C137  C173  A    
C322  C323  A    
C197  C211  A    
C53   H77   S    
C296  H132  S    
C326  H157  S    
C140  C176  A    
C131  C171  A    
C301  H136  S    
C281  C282  A    
C24   O64   A    
C137  C153  A    
C274  H113  S    
C202  C214  A    
C217  H1    S    
C140  C156  A    
C87   C103  A    
C192  O48   S    
C141  C157  A    
C303  C308  A    
C27   H51   S    
C302  H137  S    
C49   H73   S    
C56   C62   A    
C304  C305  A    
C75   C115  A    
C82   C118  A    
C219  C230  A    
C361  C362  A    
C94   I6    S    
C179  C193  A    
C191  N7    A    
C21   O63   A    
C289  H126  S    
C88   H96   S    
Cu4   O8    S    
C46   C60   A    
Cu5   O9    S    
C203  C213  A    
C41   H65   S    
C327  C328  A    
C25   H49   S    
C318  H150  S    
C50   H74   S    
C291  C292  A    
Cu12  O64   S    
C345  C346  A    
C308  H142  S    
C64   C120  S    
C124  O22   A    
C10   N7    S    
C228  H12   S    
Cu11  O58   S    
C180  O36   S    
C324  C325  A    
C74   C90   A    
C360  C361  A    
Cu9   O52   S    
Cu1   O17   S    
C349  C350  A    
C307  C308  A    
C104  C110  A    
C145  C161  A    
C222  C227  A    
C78   C94   A    
C188  C202  A    
C276  C277  A    
C159  C167  A    
C299  H134  S    
C353  H179  S    
C277  H116  S    
C274  C275  A    
C121  O19   A    
C122  O20   A    
C363  C364  A    
C54   H78   S    
C47   C59   A    
C359  H184  S    
C138  H106  S    
C12   C240  A    
C300  C301  A    
C20   O56   A    
C156  C339  S    
C144  C174  A    
C181  O37   S    
C306  H140  S    
C132  C172  A    
C258  H42   S    
C33   C49   A    
C247  C263  A    
C142  H110  S    
Cu7   O13   S    
C8    O12   A    
C136  H104  S    
C284  H122  S    
C29   H53   S    
Cu5   O15   S    
C79   C115  A    
C9    C235  A    
C135  H103  S    
C340  C341  A    
C244  C260  A    
C76   H84   S    
C245  C261  A    
C358  C359  A    
C2    C162  S    
C195  C219  A    
C342  C343  A    
C246  H30   S    
C318  C319  A    
C76   C116  A    
C193  C217  A    
C226  H10   S    
C40   C70   A    
C220  C229  A    
C332  H162  S    
C28   C68   A    
C6    O16   A    
C298  C299  A    
C5    O9    A    
C249  H33   S    
C254  C268  A    
C135  C151  A    
C128  O30   A    
C156  C168  A    
C210  C215  A    
C125  O27   A    
C130  H98   S    
C126  O28   A    
C283  C284  A    
C39   H63   S    
C19   C66   S    
C89   I1    S    
C249  C265  A    
C273  C278  A    
C353  C354  A    
C14   C242  A    
C53   C61   A    
C321  C326  A    
C92   C108  A    
C241  H25   S    
C333  C334  A    
C181  N3    A    
C55   C63   A    
C311  H144  S    
C73   H81   S    
C253  H37   S    
C198  C212  A    
C330  H160  S    
C251  C265  A    
C3    O3    A    
C36   C52   A    
C43   C59   A    
C240  H24   S    
C37   C53   A    
C263  C271  A    
C45   H69   S    
C128  C272  S    
C23   C70   S    
C322  H153  S    
C236  C252  A    
C32   H56   S    
C244  H28   S    
C88   C104  A    
C158  C168  A    
C78   H86   S    
C346  H173  S    
C110  C174  S    
C28   H52   S    
C38   C72   A    
C240  C256  A    
C20   O52   A    
C190  O46   S    
C298  H133  S    
C26   C66   A    
C219  H3    S    
C317  H149  S    
C157  C165  A    
C57   C113  S    
C324  H155  S    
C178  C196  A    
C123  O23   A    
C224  H8    S    
C352  H178  S    
C186  N6    A    
C87   C119  A    
C273  C274  A    
C122  O18   A    
C27   C43   A    
C194  C210  A    
C97   C109  A    
C306  C307  A    
C221  H5    S    
C99   C111  A    
C341  C342  A    
C155  C333  S    
C297  C298  A    
C35   C51   A    
C90   I2    S    
C212  C213  A    
C327  C332  A    
C366  C367  A    
C29   C65   A    
C281  H119  S    
C252  C266  A    
C112  C176  S    
C136  C170  A    
C139  H107  S    
C108  C172  S    
C60   C116  S    
C257  C269  A    
C334  H163  S    
C132  H100  S    
C103  I15   S    
C289  C290  A    
C184  N4    A    
Cu8   O32   S    
C31   H55   S    
C10   C236  A    
C26   C42   A    
C101  I13   S    
C21   O57   A    
C7    C167  S    
C323  H154  S    
C39   C71   A    
Cu4   O24   S    
C139  C175  A    
C63   C119  S    
C129  C145  A    
C367  H191  S    
C30   C46   A    
C78   C116  A    
Cu3   O21   S    
C80   C114  A    
C312  H145  S    
C246  C262  A    
C95   I7    S    
C48   C58   A    
Cu8   O12   S    
C17   O49   A    
C317  C318  A    
C128  O32   A    
C33   C69   A    
C150  C164  A    
C139  C155  A    
C222  H6    S    
Cu5   O25   S    
C315  C320  A    
C126  O26   A    
C159  C357  S    
C220  H4    S    
C356  H182  S    
C147  C163  A    
C352  C353  A    
C285  C290  A    
C54   C64   A    
C77   H85   S    
Cu1   Cu3   S    
C48   H72   S    
Cu2   Cu4   S    
C278  H117  S    
C260  C270  A    
C30   C68   A    
C37   H61   S    
C261  C271  A    
Cu9   O49   S    
C295  C296  A    
C262  C272  A    
C323  C324  A    
Cu5   O31   S    
C211  C214  A    
C282  H120  S    
C89   C105  A    
Cu11  Cu12  S    
C58   C114  S    
C130  C170  A    
C86   C120  A    
C23   O61   A    
C248  C264  A    
C320  H152  S    
C88   C118  A    
C36   C72   A    
C177  N1    A    
C286  C287  A    
C181  C199  A    
C345  C350  A    
C6    C166  S    
C30   H54   S    
C293  H129  S    
C98   C110  A    
C242  C258  A    
C347  H174  S    
C102  C112  A    
C360  H185  S    
C260  H44   S    
C224  C225  A    
Cu2   O18   S    
C233  C249  A    
C202  C226  A    
C190  N8    A    
C40   H64   S    
C146  C162  A    
C122  C266  S    
C123  O21   A    
C200  C224  A    
C188  N6    A    
C237  C253  A    
C303  C304  A    
C255  H39   S    
C363  C368  A    
C217  C232  A    
C152  C315  S    
C287  C288  A    
C77   C113  A    
C183  N3    A    
C300  H135  S    
C101  C109  A    
C177  C195  A    
C252  H36   S    
C73   C113  A    
C103  C111  A    
C191  C205  A    
C133  C169  A    
C85   C101  A    
C2    O8    A    
Cu6   O26   S    
C319  C320  A    
C205  C229  A    
C39   C55   A    
C256  H40   S    
C40   C56   A    
Cu7   O11   S    
C243  H27   S    
C275  H114  S    
C135  C171  A    
C34   C70   A    
C342  H170  S    
C259  C269  A    
C3    C163  S    
C232  H16   S    
C153  C165  A    
C344  H172  S    
C1    C161  S    
C264  C272  A    
C31   C47   A    
C301  C302  A    
C32   C48   A    
Cu8   O16   S    
C235  H19   S    
C236  H20   S    
C97   I9    S    
C250  H34   S    
C131  H99   S    
Cu2   O22   S    
C310  H143  S    
Cu1   O1    S    
C10   C234  A    
C49   C61   A    
C351  C356  A    
C61   C117  S    
C292  C293  A    
C182  C200  A    
C365  C366  A    
C250  C266  A    
C283  H121  S    
C133  C149  A    
C355  H181  S    
C142  C176  A    
Cu12  O61   S    
C242  H26   S    
C304  H138  S    
C280  H118  S    
C8    O14   A    
C2    O2    A    
C313  C314  A    
C79   C95   A    
Cu9   O51   S    
C83   C99   A    
C38   C54   A    
C84   C120  A    
Cu1   O23   S    
C234  H18   S    
C51   C63   A    
C178  O34   S    
C36   H60   S    
C85   H93   S    
C201  C213  A    
C26   H50   S    
C95   C107  A    
C366  H190  S    
C151  C309  S    
C305  H139  S    
C199  C223  A    
C15   C247  A    
C100  C112  A    
C16   C246  A    
C52   C64   A    
C279  C284  A    
Cu3   O5    S    
C7    O11   A    
C312  C313  A    
C121  C265  S    
Cu8   O28   S    
C81   H89   S    
C19   O53   A    
C93   I5    S    
C140  H108  S    
C83   H91   S    
C17   O55   A    
C33   H57   S    
C17   C68   S    
C91   I3    S    
C233  H17   S    
Cu10  O54   S    
C336  C337  A    
C192  C206  A    
C80   H88   S    
C137  H105  S    
C365  H189  S    
C182  N4    A    
C354  C355  A    
C160  C363  S    
C335  H164  S    
C185  N5    A    
C154  C327  S    
C187  C201  A    
C197  C221  A    
C297  C302  A    
C134  H102  S    
C185  C203  A    
Cu10  O55   S    
C46   H70   S    
C41   C57   A    
C158  C351  S    
C22   O62   A    
C239  H23   S    
C288  H125  S    
C44   C60   A    
C225  H9    S    
C248  H32   S    
C77   C93   A    
C28   C44   A    
C104  I16   S    
C261  H45   S    
C339  C340  A    
C258  C270  A    
C204  C214  A    
C257  H41   S    
C62   C118  S    
C31   C67   A    
C90   C106  A    
C4    O6    A    
C123  C267  S    
C205  C215  A    
C227  H11   S    
C343  C344  A    
C25   C65   A    
C238  H22   S    
C367  C368  A    
C154  C166  A    
Cu11  O57   S    
Cu2   O2    S    
C7    O15   A    
C350  H177  S    
C152  C162  A    
C325  H156  S    
C5    O13   A    
C314  H147  S    
C186  O42   S    
C44   H68   S    
Cu6   Cu8   S    
C223  H7    S    
C206  C230  A    
C15   N2    S    
C20   C67   S    
C259  H43   S    
C124  O24   A    
C235  C251  A    
C330  C331  A    
C133  H101  S    
C18   O50   A    
C285  C286  A    
C194  C218  A    
C150  C303  S    
C354  H180  S    
C351  C352  A    
Cu12  O63   S    
C221  C228  A    
C94   C108  A    
C200  C212  A    
C241  C257  A    
C111  C175  S    
C129  C169  A    
C198  C222  A    
C146  C279  S    
C316  H148  S    
C143  H111  S    
C295  H131  S    
C179  N1    A    
Cu6   O14   S    
Cu7   O27   S    
C82   H90   S    
C11   C239  A    
C282  C283  A    
C134  C150  A    
C264  H48   S    
C262  H46   S    
C280  C281  A    
C239  C255  A    
C93   C105  A    
C357  C362  A    
C13   C241  A    
C15   C245  A    
C293  C294  A    
C74   H82   S    
Cu3   O3    S    
C347  C348  A    
C4    C164  S    
C11   N6    S    
C229  H13   S    
C14   N3    S    
C5    C165  S    
C80   C96   A    
C294  C295  A    
C38   H62   S    
C9    N8    S    
C19   O51   A    
Cu2   O6    S    
C86   C102  A    
C188  O44   S    
C23   O59   A    
C16   N1    S    
C125  O25   A    
C208  C216  A    
C290  H127  S    
C141  C173  A    
C127  C271  S    
C144  H112  S    
C187  N5    A    
C207  C215  A    
C196  C220  A    
C129  H97   S    
C315  C316  A    
C189  N7    A    
C292  H128  S    
C180  N2    A    
C34   C50   A    
C209  C216  A    
Cu7   O29   S    
C329  C330  A    
C132  C148  A    
C189  O45   S    
Cu10  O53   S    
C27   C67   A    
C331  C332  A    
C275  C276  A    
C361  H186  S    
C251  H35   S    
C309  C310  A    
C243  C259  A    
Cu6   O10   S    
Cu9   Cu10  S    
Cu4   O4    S    
C125  C269  S    
C230  H14   S    
C85   C117  A    
C335  C336  A    
C288  C289  A    
C237  H21   S    
C364  H188  S    
C254  H38   S    
C193  C209  A    
C328  H158  S    
C186  C204  A    
C307  H141  S    
C131  C147  A    
C147  C285  S    
C349  H176  S    
C76   C92   A    
C190  C208  A    
C310  C311  A    
C208  C232  A    
C151  C163  A    
Cu5   Cu7   S    
C276  H115  S    
C50   C62   A    
C14   C244  A    
C204  C228  A    
C187  O43   S    
C102  I14   S    
C180  C194  A    
C355  C356  A    
C22   O58   A    
C359  C360  A    
C182  O38   S    
C13   N4    S    
C206  C216  A    
C96   C106  A    
C338  H167  S    
C56   H80   S    
C47   H71   S    
C178  N2    A    
C313  H146  S    
Cu11  O59   S    
C331  H161  S    
C86   H94   S    
C43   H67   S    
C1    O1    A    
C309  C314  A    
C364  C365  A    
C75   C91   A    
C11   C237  A    
C184  C198  A    
C218  H2    S    
C329  H159  S    
C277  C278  A    
C189  C207  A    
C127  O31   A    
Cu1   O7    S    
C245  H29   S    
C358  H183  S    
Cu10  O56   S    
C231  H15   S    
C207  C231  A    
C13   C243  A    
C81   C97   A    
C339  C344  A    
C337  H166  S    
C279  C280  A    
C6    O10   A    
C179  O35   S    
C199  C211  A    
C143  C159  A    
C321  C322  A    
C4    O4    A    
C99   I11   S    
C218  C231  A    
C127  O29   A    
C184  O40   S    
C149  C161  A    
C24   C71   S    
C59   C115  S    
C325  C326  A    
C55   H79   S    
C100  I12   S    
C255  C267  A    
C153  C321  S    
C24   O60   A    
C357  C358  A    
C51   H75   S    
C149  C297  S    
