data_mof_unit_27355.cif
_audit_creation_date              2012-12-10T18:49:58-0500
_audit_creation_method            fapswitch 2.2
_symmetry_space_group_name_H-M    P1
_symmetry_Int_Tables_number       1
_space_group_crystal_system       triclinic
_cell_length_a                    10.806745
_cell_length_b                    9.921321
_cell_length_c                    10.722556
_cell_angle_alpha                 90.219121
_cell_angle_beta                  91.003156
_cell_angle_gamma                 90.462014
_cell_volume                      1149.41966763

loop_
_atom_site_label
_atom_site_type_symbol
_atom_type_description
_atom_site_fract_x
_atom_site_fract_y
_atom_site_fract_z
_atom_type_partial_charge
C1    C     C_R   0.260371 0.499974 0.499382 0.951016
C2    C     C_3   0.637357 0.488234 0.928723 0.114739
C3    C     C_R   0.063178 0.397975 0.434039 0.040705
C4    C     C_R   0.065446 0.604007 0.561792 0.026626
C5    C     C_R   0.934580 0.395337 0.436698 -0.003262
C6    C     C_R   0.938015 0.602144 0.562876 0.091102
C7    C     C_R   0.872624 0.499243 0.499631 -0.063684
C8    C     C_R   0.127956 0.500850 0.498309 -0.070642
C9    C     C_R   0.581015 0.072332 0.574198 0.073337
C10   C     C_R   0.577554 0.930584 0.578113 0.080527
C11   C     C_R   0.421758 0.927175 0.422683 0.584015
C12   C     C_R   0.421446 0.070583 0.423063 0.593136
C13   C     C_R   0.496757 0.500218 0.258010 1.058514
C14   C     C_R   0.739801 0.500038 0.500053 0.875998
C15   C     C_R   0.496121 0.499840 0.742034 1.087698
C16   C     C_3   0.418926 0.623375 0.071157 1.006016
C17   C     C_3   0.430707 0.369655 0.070354 0.995873
C18   C     C_3   0.430920 0.629832 0.928416 0.923787
C19   C     C_3   0.418201 0.375885 0.927105 0.933531
C20   C     C_3   0.638523 0.515017 0.075331 0.040546
C21   C     C_3   0.498263 0.501704 0.121686 -0.681146
C22   C     C_3   0.497377 0.498956 0.878843 -0.588858
N1    N     N_R   0.499970 0.857200 0.499970 -0.209353
N2    N     N_R   0.499970 0.142800 0.499970 -0.200291
O1    O     O_R   0.316750 0.614620 0.499990 -0.609880
O2    O     O_R   0.316750 0.385380 0.499990 -0.560464
O3    O     O_R   0.499970 0.614670 0.314790 -0.551444
O4    O     O_R   0.499970 0.385330 0.314790 -0.537845
O5    O     O_R   0.683220 0.614710 0.500010 -0.643841
O6    O     O_R   0.683220 0.385290 0.500010 -0.642594
O7    O     O_R   0.500010 0.614660 0.685200 -0.613142
O8    O     O_R   0.500010 0.385340 0.685200 -0.591342
Zn1   Zn    Zn3+2 0.499980 0.653120 0.500000 1.041042
Zn2   Zn    Zn3+2 0.499980 0.346880 0.500000 1.066109
F1    F     F_    0.453591 0.746709 0.122894 -0.555109
F2    F     F_    0.491869 0.253011 0.104405 -0.600569
F3    F     F_    0.342867 0.858937 0.345261 -0.535849
F4    F     F_    0.344518 0.136558 0.343739 -0.548277
F5    F     F_    0.295532 0.605704 0.101841 -0.537437
F6    F     F_    0.313698 0.357601 0.120996 -0.536775
F7    F     F_    0.313738 0.640287 0.875209 -0.586500
F8    F     F_    0.294691 0.391208 0.892551 -0.567316
F9    F     F_    0.492534 0.746912 0.895981 -0.647366
F10   F     F_    0.453248 0.253267 0.876505 -0.591037
N3    N     N_3   0.691310 0.650427 0.103603 -0.407756
H1    H     H_    0.649413 0.728713 0.055301 0.270753
H2    H     H_    0.687637 0.672761 0.198707 0.230253
N4    N     N_3   0.721973 0.419135 0.139390 -0.417723
H3    H     H_    0.745183 0.455840 0.228254 0.193507
H4    H     H_    0.681954 0.325264 0.154274 0.252366
N5    N     N_3   0.718638 0.583917 0.862672 -0.434724
H5    H     H_    0.688493 0.682792 0.864418 0.232528
H6    H     H_    0.807512 0.582811 0.902972 0.229628
N6    N     N_3   0.685821 0.353195 0.898352 -0.406023
H7    H     H_    0.782072 0.351842 0.910693 0.222562
H8    H     H_    0.651893 0.277485 0.955405 0.267196
N7    N     N_3   0.128555 0.299277 0.362903 -0.314132
H9    H     H_    0.106034 0.203110 0.395332 0.222961
H10   H     H_    0.101787 0.306871 0.269091 0.263135
N8    N     N_3   0.128309 0.710683 0.628891 -0.417963
H11   H     H_    0.194644 0.669566 0.688891 0.287045
H12   H     H_    0.169500 0.776485 0.565760 0.241896
N9    N     N_3   0.866869 0.287855 0.375552 -0.445666
H13   H     H_    0.891391 0.196737 0.417444 0.194062
H14   H     H_    0.891417 0.283634 0.281868 0.201552
N10   N     N_3   0.874938 0.704054 0.631480 -0.437387
H15   H     H_    0.897844 0.798012 0.594025 0.227297
H16   H     H_    0.906166 0.702045 0.724268 0.222586
N11   N     N_3   0.675528 0.138557 0.646979 -0.406659
H17   H     H_    0.741189 0.179710 0.588078 0.218684
H18   H     H_    0.637146 0.211143 0.703588 0.280377
N12   N     N_3   0.659174 0.867688 0.665966 -0.414140
H19   H     H_    0.652475 0.764769 0.659224 0.272876
H20   H     H_    0.630107 0.893714 0.755264 0.260614

loop_
_geom_bond_atom_site_label_1
_geom_bond_atom_site_label_2
_ccdc_geom_bond_type
C2    C22   S    
N3    H1    S    
N10   H16   S    
C11   C12   A    
O7    Zn1   S    
C13   O4    A    
C15   O7    A    
C6    C7    A    
C17   F2    S    
C10   N1    A    
C7    C14   S    
C1    C8    S    
N5    H6    S    
C9    C10   A    
C12   N2    A    
C20   N3    S    
C19   F8    S    
C19   F10   S    
C4    C8    A    
C4    N8    S    
O1    Zn1   S    
N9    H14   S    
N10   H15   S    
C2    C20   S    
O4    Zn2   S    
C15   O8    A    
C9    N2    A    
C16   C18   S    
C18   F9    S    
O3    Zn1   S    
C1    O1    A    
N7    H9    S    
C20   N4    S    
C14   O6    A    
C3    N7    S    
N4    H4    S    
N4    H3    S    
C17   C19   S    
C10   N12   S    
C9    N11   S    
N11   H17   S    
N3    H2    S    
C16   F1    S    
C12   F4    S    
C1    O2    A    
N6    H8    S    
N7    H10   S    
C4    C6    A    
N11   H18   S    
C2    N5    S    
O6    Zn2   S    
C16   F5    S    
C13   C21   S    
N9    H13   S    
O5    Zn1   S    
C6    N10   S    
C19   C22   S    
C20   C21   S    
C5    N9    S    
N12   H19   S    
N8    H12   S    
C3    C8    A    
C2    N6    S    
C18   F7    S    
C11   N1    A    
C5    C7    A    
N12   H20   S    
N6    H7    S    
C13   O3    A    
C14   O5    A    
O2    Zn2   S    
C18   C22   S    
C16   C21   S    
C11   F3    S    
C15   C22   S    
N2    Zn2   S    
N1    Zn1   S    
N5    H5    S    
C17   C21   S    
N8    H11   S    
C3    C5    A    
C17   F6    S    
O8    Zn2   S    
