data_mof_unit_5858.cif
_audit_creation_date              2012-12-11T16:45:53-0500
_audit_creation_method            fapswitch 2.2
_symmetry_space_group_name_H-M    P1
_symmetry_Int_Tables_number       1
_space_group_crystal_system       monoclinic
_cell_length_a                    19.776133
_cell_length_b                    17.042914
_cell_length_c                    15.325072
_cell_angle_alpha                 90.0
_cell_angle_beta                  52.61667
_cell_angle_gamma                 90.0
_cell_volume                      4104.22873151

loop_
_atom_site_label
_atom_site_type_symbol
_atom_type_description
_atom_site_fract_x
_atom_site_fract_y
_atom_site_fract_z
_atom_type_partial_charge
C1    C     C_R   0.840008 0.673497 0.046740 -0.114111
C2    C     C_R   0.150484 0.310923 0.070817 0.159696
C3    C     C_R   0.349516 0.810923 0.929183 0.159696
C4    C     C_R   0.650484 0.810923 0.070817 0.159696
C5    C     C_R   0.887946 0.684972 0.305349 0.080960
C6    C     C_R   0.112054 0.684972 0.694651 0.080960
C7    C     C_R   0.387946 0.184972 0.305349 0.080960
C8    C     C_R   0.612054 0.184972 0.694651 0.080960
C9    C     C_R   0.857406 0.717645 0.483996 0.163826
C10   C     C_R   0.142594 0.717645 0.516004 0.163825
C11   C     C_R   0.357406 0.217645 0.483996 0.163826
C12   C     C_R   0.159992 0.673497 0.953259 -0.114111
C13   C     C_R   0.642594 0.217645 0.516004 0.163826
C14   C     C_R   0.871572 0.742387 0.386963 0.030524
C15   C     C_R   0.128428 0.742387 0.613037 0.030524
C16   C     C_R   0.371572 0.242387 0.386963 0.030524
C17   C     C_R   0.628428 0.242387 0.613037 0.030524
C18   C     C_R   0.355894 0.321654 0.379132 -0.202326
C19   C     C_R   0.644106 0.321654 0.620868 -0.202326
C20   C     C_R   0.855894 0.821654 0.379132 -0.202326
C21   C     C_R   0.144106 0.821654 0.620868 -0.202326
C22   C     C_R   0.306766 0.367324 0.474474 -0.198909
C23   C     C_R   0.340008 0.173497 0.046740 -0.114111
C24   C     C_R   0.693234 0.367324 0.525526 -0.198909
C25   C     C_R   0.806766 0.867324 0.474474 -0.198909
C26   C     C_R   0.193234 0.867324 0.525526 -0.198909
C27   C     C_R   0.272621 0.333109 0.577236 0.031524
C28   C     C_R   0.727379 0.333109 0.422764 0.031524
C29   C     C_R   0.772621 0.833109 0.577236 0.031524
C30   C     C_R   0.227379 0.833109 0.422764 0.031524
C31   C     C_R   0.808103 0.762190 0.578185 0.169879
C32   C     C_R   0.191897 0.762190 0.421815 0.169879
C33   C     C_R   0.308103 0.262190 0.578185 0.169879
C34   C     C_R   0.659992 0.173497 0.953259 -0.114111
C35   C     C_R   0.691897 0.262190 0.421815 0.169879
C36   C     C_3   0.768561 0.690614 0.649140 -0.526581
C37   C     C_3   0.231439 0.690614 0.350860 -0.526582
C38   C     C_3   0.268561 0.190614 0.649140 -0.526581
C39   C     C_3   0.731439 0.190614 0.350860 -0.526582
C40   C     C_R   0.848777 0.330735 0.219012 -0.146127
C41   C     C_R   0.151223 0.330735 0.780988 -0.146128
C42   C     C_R   0.348777 0.830735 0.219012 -0.146127
C43   C     C_R   0.651223 0.830735 0.780988 -0.146128
C44   C     C_3   0.822917 0.642155 0.546295 -0.527620
C45   C     C_R   0.807230 0.362129 0.323298 0.073141
C46   C     C_3   0.177083 0.642155 0.453705 -0.527619
C47   C     C_3   0.322917 0.142155 0.546295 -0.527620
C48   C     C_3   0.677083 0.142155 0.453705 -0.527620
C49   C     C_2   0.785197 0.183923 0.956374 -0.199868
C50   C     C_2   0.214803 0.183923 0.043626 -0.199868
C51   C     C_2   0.285197 0.683923 0.956374 -0.199868
C52   C     C_2   0.714803 0.683923 0.043626 -0.199868
C53   C     C_2   0.310484 0.752940 0.903505 -0.202388
C54   C     C_2   0.689516 0.752940 0.096495 -0.202388
C55   C     C_2   0.810484 0.252940 0.903505 -0.202388
C56   C     C_R   0.192770 0.362129 0.676701 0.073141
C57   C     C_2   0.189516 0.252940 0.096495 -0.202388
C58   C     C_R   0.866520 0.388366 0.895480 -0.159861
C59   C     C_R   0.133480 0.388366 0.104520 -0.159861
C60   C     C_R   0.366520 0.888366 0.895480 -0.159861
C61   C     C_R   0.633480 0.888366 0.104520 -0.159861
C62   C     C_R   0.908101 0.607451 0.303044 -0.158476
C63   C     C_R   0.091899 0.607451 0.696956 -0.158476
C64   C     C_R   0.408101 0.107451 0.303044 -0.158476
C65   C     C_R   0.591899 0.107451 0.696956 -0.158476
C66   C     C_R   0.877448 0.298440 0.990879 -0.136723
C67   C     C_R   0.307230 0.862129 0.323298 0.073141
C68   C     C_R   0.122552 0.298440 0.009121 -0.136723
C69   C     C_R   0.377448 0.798440 0.990879 -0.136724
C70   C     C_R   0.622552 0.798440 0.009121 -0.136723
C71   C     C_R   0.896995 0.698472 0.209602 -0.134427
C72   C     C_R   0.103005 0.698472 0.790398 -0.134427
C73   C     C_R   0.396995 0.198472 0.209602 -0.134427
C74   C     C_R   0.603005 0.198472 0.790398 -0.134427
C75   C     C_R   0.858575 0.421615 0.316374 -0.123715
C76   C     C_R   0.141425 0.421615 0.683626 -0.123716
C77   C     C_R   0.358575 0.921615 0.316374 -0.123715
C78   C     C_R   0.692770 0.862129 0.676701 0.073141
C79   C     C_R   0.641425 0.921615 0.683626 -0.123716
C80   C     C_R   0.830146 0.580768 0.950673 -0.156345
C81   C     C_R   0.169854 0.580768 0.049327 -0.156345
C82   C     C_R   0.330146 0.080768 0.950673 -0.156345
C83   C     C_R   0.669854 0.080768 0.049327 -0.156345
C84   C     C_R   0.788750 0.644455 0.021028 0.152945
C85   C     C_R   0.211249 0.644455 0.978972 0.152945
C86   C     C_R   0.288750 0.144455 0.021028 0.152945
C87   C     C_R   0.711249 0.144455 0.978972 0.152945
C88   C     C_R   0.849516 0.310923 0.929183 0.159696
H1    H     H_    0.830386 0.724417 0.094849 0.088980
H2    H     H_    0.127864 0.607532 0.457137 0.188548
H3    H     H_    0.372136 0.107532 0.542863 0.188549
H4    H     H_    0.627864 0.107531 0.457137 0.188548
H5    H     H_    0.784450 0.608603 0.528253 0.199890
H6    H     H_    0.215550 0.608603 0.471747 0.199890
H7    H     H_    0.284450 0.108603 0.528253 0.199890
H8    H     H_    0.715550 0.108603 0.471747 0.199891
H9    H     H_    0.807554 0.163001 0.001555 0.123035
H10   H     H_    0.192445 0.163001 0.998445 0.123035
H11   H     H_    0.307555 0.663001 0.001555 0.123035
H12   H     H_    0.169614 0.724417 0.905151 0.088980
H13   H     H_    0.692445 0.663001 0.998445 0.123035
H14   H     H_    0.289909 0.772991 0.855943 0.125723
H15   H     H_    0.710091 0.772991 0.144057 0.125723
H16   H     H_    0.789909 0.272991 0.855943 0.125723
H17   H     H_    0.210091 0.272991 0.144057 0.125723
H18   H     H_    0.825621 0.286553 0.193240 0.110445
H19   H     H_    0.174379 0.286553 0.806760 0.110445
H20   H     H_    0.325621 0.786553 0.193240 0.110445
H21   H     H_    0.674379 0.786553 0.806760 0.110445
H22   H     H_    0.923165 0.579785 0.352677 0.101807
H23   H     H_    0.330386 0.224417 0.094849 0.088980
H24   H     H_    0.076834 0.579785 0.647323 0.101807
H25   H     H_    0.423165 0.079785 0.352677 0.101807
H26   H     H_    0.576835 0.079785 0.647323 0.101807
H27   H     H_    0.886129 0.242890 0.016838 0.083820
H28   H     H_    0.113871 0.242890 0.983162 0.083820
H29   H     H_    0.386129 0.742890 0.016838 0.083820
H30   H     H_    0.613871 0.742890 0.983162 0.083820
H31   H     H_    0.898898 0.754981 0.176221 0.083020
H32   H     H_    0.101102 0.754981 0.823779 0.083020
H33   H     H_    0.398898 0.254980 0.176221 0.083020
H34   H     H_    0.669614 0.224417 0.905151 0.088980
H35   H     H_    0.601102 0.254980 0.823779 0.083020
H36   H     H_    0.846091 0.458923 0.381602 0.092032
H37   H     H_    0.153909 0.458923 0.618398 0.092032
H38   H     H_    0.346091 0.958923 0.381602 0.092032
H39   H     H_    0.653909 0.958923 0.618398 0.092032
H40   H     H_    0.809381 0.546679 0.911410 0.097937
H41   H     H_    0.190619 0.546679 0.088590 0.097937
H42   H     H_    0.309381 0.046679 0.911410 0.097937
H43   H     H_    0.690619 0.046679 0.088590 0.097937
H44   H     H_    0.371660 0.345643 0.303496 0.125087
H45   H     H_    0.786068 0.683425 0.705277 0.191406
H46   H     H_    0.628340 0.345643 0.696504 0.125087
H47   H     H_    0.871660 0.845643 0.303496 0.125087
H48   H     H_    0.128340 0.845643 0.696504 0.125087
H49   H     H_    0.286828 0.424857 0.468448 0.126438
H50   H     H_    0.713172 0.424857 0.531552 0.126438
H51   H     H_    0.786828 0.924857 0.468448 0.126438
H52   H     H_    0.213172 0.924857 0.531552 0.126438
H53   H     H_    0.699657 0.684095 0.688183 0.200449
H54   H     H_    0.300343 0.684095 0.311816 0.200450
H55   H     H_    0.199657 0.184095 0.688183 0.200449
H56   H     H_    0.213932 0.683425 0.294723 0.191406
H57   H     H_    0.800343 0.184095 0.311816 0.200450
H58   H     H_    0.862263 0.415068 0.834934 0.091376
H59   H     H_    0.137737 0.415068 0.165066 0.091376
H60   H     H_    0.362263 0.915068 0.834934 0.091376
H61   H     H_    0.637737 0.915068 0.165066 0.091376
H62   H     H_    0.286068 0.183425 0.705277 0.191406
H63   H     H_    0.713932 0.183425 0.294723 0.191406
H64   H     H_    0.872136 0.607532 0.542863 0.188549
N1    N     N_R   0.908660 0.628630 0.995840 -0.045994
N2    N     N_R   0.096530 0.421430 0.063580 -0.037671
N3    N     N_R   0.403470 0.921430 0.936420 -0.037671
N4    N     N_R   0.596530 0.921430 0.063580 -0.037671
N5    N     N_R   0.927500 0.575670 0.211370 -0.037021
N6    N     N_R   0.072500 0.575670 0.788630 -0.037021
N7    N     N_R   0.427500 0.075670 0.211370 -0.037021
N8    N     N_R   0.572500 0.075670 0.788630 -0.037021
N9    N     N_R   0.908660 0.365680 0.995820 -0.042968
N10   N     N_R   0.091340 0.365680 0.004180 -0.042968
N11   N     N_R   0.408660 0.865680 0.995820 -0.042968
N12   N     N_R   0.091340 0.628630 0.004160 -0.045994
N13   N     N_R   0.591340 0.865680 0.004180 -0.042968
N14   N     N_R   0.922310 0.631420 0.151980 -0.038613
N15   N     N_R   0.077690 0.631420 0.848020 -0.038613
N16   N     N_R   0.422310 0.131420 0.151980 -0.038613
N17   N     N_R   0.577690 0.131420 0.848020 -0.038613
N18   N     N_R   0.927500 0.426330 0.211360 -0.039798
N19   N     N_R   0.072500 0.426330 0.788640 -0.039798
N20   N     N_R   0.427500 0.926330 0.211360 -0.039798
N21   N     N_R   0.572500 0.926330 0.788640 -0.039798
N22   N     N_R   0.903470 0.570760 0.936440 -0.040420
N23   N     N_R   0.408660 0.128630 0.995840 -0.045994
N24   N     N_R   0.096530 0.570760 0.063560 -0.040420
N25   N     N_R   0.403470 0.070760 0.936440 -0.040420
N26   N     N_R   0.596530 0.070760 0.063560 -0.040420
N27   N     N_R   0.591340 0.128630 0.004160 -0.045994
N28   N     N_R   0.922310 0.368460 0.151950 -0.040518
N29   N     N_R   0.077690 0.368460 0.848050 -0.040518
N30   N     N_R   0.422310 0.868460 0.151950 -0.040518
N31   N     N_R   0.577690 0.868460 0.848050 -0.040518
N32   N     N_R   0.903470 0.421430 0.936420 -0.037671
Ni1   Ni    Ni4+2 0.000000 0.630300 0.000000 0.206586
Ni2   Ni    Ni4+2 0.500000 0.130300 0.000000 0.206586
Ni3   Ni    Ni4+2 0.000000 0.369700 0.000000 0.209465
Ni4   Ni    Ni4+2 0.500000 0.869700 0.000000 0.209465
Ni5   Ni    Ni4+2 0.988090 0.497570 0.863760 0.209966
Ni6   Ni    Ni4+2 0.011910 0.497570 0.136240 0.209966
Ni7   Ni    Ni4+2 0.488090 0.997570 0.863760 0.209966
Ni8   Ni    Ni4+2 0.511910 0.997570 0.136240 0.209966

loop_
_geom_bond_atom_site_label_1
_geom_bond_atom_site_label_2
_ccdc_geom_bond_type
C57   H17   S    
C21   C26   A    
N25   Ni7   S    
C37   H56   S    
N14   Ni1   S    
C65   H26   S    
C79   N21   A    
C83   C87   A    
C67   C77   A    
C80   C84   A    
C60   H60   S    
C36   H45   S    
C51   C85   S    
C4    C70   A    
N26   N27   A    
N29   Ni3   S    
C2    C57   S    
N23   N25   A    
N27   Ni2   S    
N20   Ni8   S    
C19   H46   S    
C6    C72   A    
C22   H49   S    
C44   H64   S    
C12   C85   A    
C56   C76   A    
C25   H51   S    
N17   Ni2   S    
C13   C35   A    
C2    C68   A    
C10   C15   A    
C65   N8    A    
C66   C88   A    
N10   Ni3   S    
C23   N23   A    
C20   C25   A    
N15   Ni1   S    
C39   H63   S    
C63   H24   S    
N7    N16   A    
N19   Ni5   S    
C58   N32   A    
C38   H55   S    
C43   N31   A    
C55   C88   S    
C52   C84   S    
C49   C87   S    
N5    Ni6   S    
C74   N17   A    
C44   H5    S    
C55   H16   S    
C6    C15   S    
C40   N28   A    
C11   C47   S    
C29   C78   S    
C28   C35   A    
C23   C86   A    
C46   H6    S    
C18   H44   S    
C10   C46   S    
N8    N17   A    
N9    Ni3   S    
C82   H42   S    
C41   H19   S    
C21   H48   S    
C30   C67   S    
C3    C60   A    
C3    C69   A    
C74   H35   S    
N2    Ni6   S    
C8    C65   A    
C34   H34   S    
C18   C22   A    
C51   H11   S    
C76   H37   S    
C41   N29   A    
C34   N27   A    
C39   H57   S    
C73   N16   A    
C38   H62   S    
C59   N2    A    
C52   C54   D    
N6    N15   A    
C25   C29   A    
C40   C45   A    
C52   H13   S    
C28   C45   S    
C50   H10   S    
N13   Ni4   S    
N16   Ni2   S    
C37   H54   S    
C43   C78   A    
C75   H36   S    
C81   N24   A    
C14   C20   A    
C54   H15   S    
C11   C33   A    
C7    C73   A    
N12   Ni1   S    
C66   H27   S    
N6    Ni5   S    
C9    C31   A    
C78   C79   A    
C80   H40   S    
C24   H50   S    
C82   C86   A    
C4    C61   A    
C71   N14   A    
C42   N30   A    
C66   N9    A    
N18   N28   A    
N11   Ni4   S    
C1    C84   A    
C6    C63   A    
C76   N19   A    
C35   C39   S    
C9    C14   A    
C41   C56   A    
C83   H43   S    
C82   N25   A    
N28   Ni3   S    
N20   N30   A    
C12   N12   A    
N26   Ni8   S    
C11   C16   A    
N24   Ni6   S    
C62   H22   S    
C53   H14   S    
C72   H32   S    
C75   N18   A    
C8    C74   A    
C5    C14   S    
C62   N5    A    
N30   Ni4   S    
C32   C37   S    
C27   C56   S    
C1    N1    A    
C38   C47   S    
N3    Ni7   S    
C68   H28   S    
N4    Ni8   S    
C16   C18   A    
C7    C16   S    
C26   C30   A    
C73   H33   S    
C22   C27   A    
C69   N11   A    
C81   H41   S    
C72   N15   A    
C70   N13   A    
C61   H61   S    
C61   N4    A    
N2    N10   A    
C40   H18   S    
C36   H53   S    
C79   H39   S    
C9    C44   S    
C1    H1    S    
C64   H25   S    
C48   H8    S    
C83   N26   A    
C4    C54   S    
C2    C59   A    
C50   C57   D    
C47   H3    S    
N7    Ni8   S    
N19   N29   A    
C24   C28   A    
N8    Ni7   S    
C58   C88   A    
N5    N14   A    
C13   C48   S    
C58   H58   S    
C46   H2    S    
C68   N10   A    
C23   H23   S    
N18   Ni6   S    
C26   H52   S    
C33   C38   S    
C71   H31   S    
C45   C75   A    
N3    N11   A    
N9    N32   A    
C19   C24   A    
C60   N3    A    
C80   N22   A    
C29   C31   A    
C49   C55   D    
N31   Ni4   S    
C8    C17   S    
C30   C32   A    
C3    C53   S    
C42   C67   A    
N1    Ni1   S    
N4    N13   A    
C70   H30   S    
C77   N20   A    
N1    N22   A    
C64   N7    A    
C69   H29   S    
C17   C19   A    
N21   Ni7   S    
C5    C62   A    
N12   N24   A    
C34   C87   A    
C20   H47   S    
C7    C64   A    
C12   H12   S    
C36   C44   S    
C50   C86   S    
N22   Ni5   S    
C49   H9    S    
C13   C17   A    
C10   C32   A    
C15   C21   A    
N21   N31   A    
C5    C71   A    
C48   H4    S    
C27   C33   A    
C47   H7    S    
C31   C36   S    
C43   H21   S    
C63   N6    A    
C51   C53   D    
C37   C46   S    
C42   H20   S    
N32   Ni5   S    
C81   C85   A    
C77   H38   S    
C39   C48   S    
N23   Ni2   S    
C59   H59   S    
