data_mof_unit_19551.cif
_audit_creation_date              2012-10-26T20:14:33-0400
_audit_creation_method            fapswitch 2.2
_symmetry_space_group_name_H-M    P1
_symmetry_Int_Tables_number       1
_space_group_crystal_system       triclinic
_cell_length_a                    7.778446
_cell_length_b                    9.096136
_cell_length_c                    17.297946
_cell_angle_alpha                 90.000024
_cell_angle_beta                  85.069512
_cell_angle_gamma                 90.0
_cell_volume                      1219.36668196

loop_
_atom_site_label
_atom_site_type_symbol
_atom_type_description
_atom_site_fract_x
_atom_site_fract_y
_atom_site_fract_z
_atom_type_partial_charge
C1    C     C_R   0.500000 0.779999 0.500000 0.555424
C2    C     C_R   0.414943 0.591592 0.230304 -0.151416
C3    C     C_R   0.573828 0.612567 0.849283 -0.122094
C4    C     C_R   0.426171 0.612567 0.150718 -0.122094
C5    C     C_R   0.437263 0.550366 0.896202 0.025973
C6    C     C_R   0.562736 0.550365 0.103798 0.025973
C7    C     C_R   0.309403 0.470660 0.862506 -0.097999
C8    C     C_R   0.690597 0.470659 0.137494 -0.097999
C9    C     C_R   0.319582 0.446910 0.782251 0.009238
C10   C     C_R   0.680418 0.446909 0.217748 0.009237
C11   C     C_2   0.428485 0.561769 0.980981 -0.136393
C12   C     C_R   0.500000 0.220003 0.500000 0.545536
C13   C     C_2   0.571514 0.561768 0.019019 -0.136393
C14   C     C_3   0.815488 0.348825 0.249274 -0.269542
C15   C     C_3   0.981641 0.433828 0.258824 -0.407900
C16   C     C_3   0.184512 0.348824 0.750726 -0.269542
C17   C     C_3   0.018359 0.433827 0.741176 -0.407901
C18   C     C_1   0.500000 0.934642 0.500000 -0.055586
C19   C     C_1   0.500000 0.065369 0.500000 -0.058342
C20   C     C_R   0.476091 0.498060 0.650548 0.532438
C21   C     C_R   0.523909 0.498060 0.349452 0.532438
C22   C     C_R   0.459771 0.509110 0.735273 0.023938
C23   C     C_R   0.540229 0.509110 0.264726 0.023938
C24   C     C_R   0.585057 0.591592 0.769696 -0.151416
Cu1   Cu    Cu3+1 0.330920 0.500000 0.500000 0.993045
Cu2   Cu    Cu3+1 0.669080 0.500000 0.500000 0.993045
H1    H     H_    0.204362 0.422209 0.899252 0.098173
H2    H     H_    0.077411 0.360098 0.282999 0.152312
H3    H     H_    0.037447 0.475669 0.201752 0.135704
H4    H     H_    0.767888 0.297187 0.305132 0.166343
H5    H     H_    0.845204 0.255748 0.208625 0.127882
H6    H     H_    0.043594 0.528080 0.701021 0.182016
H7    H     H_    0.922589 0.360096 0.717001 0.152312
H8    H     H_    0.962552 0.475668 0.798248 0.135704
H9    H     H_    0.232112 0.297187 0.694868 0.166343
H10   H     H_    0.154797 0.255748 0.791375 0.127882
H11   H     H_    0.795637 0.422208 0.100748 0.098173
H12   H     H_    0.328449 0.678331 0.126138 0.108119
H13   H     H_    0.671550 0.678331 0.873862 0.108120
H14   H     H_    0.691137 0.642305 0.734685 0.125931
H15   H     H_    0.308862 0.642305 0.265315 0.125931
H16   H     H_    0.697713 0.553052 0.987162 0.112579
H17   H     H_    0.302286 0.553052 0.012838 0.112579
H18   H     H_    0.956404 0.528083 0.298979 0.182016
N1    N     N_1   0.923170 0.500000 0.500010 -0.090558
N2    N     N_1   0.076830 0.500000 0.499990 -0.090558
O1    O     O_R   0.357240 0.711600 0.500000 -0.493911
O2    O     O_R   0.642760 0.288400 0.500000 -0.497816
O3    O     O_R   0.642760 0.711600 0.500000 -0.493911
O4    O     O_R   0.357240 0.288400 0.500000 -0.497816
O5    O     O_R   0.340660 0.500000 0.613590 -0.508468
O6    O     O_R   0.659340 0.500000 0.386410 -0.508468
O7    O     O_R   0.626230 0.500000 0.613600 -0.511108
O8    O     O_R   0.373770 0.500000 0.386400 -0.511108

loop_
_geom_bond_atom_site_label_1
_geom_bond_atom_site_label_2
_ccdc_geom_bond_type
C2    C4    A    
Cu1   O5    S    
C11   H17   S    
Cu2   O6    S    
C10   C23   A    
Cu1   O1    S    
C12   O4    A    
Cu2   O2    S    
C14   H5    S    
C12   O2    A    
C15   H2    S    
C3    H13   S    
C16   H9    S    
N1    N2    T    
C16   H10   S    
C6    C13   S    
C11   C13   D    
C1    C18   S    
C16   C17   S    
C17   H7    S    
C14   H4    S    
C12   C19   S    
C4    C6    A    
C13   H16   S    
C24   H14   S    
C9    C16   S    
C4    H12   S    
C15   H18   S    
C15   H3    S    
C20   O5    A    
C5    C7    A    
C21   C23   S    
C5    C11   S    
C21   O8    A    
C22   C24   A    
C9    C22   A    
C17   H8    S    
C20   C22   S    
C2    H15   S    
Cu2   O7    S    
C8    H11   S    
C7    H1    S    
Cu1   O8    S    
C8    C10   A    
C18   C19   T    
C10   C14   S    
Cu2   O3    S    
C2    C23   A    
C7    C9    A    
C17   H6    S    
C14   C15   S    
C1    O1    A    
C6    C8    A    
Cu2   N1    S    
Cu1   Cu2   S    
Cu1   O4    S    
C1    O3    A    
Cu1   N2    S    
C21   O6    A    
C3    C24   A    
C20   O7    A    
C3    C5    A    
