data_mof_unit_55007.cif
_audit_creation_date              2012-12-11T15:48:11-0500
_audit_creation_method            fapswitch 2.2
_symmetry_space_group_name_H-M    P1
_symmetry_Int_Tables_number       1
_space_group_crystal_system       triclinic
_cell_length_a                    6.971479
_cell_length_b                    17.567665
_cell_length_c                    19.486308
_cell_angle_alpha                 108.389341
_cell_angle_beta                  90.49572
_cell_angle_gamma                 90.179835
_cell_volume                      2264.54160137

loop_
_atom_site_label
_atom_site_type_symbol
_atom_type_description
_atom_site_fract_x
_atom_site_fract_y
_atom_site_fract_z
_atom_type_partial_charge
O1    O     O_R   0.494330 0.415710 0.413720 -0.563015
O2    O     O_R   0.819360 0.430070 0.560210 -0.543456
O3    O     O_R   0.994320 0.584290 0.586280 -0.549902
C1    C     C_R   0.651661 0.415681 0.582238 0.710099
O4    O     O_R   0.823740 0.406290 0.412670 -0.529318
O5    O     O_R   0.998730 0.560340 0.437690 -0.536608
C2    C     C_R   0.652006 0.381121 0.386113 0.664740
O6    O     O_R   0.489920 0.439660 0.562310 -0.538825
O7    O     O_3   0.662330 0.550570 0.508380 -0.364501
V1    V     V_3+5 0.935370 0.490620 0.498440 1.401644
O8    O     O_R   0.328720 0.569930 0.439790 -0.550702
C3    C     C_R   0.160117 0.583980 0.417495 0.738502
O9    O     O_R   0.324340 0.593710 0.587330 -0.510502
C4    C     C_R   0.155895 0.619180 0.613339 0.724657
V2    V     V_3+5 0.435940 0.509380 0.501560 1.412072
O10   O     O_3   0.159110 0.449430 0.491620 -0.382911
C5    C     C_R   0.315430 0.729197 0.715337 0.320581
C6    C     C_R   0.305654 0.781762 0.787471 0.355702
C7    C     C_R   0.126133 0.815573 0.814837 -0.150660
C8    C     C_R   0.962628 0.788188 0.771808 -0.265859
H1    H     H_    0.827930 0.818454 0.786712 0.180409
C9    C     C_R   0.970936 0.721665 0.709276 -0.237886
H2    H     H_    0.839011 0.696993 0.681851 0.203272
C10   C     C_R   0.147900 0.690176 0.680285 -0.176097
C11   C     C_R   0.174880 0.591598 0.290429 0.350835
C12   C     C_R   0.152765 0.630195 0.365480 -0.135084
C13   C     C_R   0.120500 0.712778 0.390847 -0.269169
C14   C     C_R   0.108536 0.757589 0.342727 0.052285
C15   C     C_R   0.123122 0.719106 0.267091 0.005594
C16   C     C_R   0.148516 0.634895 0.239872 -0.067056
C17   C     C_R   0.073561 0.840237 0.369375 -0.241125
C18   C     C_R   0.058654 0.885812 0.322345 0.391259
C19   C     C_R   0.089546 0.849638 0.247765 0.020931
C20   C     C_R   0.109623 0.765337 0.219115 0.015673
C21   C     C_R   0.108162 0.727701 0.142994 -0.037001
C22   C     C_R   0.098611 0.642174 0.116390 -0.095867
C23   C     C_R   0.132711 0.596244 0.163460 -0.090321
C24   C     C_R   0.093137 0.896744 0.201604 -0.255032
C25   C     C_R   0.108410 0.861898 0.127121 -0.087743
C26   C     C_R   0.110876 0.777351 0.096729 -0.023951
H3    H     H_    0.104668 0.742212 0.448484 0.121428
H4    H     H_    0.053348 0.869470 0.426783 0.152435
H5    H     H_    0.084052 0.961501 0.223494 0.139279
C27   C     C_R   0.747167 0.197433 0.880988 -0.283434
C28   C     C_R   0.619232 0.132520 0.867165 -0.141990
C29   C     C_R   0.505465 0.111447 0.803561 0.345173
C30   C     C_R   0.535201 0.151272 0.751146 -0.129813
C31   C     C_R   0.647308 0.222345 0.769931 0.004304
C32   C     C_R   0.757371 0.245306 0.834756 -0.006547
C33   C     C_R   0.456575 0.121999 0.680269 -0.116183
C34   C     C_R   0.432383 0.175554 0.639818 0.375290
C35   C     C_R   0.531631 0.249267 0.660752 -0.008128
C36   C     C_R   0.651272 0.269527 0.722999 -0.047887
C37   C     C_R   0.774208 0.336811 0.738019 -0.014931
C38   C     C_R   0.895393 0.356248 0.799695 0.384134
C39   C     C_R   0.879961 0.313601 0.850308 -0.148656
C40   C     C_R   0.524857 0.299977 0.617300 -0.206753
C41   C     C_R   0.647076 0.366546 0.631559 -0.099115
C42   C     C_R   0.773278 0.383852 0.691081 -0.205832
H6    H     H_    0.837309 0.209956 0.928708 0.117045
H7    H     H_    0.432507 0.285519 0.569853 0.149420
H8    H     H_    0.866246 0.435845 0.701696 0.154913
C43   C     C_R   0.793180 0.261336 0.293654 -0.073998
H9    H     H_    0.922709 0.270588 0.325974 0.125557
C44   C     C_R   0.788869 0.199613 0.227295 -0.119844
H10   H     H_    0.916955 0.164395 0.209631 0.114267
C45   C     C_R   0.620346 0.182609 0.185162 -0.086210
C46   C     C_R   0.455887 0.227135 0.211794 -0.149104
H11   H     H_    0.322775 0.212570 0.181160 0.159823
C47   C     C_R   0.457245 0.288726 0.278407 -0.034348
C48   C     C_R   0.632256 0.309696 0.319059 -0.139499
O11   O     O_R   0.774940 0.060470 0.937800 -0.554225
O12   O     O_R   0.440880 0.093730 0.087350 -0.551710
O13   O     O_R   0.266130 0.939630 0.062280 -0.548627
C49   C     C_R   0.610332 0.116005 0.115598 0.681385
O14   O     O_R   0.445480 0.069960 0.939820 -0.528238
O15   O     O_R   0.270770 0.915690 0.913690 -0.504269
C50   C     C_R   0.613033 0.084364 0.917673 0.750804
O16   O     O_R   0.770300 0.084410 0.086380 -0.547168
O17   O     O_3   0.602600 0.949510 0.991670 -0.356096
V3    V     V_3+5 0.329470 0.009370 0.001550 1.466599
O18   O     O_R   0.940760 0.906160 0.912560 -0.539990
C51   C     C_R   0.110653 0.882378 0.885072 0.791212
O19   O     O_R   0.936150 0.929930 0.060100 -0.525586
C52   C     C_R   0.104396 0.915251 0.081575 0.763240
V4    V     V_3+5 0.828930 0.990450 0.998310 1.461591
O20   O     O_3   0.105670 0.050490 0.008320 -0.387723
O21   O     O_3   0.483916 0.723351 0.676894 -0.567126
C53   C     C_3   0.512088 0.795153 0.658895 0.107877
H12   H     H_    0.647780 0.824302 0.684157 0.135793
H13   H     H_    0.398856 0.841381 0.679401 0.073285
C54   C     C_3   0.520343 0.776882 0.576639 -0.321606
H14   H     H_    0.411631 0.730414 0.549758 0.199905
H15   H     H_    0.484402 0.832118 0.563072 0.171150
C55   C     C_3   0.718980 0.749429 0.546803 -0.701026
H16   H     H_    0.826018 0.798237 0.568781 0.194311
H17   H     H_    0.715913 0.733441 0.486928 0.210333
H18   H     H_    0.763705 0.696243 0.561537 0.256450
C56   C     C_2   0.132555 0.742586 0.017428 0.232794
H19   H     H_    0.230697 0.693580 0.996169 0.095527
O22   O     O_2   0.037675 0.766350 0.975441 -0.554386
C57   C     C_2   0.029920 0.599857 0.041484 0.431819
H20   H     H_    0.898519 0.619049 0.021906 0.055725
O23   O     O_2   0.122827 0.545775 0.000676 -0.494829
C58   C     C_2   0.134873 0.507222 0.131422 0.563055
H21   H     H_    0.266196 0.474171 0.130220 0.065556
O24   O     O_2   0.989427 0.470416 0.104763 -0.530246
O25   O     O_3   0.369782 0.050570 0.792277 -0.577065
C59   C     C_3   0.183898 0.084555 0.800403 0.122540
H22   H     H_    0.161088 0.125649 0.767751 0.093667
H23   H     H_    0.160801 0.119469 0.858235 0.103787
C60   C     C_3   0.031004 0.018380 0.777887 -0.293007
H24   H     H_    0.052207 0.976199 0.808756 0.180180
H25   H     H_    0.888399 0.045595 0.791296 0.154208
C61   C     C_3   0.029880 0.972266 0.697258 -0.712523
H26   H     H_    0.012609 0.013987 0.665118 0.227728
H27   H     H_    0.907617 0.929274 0.684373 0.193012
H28   H     H_    0.163778 0.937590 0.682129 0.239246
C62   C     C_2   0.430871 0.033942 0.644695 0.411691
H29   H     H_    0.488522 0.991976 0.669980 0.071109
O26   O     O_2   0.354166 0.006527 0.585414 -0.535150
O27   O     O_3   0.334847 0.151204 0.574388 -0.547763
C63   C     C_3   0.136390 0.161144 0.587927 0.109978
H30   H     H_    0.097798 0.225217 0.598201 0.099245
H31   H     H_    0.091731 0.142837 0.635423 0.104765
C64   C     C_3   0.026337 0.109098 0.521580 -0.262681
H32   H     H_    0.061606 0.128472 0.474101 0.194655
H33   H     H_    0.069309 0.045416 0.509652 0.250066
C65   C     C_3   0.811319 0.115503 0.534558 -0.796204
H34   H     H_    0.776948 0.101038 0.584543 0.230534
H35   H     H_    0.732614 0.072549 0.489118 0.250263
H36   H     H_    0.763147 0.176972 0.539225 0.239210
O28   O     O_3   0.015512 0.422364 0.814425 -0.532342
C66   C     C_3   0.190102 0.398527 0.777586 0.162225
H37   H     H_    0.167342 0.368733 0.718436 0.073775
H38   H     H_    0.267233 0.355557 0.799335 0.123441
C67   C     C_3   0.317791 0.472333 0.789071 -0.265526
H39   H     H_    0.323988 0.506977 0.847598 0.241086
H40   H     H_    0.465256 0.452948 0.771482 0.157616
C68   C     C_3   0.244792 0.526066 0.746472 -0.734023
H41   H     H_    0.230803 0.491451 0.688115 0.215110
H42   H     H_    0.348411 0.575769 0.752219 0.201695
H43   H     H_    0.103530 0.551969 0.767196 0.242673
O29   O     O_3   0.472088 0.807251 0.827958 -0.564803
C69   C     C_3   0.570205 0.741536 0.839484 0.070613
H44   H     H_    0.711122 0.763950 0.864565 0.186187
H45   H     H_    0.599148 0.692585 0.788373 0.137187
C70   C     C_3   0.469062 0.709213 0.893619 -0.353358
H46   H     H_    0.450488 0.759716 0.944423 0.219364
H47   H     H_    0.326452 0.684115 0.871972 0.206623
C71   C     C_3   0.588580 0.643896 0.909641 -0.800240
H48   H     H_    0.618198 0.594596 0.858957 0.236296
H49   H     H_    0.510605 0.618776 0.947081 0.239754
H50   H     H_    0.727006 0.669304 0.935372 0.262452
C72   C     C_2   0.985377 0.342953 0.920694 0.495201
H51   H     H_    0.922426 0.336911 0.969390 0.068977
O30   O     O_2   0.143551 0.374186 0.925413 -0.491988
C73   C     C_2   0.269588 0.325918 0.303557 0.302088
H52   H     H_    0.228481 0.340383 0.359588 0.092589
O31   O     O_2   0.154140 0.337837 0.260604 -0.522601
O32   O     O_3   0.201723 0.509587 0.265506 -0.572664
C74   C     C_3   0.396498 0.488566 0.270197 0.084170
H53   H     H_    0.413815 0.427330 0.231556 0.181164
H54   H     H_    0.428192 0.484541 0.324277 0.156334
C75   C     C_3   0.547227 0.542109 0.250836 -0.483519
H55   H     H_    0.515794 0.548490 0.197038 0.207069
H56   H     H_    0.550298 0.602707 0.291915 0.203364
C76   C     C_3   0.743664 0.505093 0.249114 -0.640917
H57   H     H_    0.787218 0.504275 0.303840 0.229663
H58   H     H_    0.843863 0.542512 0.230730 0.252561
H59   H     H_    0.746769 0.443192 0.210434 0.255576
O33   O     O_3   0.006282 0.965589 0.349304 -0.576127
C77   C     C_3   0.805896 0.971330 0.338690 0.067902
H60   H     H_    0.729349 0.962610 0.385455 0.140268
H61   H     H_    0.749631 0.925550 0.288585 0.117844
C78   C     C_3   0.759567 0.053921 0.332212 -0.312752
H62   H     H_    0.819367 0.101872 0.379337 0.204236
H63   H     H_    0.827207 0.059745 0.282687 0.181657
C79   C     C_3   0.543445 0.065829 0.327801 -0.804191
H64   H     H_    0.481195 0.020068 0.279473 0.229491
H65   H     H_    0.514825 0.126267 0.323418 0.229883
H66   H     H_    0.472565 0.061157 0.377178 0.255399

loop_
_geom_bond_atom_site_label_1
_geom_bond_atom_site_label_2
_ccdc_geom_bond_type
C27   C32   A    
C38   C39   A    
C43   C44   A    
C75   H55   S    
C17   H4    S    
C72   O30   D    
C5    O21   S    
C7    C8    A    
C70   C71   S    
C1    O6    A    
C66   C67   S    
C60   H25   S    
C69   H44   S    
C55   H18   S    
O18   V4    S    
C63   H30   S    
C28   C29   A    
C35   C36   A    
C67   H40   S    
C12   C13   A    
C64   H32   S    
C22   C23   A    
O14   C50   A    
C6    C7    A    
C59   H23   S    
C2    C48   S    
C24   C25   A    
O16   V4    S    
C63   H31   S    
O15   C51   A    
V2    O10   S    
O25   C59   S    
C22   C57   S    
C20   C21   A    
C71   H50   S    
C4    C10   S    
C40   H7    S    
O17   V4    S    
C29   C30   A    
O8    V2    S    
C76   H59   S    
C21   C22   A    
C11   O32   S    
C46   H11   S    
C61   H27   S    
C29   O25   S    
C5    C6    A    
O11   C50   A    
C71   H48   S    
C68   H43   S    
C78   H62   S    
C47   C48   A    
O1    V2    S    
C53   H13   S    
O7    V1    S    
C65   H36   S    
C77   H61   S    
C18   O33   S    
C75   H56   S    
O9    C4    A    
C73   O31   D    
O12   C49   A    
C26   C56   S    
C39   C72   S    
C7    C51   S    
O12   V3    S    
C60   H24   S    
C69   H45   S    
O32   C74   S    
C30   C33   A    
C74   H54   S    
C37   C42   A    
C62   O26   D    
C31   C36   A    
C67   C68   S    
C5    C10   A    
C43   H9    S    
C45   C46   A    
O19   C52   A    
C59   C60   S    
C53   H12   S    
C25   C26   A    
O4    C2    A    
V4    O20   S    
O17   V3    S    
C63   C64   S    
C66   H38   S    
C64   C65   S    
C44   C45   A    
C41   C42   A    
C77   H60   S    
C15   C20   A    
C54   C55   S    
C24   H5    S    
C33   C62   S    
C16   C23   A    
C3    C12   S    
C47   C73   S    
O2    C1    A    
C14   C17   A    
C23   C58   S    
C15   C16   A    
C74   C75   S    
C58   O24   D    
C13   H3    S    
C30   C31   A    
O15   V3    S    
C62   H29   S    
C61   H28   S    
C8    H1    S    
C54   H15   S    
C33   C34   A    
V3    O20   S    
C68   H41   S    
C53   C54   S    
C57   O23   D    
C28   C50   S    
O3    C4    A    
C70   H47   S    
C76   H57   S    
C56   O22   D    
C43   C48   A    
C44   H10   S    
O6    V2    S    
C75   C76   S    
O9    V2    S    
C73   H52   S    
C9    C10   A    
C45   C49   S    
C78   C79   S    
C8    C9    A    
O13   V3    S    
O2    V1    S    
C72   H51   S    
C69   C70   S    
O33   C77   S    
C65   H34   S    
C67   H39   S    
C77   C78   S    
C11   C16   A    
C37   C38   A    
C14   C15   A    
C42   H8    S    
C64   H33   S    
O1    C2    A    
C17   C18   A    
C27   C28   A    
O19   V4    S    
O29   C69   S    
O14   V3    S    
O5    V1    S    
O11   V4    S    
O8    C3    A    
C55   H17   S    
C36   C37   A    
C66   H37   S    
C68   H42   S    
C74   H53   S    
C32   C39   A    
C58   H21   S    
C19   C24   A    
C56   H19   S    
C18   C19   A    
C79   H66   S    
C6    O29   S    
C21   C26   A    
C11   C12   A    
C34   C35   A    
O3    V1    S    
V1    O10   S    
C59   H22   S    
O5    C3    A    
C40   C41   A    
O28   C66   S    
C27   H6    S    
C31   C32   A    
C76   H58   S    
C54   H14   S    
C19   C20   A    
C70   H46   S    
C71   H49   S    
O13   C52   A    
O7    V2    S    
C57   H20   S    
C38   O28   S    
C35   C40   A    
C79   H64   S    
O4    V1    S    
O21   C53   S    
C46   C47   A    
O18   C51   A    
C1    C41   S    
C13   C14   A    
C34   O27   S    
C25   C52   S    
C9    H2    S    
C79   H65   S    
O27   C63   S    
C49   O16   A    
C60   C61   S    
C55   H16   S    
C61   H26   S    
C78   H63   S    
C65   H35   S    
