data_mof_unit_23957.cif
_audit_creation_date              2013-03-05T15:44:50-0500
_audit_creation_method            fapswitch 2.2
_symmetry_space_group_name_H-M    P1
_symmetry_Int_Tables_number       1
_space_group_crystal_system       triclinic
_cell_length_a                    15.712261
_cell_length_b                    10.693924
_cell_length_c                    10.157787
_cell_angle_alpha                 89.796741
_cell_angle_beta                  89.688911
_cell_angle_gamma                 90.712181
_cell_volume                      1706.60136774

loop_
_atom_site_label
_atom_site_type_symbol
_atom_site_description
_atom_site_fract_x
_atom_site_fract_y
_atom_site_fract_z
_atom_type_partial_charge
O1    O     O_R   0.499990 0.319060 0.613040 -0.575392
O2    O     O_R   0.500010 0.319100 0.386900 -0.546460
C1    C     C_R   0.494939 0.262444 0.500408 0.866301
O3    O     O_R   0.376760 0.499970 0.613050 -0.574224
O4    O     O_R   0.376790 0.500010 0.386910 -0.538790
C2    C     C_R   0.338380 0.499363 0.500327 0.909858
Zn1   Zn    Zn3+2 0.499980 0.499970 0.650990 1.121456
Zn2   Zn    Zn3+2 0.500020 0.500030 0.349010 1.187373
O5    O     O_R   0.499990 0.680900 0.613100 -0.563073
O6    O     O_R   0.500010 0.680940 0.386960 -0.567579
O7    O     O_R   0.623210 0.499990 0.613090 -0.621999
O8    O     O_R   0.623240 0.500030 0.386950 -0.571013
C3    C     C_R   0.498103 0.736734 0.499514 0.981220
C4    C     C_R   0.661685 0.500348 0.499676 0.876667
C5    C     C_3   0.969864 0.396513 0.550226 -0.249713
C6    C     C_3   0.027158 0.411720 0.427293 0.388837
H1    H     H_    0.943720 0.306726 0.589129 0.205675
H2    H     H_    0.949835 0.531583 0.272193 0.226387
C7    C     C_1   0.249620 0.500712 0.501200 0.010035
C8    C     C_1   0.750619 0.502632 0.498774 -0.058076
C9    C     C_3   0.027495 0.491196 0.625965 -0.254040
C10   C     C_3   0.083654 0.504663 0.501680 -0.110461
C11   C     C_3   0.973475 0.599305 0.573136 0.279794
C12   C     C_3   0.916829 0.506675 0.499041 -0.062809
C13   C     C_3   0.030240 0.613299 0.451179 0.339439
C14   C     C_3   0.972959 0.520271 0.374572 -0.284289
C15   C     C_1   0.174422 0.502446 0.501819 0.158056
C16   C     C_1   0.825941 0.504841 0.498399 0.119240
H3    H     H_    0.050892 0.480929 0.728313 0.230383
C17   C     C_2   0.447971 0.930866 0.409707 0.303114
C18   C     C_2   0.496896 0.868919 0.495430 -0.323550
H4    H     H_    0.544780 0.917187 0.554089 0.160357
C19   C     C_2   0.468836 0.062150 0.393966 0.128387
C20   C     C_2   0.465429 0.134105 0.502986 -0.041552
C21   C     C_2   0.491243 0.596131 0.929119 0.396745
N1    N     N_2   0.500900 0.501330 0.852150 -0.208077
H5    H     H_    0.544244 0.437035 0.885035 0.181878
C22   C     C_2   0.523291 0.590674 0.066631 0.339696
N2    N     N_2   0.500930 0.501360 0.147810 -0.028538
S1    S     S_3+6 0.064865 0.285316 0.330115 0.095957
O9    O     O_2   0.121472 0.335920 0.222269 -0.195255
O10   O     O_2   0.114658 0.197214 0.414733 -0.232572
O11   O     O_3   0.981924 0.208472 0.263033 -0.481231
H6    H     H_    0.946960 0.179595 0.338947 0.357939
N3    N     N_R   0.423275 0.089464 0.621492 0.208854
O12   O     O_R   0.458579 0.105199 0.735937 -0.253806
O13   O     O_R   0.347472 0.039328 0.615665 -0.278268
S2    S     S_3+6 0.428593 0.725891 0.885542 0.171906
O14   O     O_2   0.485021 0.828647 0.831800 -0.207782
O15   O     O_2   0.362780 0.690261 0.785428 -0.228384
O16   O     O_3   0.378995 0.778233 0.021203 -0.452577
H7    H     H_    0.348077 0.853385 0.991689 0.429491
S3    S     S_3+6 0.594787 0.711613 0.112032 0.101500
O17   O     O_2   0.545891 0.817700 0.170321 -0.222561
O18   O     O_2   0.659346 0.666700 0.208881 -0.278824
O19   O     O_3   0.646044 0.763549 0.976306 -0.511488
H8    H     H_    0.678510 0.838417 0.005315 0.416133
S4    S     S_3+6 0.423447 0.391653 0.096974 0.161106
O20   O     O_2   0.354346 0.454660 0.020253 -0.247256
O21   O     O_2   0.464006 0.293410 0.012844 -0.238354
O22   O     O_3   0.376228 0.317181 0.223978 -0.475702
H9    H     H_    0.336207 0.256400 0.183514 0.411072
S5    S     S_3+6 0.071960 0.756841 0.386692 0.140546
O23   O     O_2   0.130786 0.815469 0.485679 -0.180397
O24   O     O_2   0.120192 0.731384 0.261680 -0.198574
O25   O     O_3   0.991202 0.853962 0.355267 -0.491783
H10   H     H_    0.018856 0.932737 0.324885 0.419550
N4    N     N_R   0.944682 0.703488 0.653383 0.250341
O26   O     O_R   0.000028 0.772774 0.715025 -0.266797
O27   O     O_R   0.864037 0.727251 0.664974 -0.330521
N5    N     N_R   0.375696 0.876729 0.342133 0.279000
O28   O     O_R   0.337203 0.941557 0.252225 -0.262782
O29   O     O_R   0.337276 0.777350 0.388405 -0.331891
N6    N     N_R   0.514380 0.098806 0.276346 0.254436
O30   O     O_R   0.484160 0.067900 0.161916 -0.212906
O31   O     O_R   0.593743 0.134272 0.284197 -0.349381

loop_
_geom_bond_atom_site_label_1
_geom_bond_atom_site_label_2
_geom_bond_distance
_ccdc_geom_bond_type
S5    O24   1.502683 D    
Zn1   N1    2.043572 S    
C21   N1    1.292378 D    
H2    C14   1.110152 S    
C17   N5    1.445981 S    
N3    O12   1.301341 A    
Zn1   O7    1.972069 S    
C2    C7    1.394853 S    
N6    O31   1.301799 A    
N1    H5    1.029860 S    
C12   C14   1.543012 S    
C22   N2    1.303295 D    
O7    C4    1.298077 A    
S4    O21   1.502419 D    
C5    C6    1.542362 S    
O19   H8    0.990562 S    
Zn1   O5    1.971418 S    
C13   S5    1.782766 S    
N3    O13   1.301792 A    
O5    C3    1.297893 A    
S2    O16   1.680537 S    
N4    O26   1.300180 A    
C10   C13   1.530304 S    
C11   C12   1.526604 S    
Zn2   N2    2.043718 S    
C7    C15   1.181889 T    
S4    O22   1.678278 S    
S1    O10   1.502805 D    
O25   H10   0.990602 S    
S5    O25   1.680906 S    
C9    C10   1.541620 S    
O3    Zn1   1.976100 S    
C21   S2    1.767704 S    
S3    O18   1.499012 D    
C6    C14   1.544238 S    
N6    O30   1.300226 A    
O16   H7    0.990625 S    
C4    C8    1.397249 S    
C21   C22   1.488569 S    
O3    C2    1.297005 A    
N5    O29   1.300841 A    
C8    C16   1.183403 T    
C1    C20   1.443292 S    
S4    O20   1.504592 D    
S3    O17   1.499778 D    
N2    S4    1.760909 S    
C9    H3    1.110121 S    
O1    C1    1.298659 A    
C11   N4    1.457859 S    
O11   H6    0.990596 S    
C18   H4    1.088534 S    
C17   C18   1.343071 D    
Zn2   O8    1.976102 S    
S1    O11   1.680742 S    
C19   C20   1.351939 D    
C20   N3    1.447421 S    
C5    C12   1.541851 S    
C6    S1    1.782044 S    
Zn2   O6    1.974012 S    
S2    O14   1.502612 D    
O8    C4    1.297505 A    
C10   C15   1.426675 S    
C9    C11   1.539442 S    
S3    O19   1.682028 S    
C5    H1    1.110206 S    
S1    O9    1.502411 D    
C6    C10   1.528875 S    
C17   C19   1.445847 S    
O1    Zn1   1.974013 S    
C3    C18   1.414413 S    
O2    Zn2   1.971420 S    
C12   C16   1.428001 S    
O6    C3    1.291872 A    
O4    Zn2   1.972070 S    
O2    C1    1.302178 A    
C13   C14   1.547927 S    
N5    O28   1.300924 A    
O4    C2    1.297617 A    
C22   S3    1.766648 S    
S2    O15   1.501007 D    
C11   C13   1.528373 S    
O22   H9    0.990657 S    
S5    O23   1.502851 D    
C19   N6    1.439999 S    
C5    C9    1.557998 S    
N4    O27   1.300236 A    
