data_mof_unit_13241.cif
_audit_creation_date              2012-12-11T14:13:19-0500
_audit_creation_method            fapswitch 2.2
_symmetry_space_group_name_H-M    P1
_symmetry_Int_Tables_number       1
_space_group_crystal_system       triclinic
_cell_length_a                    17.614024
_cell_length_b                    17.515814
_cell_length_c                    17.431716
_cell_angle_alpha                 90.34775
_cell_angle_beta                  89.999805
_cell_angle_gamma                 90.0
_cell_volume                      5378.00313504

loop_
_atom_site_label
_atom_site_type_symbol
_atom_type_description
_atom_site_fract_x
_atom_site_fract_y
_atom_site_fract_z
_atom_type_partial_charge
C1    C     C_R   0.605212 0.303266 0.097067 -0.147983
C2    C     C_R   0.683437 0.594075 0.127790 -0.177074
C3    C     C_R   0.395721 0.697468 0.095204 -0.186445
C4    C     C_R   0.319260 0.410506 0.131518 -0.168657
C5    C     C_R   0.606286 0.696117 0.901999 -0.151649
C6    C     C_R   0.696481 0.394177 0.903397 -0.147933
C7    C     C_R   0.407361 0.313007 0.875865 -0.172013
C8    C     C_R   0.314679 0.594881 0.875248 -0.171392
C9    C     C_R   0.106288 0.803885 0.598008 -0.151640
C10   C     C_R   0.196480 0.105824 0.596602 -0.147943
C11   C     C_R   0.907361 0.186996 0.624131 -0.172010
C12   C     C_R   0.814694 0.905127 0.624781 -0.171395
C13   C     C_R   0.105212 0.196735 0.402934 -0.147976
C14   C     C_R   0.183413 0.905949 0.372173 -0.177031
C15   C     C_R   0.895723 0.802533 0.404788 -0.186455
C16   C     C_R   0.819259 0.089494 0.368482 -0.168647
C17   C     C_R   0.590635 0.680876 0.132415 0.025817
C18   C     C_R   0.306076 0.610819 0.100655 0.046949
C19   C     C_R   0.408398 0.320355 0.132689 0.025249
C20   C     C_R   0.694487 0.390993 0.100292 0.026509
C21   C     C_R   0.608612 0.304992 0.898861 0.027339
C22   C     C_R   0.316912 0.400649 0.872486 0.032246
C23   C     C_R   0.405463 0.683006 0.871687 0.028236
C24   C     C_R   0.693961 0.606205 0.896581 0.022906
C25   C     C_R   0.108611 0.195009 0.601139 0.027334
C26   C     C_R   0.816910 0.099357 0.627512 0.032251
C27   C     C_R   0.905483 0.817006 0.628335 0.028234
C28   C     C_R   0.193957 0.893802 0.603433 0.022903
C29   C     C_R   0.090620 0.819139 0.367566 0.025826
C30   C     C_R   0.806077 0.889182 0.399338 0.046946
C31   C     C_R   0.908397 0.179646 0.367312 0.025247
C32   C     C_R   0.194489 0.109009 0.399711 0.026533
C33   C     C_R   0.680328 0.314786 0.111761 0.072968
C34   C     C_R   0.657451 0.657526 0.166466 0.068642
C35   C     C_R   0.321548 0.687762 0.111401 0.075719
C36   C     C_R   0.343903 0.346680 0.169499 0.073468
C37   C     C_R   0.681158 0.682386 0.884571 0.070592
C38   C     C_R   0.684501 0.318780 0.887313 0.071489
C39   C     C_R   0.341947 0.333010 0.840171 0.071681
C40   C     C_R   0.337983 0.660023 0.838921 0.073534
C41   C     C_R   0.181157 0.817622 0.615447 0.070588
C42   C     C_R   0.184500 0.181221 0.612685 0.071508
C43   C     C_R   0.841946 0.166998 0.659823 0.071679
C44   C     C_R   0.838015 0.839994 0.661121 0.073555
C45   C     C_R   0.180328 0.185215 0.388240 0.072940
C46   C     C_R   0.157419 0.842505 0.333491 0.068619
C47   C     C_R   0.821552 0.812240 0.388587 0.075730
C48   C     C_R   0.843901 0.153321 0.330502 0.073465
C49   C     C_2   0.718347 0.806164 0.835730 -0.138438
C50   C     C_2   0.263712 0.656735 0.723023 -0.127915
C51   C     C_2   0.346550 0.258626 0.723147 -0.131823
C52   C     C_2   0.809062 0.284386 0.837830 -0.140570
C53   C     C_2   0.714364 0.190232 0.162583 -0.132614
C54   C     C_2   0.261032 0.349336 0.280961 -0.126865
C55   C     C_2   0.199149 0.746033 0.145059 -0.114399
C56   C     C_2   0.661465 0.709273 0.295130 -0.104150
C57   C     C_2   0.214366 0.309767 0.337418 -0.132646
C58   C     C_2   0.761028 0.150664 0.219044 -0.126862
C59   C     C_2   0.699159 0.753970 0.354914 -0.114414
C60   C     C_2   0.161444 0.790739 0.204832 -0.104147
C61   C     C_2   0.218365 0.693846 0.664285 -0.138490
C62   C     C_2   0.763695 0.843278 0.776994 -0.127938
C63   C     C_2   0.846551 0.241381 0.776847 -0.131813
C64   C     C_2   0.309062 0.215619 0.662165 -0.140556
C65   C     C_2   0.737870 0.736763 0.859424 -0.187507
C66   C     C_2   0.296883 0.698022 0.778692 -0.182968
C67   C     C_2   0.305372 0.289034 0.780351 -0.187596
C68   C     C_2   0.740072 0.263083 0.860970 -0.179206
C69   C     C_2   0.735762 0.258245 0.135909 -0.178667
C70   C     C_2   0.304136 0.309462 0.231492 -0.186340
C71   C     C_2   0.274282 0.750507 0.138138 -0.212210
C72   C     C_2   0.696842 0.695455 0.228275 -0.185128
C73   C     C_2   0.235763 0.241757 0.364098 -0.178671
C74   C     C_2   0.804132 0.190539 0.268513 -0.186328
C75   C     C_2   0.774290 0.749497 0.361842 -0.212204
C76   C     C_2   0.196815 0.804574 0.271686 -0.185110
C77   C     C_2   0.237869 0.763261 0.640623 -0.187522
C78   C     C_2   0.796938 0.801993 0.721368 -0.182971
C79   C     C_2   0.805373 0.210980 0.719639 -0.187595
C80   C     C_2   0.240071 0.236920 0.639026 -0.179191
H1    H     H_    0.578900 0.248665 0.089505 0.124639
H2    H     H_    0.739131 0.570067 0.132575 0.142866
H3    H     H_    0.421399 0.751693 0.082950 0.140073
H4    H     H_    0.265491 0.437481 0.139415 0.144967
H5    H     H_    0.581602 0.751519 0.911898 0.129389
H6    H     H_    0.750907 0.419747 0.913958 0.128036
H7    H     H_    0.432668 0.257688 0.873615 0.150379
H8    H     H_    0.258372 0.571972 0.873157 0.141439
H9    H     H_    0.081610 0.748480 0.588114 0.129400
H10   H     H_    0.250906 0.080253 0.586046 0.127994
H11   H     H_    0.932671 0.242314 0.626382 0.150374
H12   H     H_    0.758386 0.928035 0.626886 0.141421
H13   H     H_    0.078902 0.251336 0.410500 0.124641
H14   H     H_    0.239098 0.929972 0.367354 0.142915
H15   H     H_    0.921401 0.748307 0.417038 0.140070
H16   H     H_    0.765490 0.062518 0.360586 0.144966
H17   H     H_    0.664329 0.831751 0.850689 0.136469
H18   H     H_    0.265640 0.595079 0.723663 0.139537
H19   H     H_    0.407971 0.262162 0.723262 0.140045
H20   H     H_    0.833807 0.338377 0.854937 0.137195
H21   H     H_    0.658119 0.167696 0.151932 0.139022
H22   H     H_    0.253847 0.410538 0.274935 0.134231
H23   H     H_    0.166003 0.703934 0.114049 0.149661
H24   H     H_    0.602724 0.693046 0.303590 0.120829
H25   H     H_    0.158120 0.332296 0.348058 0.139042
H26   H     H_    0.753842 0.089462 0.225069 0.134227
H27   H     H_    0.666008 0.796064 0.385928 0.149665
H28   H     H_    0.102702 0.806958 0.196365 0.120826
H29   H     H_    0.164378 0.668233 0.649277 0.136477
H30   H     H_    0.765542 0.904935 0.776302 0.139555
H31   H     H_    0.907972 0.237839 0.776736 0.140049
H32   H     H_    0.333808 0.161630 0.645056 0.137193
H33   H     H_    0.794527 0.714996 0.847751 0.150985
H34   H     H_    0.295594 0.760012 0.779411 0.147389
H35   H     H_    0.243810 0.285283 0.781323 0.150951
H36   H     H_    0.719567 0.206028 0.847407 0.152017
H37   H     H_    0.794127 0.277204 0.142432 0.148073
H38   H     H_    0.309801 0.247893 0.235066 0.150338
H39   H     H_    0.304254 0.799318 0.162383 0.143299
H40   H     H_    0.755582 0.711376 0.218330 0.133216
H41   H     H_    0.294129 0.222801 0.357583 0.148080
H42   H     H_    0.809796 0.252109 0.264939 0.150347
H43   H     H_    0.804266 0.700689 0.337592 0.143293
H44   H     H_    0.255555 0.788658 0.281637 0.133217
H45   H     H_    0.294505 0.785048 0.652343 0.151031
H46   H     H_    0.795728 0.740002 0.720697 0.147394
H47   H     H_    0.743810 0.214739 0.718664 0.150958
H48   H     H_    0.219564 0.293974 0.652587 0.152016
N1    N     N_R   0.574080 0.369570 0.076720 -0.053943
N2    N     N_R   0.630430 0.574080 0.076720 -0.049275
N3    N     N_R   0.425920 0.630430 0.076720 -0.050767
N4    N     N_R   0.369570 0.425920 0.076720 -0.052070
N5    N     N_R   0.574080 0.630430 0.923280 -0.053462
N6    N     N_R   0.630430 0.425920 0.923280 -0.053627
N7    N     N_R   0.425920 0.369570 0.923280 -0.052000
N8    N     N_R   0.369570 0.574080 0.923280 -0.052248
N9    N     N_R   0.074080 0.869570 0.576720 -0.053463
N10   N     N_R   0.130430 0.074080 0.576720 -0.053633
N11   N     N_R   0.925920 0.130430 0.576720 -0.052001
N12   N     N_R   0.869570 0.925920 0.576720 -0.052246
N13   N     N_R   0.074080 0.130430 0.423280 -0.053940
N14   N     N_R   0.130430 0.925920 0.423280 -0.049277
N15   N     N_R   0.925920 0.869570 0.423280 -0.050764
N16   N     N_R   0.869570 0.074080 0.423280 -0.052071
N17   N     N_R   0.574050 0.630410 0.076720 -0.061275
N18   N     N_R   0.369590 0.574050 0.076720 -0.061812
N19   N     N_R   0.425950 0.369590 0.076720 -0.060620
N20   N     N_R   0.630410 0.425950 0.076720 -0.058891
N21   N     N_R   0.574050 0.369590 0.923280 -0.059582
N22   N     N_R   0.369590 0.425950 0.923280 -0.060446
N23   N     N_R   0.425950 0.630410 0.923280 -0.058786
N24   N     N_R   0.630410 0.574050 0.923280 -0.059959
N25   N     N_R   0.074050 0.130410 0.576720 -0.059583
N26   N     N_R   0.869590 0.074050 0.576720 -0.060447
N27   N     N_R   0.925950 0.869590 0.576720 -0.058784
N28   N     N_R   0.130410 0.925950 0.576720 -0.059964
N29   N     N_R   0.074050 0.869590 0.423280 -0.061277
N30   N     N_R   0.869590 0.925950 0.423280 -0.061812
N31   N     N_R   0.925950 0.130410 0.423280 -0.060620
N32   N     N_R   0.130410 0.074050 0.423280 -0.058884
Ni1   Ni    Ni4+2 0.500000 0.370760 0.000000 0.204154
Ni2   Ni    Ni4+2 0.629240 0.500000 0.000000 0.207464
Ni3   Ni    Ni4+2 0.500000 0.629240 0.000000 0.205154
Ni4   Ni    Ni4+2 0.370760 0.500000 0.000000 0.202716
Ni5   Ni    Ni4+2 0.000000 0.870760 0.500000 0.205156
Ni6   Ni    Ni4+2 0.129240 1.000000 0.500000 0.207458
Ni7   Ni    Ni4+2 0.000000 0.129240 0.500000 0.204152
Ni8   Ni    Ni4+2 0.870760 1.000000 0.500000 0.202718
C81   C     C_R   0.557508 0.757174 0.140443 0.125188
C82   C     C_R   0.508292 0.773952 0.201556 -0.139026
C83   C     C_R   0.470652 0.843979 0.204083 -0.124061
C84   C     C_R   0.484358 0.898472 0.147451 -0.139439
C85   C     C_R   0.537816 0.884197 0.089985 -0.130065
C86   C     C_R   0.573775 0.813269 0.085823 -0.149590
H49   H     H_    0.494141 0.730875 0.243408 0.100470
H50   H     H_    0.428839 0.854438 0.248325 0.108118
H51   H     H_    0.453008 0.951371 0.147422 0.104232
H52   H     H_    0.550186 0.927472 0.047780 0.104995
H53   H     H_    0.613514 0.801797 0.039814 0.109179
C87   C     C_R   0.235546 0.574289 0.123148 0.092186
C88   C     C_R   0.218284 0.568317 0.201515 -0.152428
C89   C     C_R   0.151302 0.533009 0.224419 -0.113759
C90   C     C_R   0.101488 0.504235 0.169136 -0.104945
C91   C     C_R   0.116827 0.513263 0.091304 -0.118594
C92   C     C_R   0.183847 0.548690 0.067949 -0.194288
H54   H     H_    0.257266 0.589854 0.244581 0.117847
H55   H     H_    0.138862 0.527294 0.284831 0.115217
H56   H     H_    0.051104 0.474593 0.186027 0.098090
H57   H     H_    0.076593 0.492411 0.049690 0.096824
H58   H     H_    0.195450 0.556718 0.007649 0.125614
C93   C     C_R   0.443705 0.246313 0.145958 0.100832
C94   C     C_R   0.480475 0.232486 0.215810 -0.145511
C95   C     C_R   0.514889 0.162100 0.228632 -0.104944
C96   C     C_R   0.510591 0.104697 0.172759 -0.133046
C97   C     C_R   0.470937 0.117090 0.104636 -0.133509
C98   C     C_R   0.437932 0.188142 0.090708 -0.168508
H59   H     H_    0.484155 0.276817 0.259252 0.115824
H60   H     H_    0.545612 0.152782 0.281427 0.112415
H61   H     H_    0.538122 0.050674 0.181891 0.101791
H62   H     H_    0.466380 0.071774 0.062573 0.100489
H63   H     H_    0.408157 0.197838 0.037264 0.119490
C99   C     C_R   0.761257 0.428886 0.131743 0.091305
C100  C     C_R   0.763034 0.445637 0.210641 -0.157626
C101  C     C_R   0.827850 0.477723 0.243318 -0.105793
C102  C     C_R   0.891373 0.491286 0.197707 -0.102169
C103  C     C_R   0.891050 0.471668 0.119956 -0.118579
C104  C     C_R   0.826056 0.440007 0.086826 -0.177713
H64   H     H_    0.713996 0.434524 0.246392 0.120192
H65   H     H_    0.828894 0.491852 0.303829 0.110476
H66   H     H_    0.941078 0.516293 0.222907 0.103929
H67   H     H_    0.941385 0.480364 0.085779 0.099308
H68   H     H_    0.826592 0.423170 0.027068 0.118928
C105  C     C_R   0.570951 0.235438 0.872489 0.094734
C106  C     C_R   0.556303 0.226692 0.793799 -0.177257
C107  C     C_R   0.519565 0.161447 0.766838 -0.100133
C108  C     C_R   0.498371 0.104389 0.818086 -0.107331
C109  C     C_R   0.516952 0.110757 0.895693 -0.128619
C110  C     C_R   0.553863 0.176016 0.922985 -0.170633
H69   H     H_    0.571747 0.271164 0.753788 0.116517
H70   H     H_    0.506971 0.155805 0.706389 0.104860
H71   H     H_    0.468940 0.054479 0.797513 0.102395
H72   H     H_    0.502949 0.064953 0.934382 0.097602
H73   H     H_    0.569040 0.179877 0.982725 0.115626
C111  C     C_R   0.243570 0.433956 0.853398 0.107377
C112  C     C_R   0.229999 0.454948 0.777088 -0.182975
C113  C     C_R   0.160032 0.484891 0.756073 -0.103481
C114  C     C_R   0.102637 0.492256 0.810656 -0.095734
C115  C     C_R   0.114035 0.466528 0.885365 -0.129481
C116  C     C_R   0.184661 0.437296 0.907128 -0.184193
H74   H     H_    0.274298 0.449620 0.734250 0.120385
H75   H     H_    0.151119 0.502552 0.697530 0.104643
H76   H     H_    0.048751 0.516335 0.794701 0.103121
H77   H     H_    0.067664 0.468779 0.925648 0.097806
H78   H     H_    0.193241 0.416758 0.964949 0.122546
C117  C     C_R   0.440132 0.757669 0.861639 0.095380
C118  C     C_R   0.482079 0.773055 0.795241 -0.141214
C119  C     C_R   0.517581 0.843672 0.787250 -0.120385
C120  C     C_R   0.508848 0.899525 0.844227 -0.141317
C121  C     C_R   0.462593 0.886115 0.907652 -0.108386
C122  C     C_R   0.428513 0.814985 0.916710 -0.154207
H79   H     H_    0.489706 0.729527 0.751510 0.118042
H80   H     H_    0.553154 0.854103 0.737872 0.119985
H81   H     H_    0.538042 0.953041 0.839830 0.104184
H82   H     H_    0.453641 0.930545 0.950031 0.099616
H83   H     H_    0.392575 0.804918 0.965870 0.112422
C123  C     C_R   0.765150 0.566407 0.882022 0.093170
C124  C     C_R   0.774906 0.528351 0.811795 -0.142553
C125  C     C_R   0.841392 0.487589 0.797758 -0.118129
C126  C     C_R   0.899122 0.487015 0.852727 -0.139309
C127  C     C_R   0.891783 0.529571 0.920317 -0.113262
C128  C     C_R   0.824411 0.568885 0.935529 -0.169982
H84   H     H_    0.729879 0.527708 0.769456 0.115573
H85   H     H_    0.846725 0.454653 0.745410 0.116606
H86   H     H_    0.948877 0.452562 0.843714 0.098402
H87   H     H_    0.937677 0.530740 0.961433 0.101042
H88   H     H_    0.818061 0.600196 0.988925 0.117591
C129  C     C_R   0.070950 0.264560 0.627521 0.094742
C130  C     C_R   0.056317 0.273302 0.706214 -0.177281
C131  C     C_R   0.019593 0.338551 0.733187 -0.100134
C132  C     C_R   0.998400 0.395614 0.681949 -0.107259
C133  C     C_R   0.016959 0.389246 0.604336 -0.128618
C134  C     C_R   0.053856 0.323983 0.577032 -0.170671
H89   H     H_    0.071766 0.228827 0.746219 0.116519
H90   H     H_    0.007014 0.344194 0.793639 0.104866
H91   H     H_    0.968985 0.445529 0.702533 0.102362
H92   H     H_    0.002949 0.435051 0.565653 0.097601
H93   H     H_    0.069016 0.320122 0.517288 0.115635
C135  C     C_R   0.743570 0.066050 0.646611 0.107384
C136  C     C_R   0.730000 0.045091 0.722931 -0.183017
C137  C     C_R   0.660032 0.015160 0.743962 -0.103542
C138  C     C_R   0.602640 0.007765 0.689381 -0.095717
C139  C     C_R   0.614036 0.033462 0.614661 -0.129456
C140  C     C_R   0.684661 0.062688 0.592885 -0.184193
H94   H     H_    0.774299 0.050436 0.765766 0.120418
H95   H     H_    0.651116 0.997529 0.802515 0.104671
H96   H     H_    0.548758 0.983687 0.705346 0.103109
H97   H     H_    0.567664 0.031191 0.574382 0.097801
H98   H     H_    0.693238 0.083205 0.535056 0.122548
C141  C     C_R   0.940151 0.742341 0.638377 0.095357
C142  C     C_R   0.982097 0.726948 0.704773 -0.141268
C143  C     C_R   0.017598 0.656330 0.712757 -0.120342
C144  C     C_R   0.008859 0.600480 0.655777 -0.141336
C145  C     C_R   0.962605 0.613898 0.592353 -0.108418
C146  C     C_R   0.928530 0.685031 0.583300 -0.154178
H99   H     H_    0.989727 0.770472 0.748508 0.118050
H100  H     H_    0.053173 0.645895 0.762133 0.119994
H101  H     H_    0.038048 0.546962 0.660171 0.104184
H102  H     H_    0.953650 0.569471 0.549971 0.099625
H103  H     H_    0.892593 0.695104 0.534140 0.112425
C147  C     C_R   0.265138 0.933605 0.618022 0.093199
C148  C     C_R   0.274850 0.971692 0.688240 -0.142550
C149  C     C_R   0.341336 0.012444 0.702307 -0.118150
C150  C     C_R   0.399108 0.012975 0.647381 -0.139204
C151  C     C_R   0.391815 0.970380 0.579810 -0.113281
C152  C     C_R   0.324444 0.931077 0.564565 -0.170103
H104  H     H_    0.229791 0.972366 0.730546 0.115572
H105  H     H_    0.346641 0.045403 0.754645 0.116613
H106  H     H_    0.448862 0.047422 0.656410 0.098386
H107  H     H_    0.437746 0.969172 0.538734 0.100999
H108  H     H_    0.318131 0.899734 0.511182 0.117622
C153  C     C_R   0.057505 0.742833 0.359544 0.125187
C154  C     C_R   0.008297 0.726038 0.298430 -0.139010
C155  C     C_R   0.970669 0.656003 0.295909 -0.124055
C156  C     C_R   0.984377 0.601522 0.352552 -0.139448
C157  C     C_R   0.037828 0.615815 0.410021 -0.130063
C158  C     C_R   0.073775 0.686749 0.414174 -0.149592
H109  H     H_    0.994142 0.769106 0.256570 0.100464
H110  H     H_    0.928864 0.645528 0.251664 0.108119
H111  H     H_    0.953036 0.548618 0.352588 0.104245
H112  H     H_    0.050200 0.572549 0.452234 0.104997
H113  H     H_    0.113509 0.698234 0.460185 0.109175
C159  C     C_R   0.735542 0.925713 0.376854 0.092185
C160  C     C_R   0.718270 0.931684 0.298489 -0.152432
C161  C     C_R   0.651283 0.966990 0.275594 -0.113770
C162  C     C_R   0.601476 0.995764 0.330884 -0.104949
C163  C     C_R   0.616827 0.986741 0.408714 -0.118608
C164  C     C_R   0.683851 0.951314 0.432060 -0.194295
H114  H     H_    0.757245 0.910145 0.255417 0.117853
H115  H     H_    0.638834 0.972701 0.215183 0.115223
H116  H     H_    0.551086 0.025403 0.314001 0.098126
H117  H     H_    0.576598 0.007595 0.450333 0.096842
H118  H     H_    0.695463 0.943288 0.492359 0.125612
C165  C     C_R   0.943703 0.253688 0.354045 0.100837
C166  C     C_R   0.980473 0.267517 0.284193 -0.145496
C167  C     C_R   0.014896 0.337900 0.271377 -0.104966
C168  C     C_R   0.010609 0.395296 0.327257 -0.133062
C169  C     C_R   0.970954 0.382903 0.395380 -0.133448
C170  C     C_R   0.937938 0.311855 0.409301 -0.168503
H119  H     H_    0.984147 0.223189 0.240747 0.115816
H120  H     H_    0.045621 0.347218 0.218584 0.112402
H121  H     H_    0.038152 0.449316 0.318132 0.101785
H122  H     H_    0.966407 0.428214 0.437449 0.100486
H123  H     H_    0.908165 0.302157 0.462746 0.119486
C171  C     C_R   0.261261 0.071117 0.368258 0.091297
C172  C     C_R   0.263087 0.054483 0.289330 -0.157703
C173  C     C_R   0.327899 0.022381 0.256662 -0.105646
C174  C     C_R   0.391366 0.008664 0.302321 -0.102265
C175  C     C_R   0.390994 0.028151 0.380112 -0.118637
C176  C     C_R   0.326007 0.059846 0.413228 -0.177671
H124  H     H_    0.214092 0.065709 0.253544 0.120173
H125  H     H_    0.328984 0.008356 0.196121 0.110468
H126  H     H_    0.441069 0.983642 0.277131 0.103944
H127  H     H_    0.441288 0.019327 0.414329 0.099351
H128  H     H_    0.326511 0.076586 0.473016 0.118943

loop_
_geom_bond_atom_site_label_1
_geom_bond_atom_site_label_2
_ccdc_geom_bond_type
C84   H51   S    
C4    C36   A    
C5    C37   A    
C32   C45   A    
C148  C149  A    
C53   C69   D    
C22   N22   A    
C174  C175  A    
C160  H114  S    
C153  C154  A    
C87   C88   A    
C144  C145  A    
C119  H80   S    
C3    N3    A    
C16   N16   A    
C1    N1    A    
C64   H32   S    
C8    N8    A    
C157  H112  S    
N3    N18   A    
C116  H78   S    
C93   C98   A    
C171  C176  A    
C166  C167  A    
C56   C72   D    
C81   C86   A    
C168  C169  A    
N32   Ni6   S    
C33   C69   S    
C2    C34   A    
C35   C71   S    
C149  H105  S    
N5    Ni3   S    
C115  C116  A    
C26   C135  S    
C16   H16   S    
C99   C100  A    
C93   C94   A    
C48   C74   S    
C92   H58   S    
C103  C104  A    
N11   N26   A    
C161  C162  A    
C124  H84   S    
C60   C76   D    
C163  C164  A    
C107  C108  A    
C170  H123  S    
C114  C115  A    
C4    H4    S    
N28   Ni6   S    
N11   Ni7   S    
C68   H36   S    
C20   C33   A    
C73   H41   S    
C31   C48   A    
C3    H3    S    
C122  H83   S    
C17   C34   A    
C77   H45   S    
N8    Ni4   S    
C143  H100  S    
C79   H47   S    
C49   C62   S    
C145  H102  S    
C171  C172  A    
C65   H33   S    
C51   C64   S    
C140  H98   S    
C173  C174  A    
C52   C63   S    
C53   C58   S    
N17   Ni3   S    
C9    C41   A    
C112  H74   S    
C56   C59   S    
C71   H39   S    
N20   Ni2   S    
C166  H119  S    
C133  H92   S    
C12   C44   A    
C111  C116  A    
C13   C45   A    
C128  H88   S    
C172  H124  S    
N18   Ni4   S    
N27   Ni5   S    
N31   Ni7   S    
C63   H31   S    
C49   H17   S    
C172  C173  A    
C11   H11   S    
C95   C96   A    
C7    C39   A    
C8    C40   A    
C90   H56   S    
C55   C71   D    
C95   H60   S    
C19   C93   S    
C14   N14   A    
C117  C122  A    
C110  H73   S    
C4    N4    A    
C5    N5    A    
C126  C127  A    
C136  H94   S    
C5    H5    S    
C133  C134  A    
C82   C83   A    
C175  H127  S    
C159  C160  A    
C129  C130  A    
C57   C73   D    
C150  H106  S    
C142  H99   S    
C27   C44   A    
C21   C38   A    
C61   C77   D    
C37   C65   S    
C6    C38   A    
C21   N21   A    
C18   C35   A    
C174  H126  S    
C25   C129  S    
N2    Ni2   S    
C176  H128  S    
C18   C87   S    
C144  H101  S    
C119  C120  A    
N7    Ni1   S    
C36   C70   S    
C123  C128  A    
C138  H96   S    
C50   H18   S    
C76   H44   S    
C142  C143  A    
C28   C147  S    
N29   Ni5   S    
C134  H93   S    
C125  H85   S    
C139  C140  A    
C80   H48   S    
C109  C110  A    
N6    N21   A    
C22   C111  S    
C120  H81   S    
C52   H20   S    
C59   H27   S    
C97   C98   A    
C8    H8    S    
C118  H79   S    
C150  C151  A    
N14   Ni6   S    
C118  C119  A    
C3    C35   A    
C141  C142  A    
C72   H40   S    
C24   C37   A    
N1    Ni1   S    
C51   C67   D    
C115  H77   S    
C15   N15   A    
C99   C104  A    
C21   C105  S    
C34   C72   S    
C58   C74   D    
N15   N30   A    
C161  H115  S    
C138  C139  A    
C123  C124  A    
N4    N19   A    
C137  H95   S    
C62   C78   D    
C132  C133  A    
C88   H54   S    
C155  H110  S    
N7    N22   A    
N22   Ni4   S    
C83   H50   S    
N23   Ni3   S    
C158  H113  S    
C6    H6    S    
N10   Ni6   S    
C44   C78   S    
C130  C131  A    
C20   C99   S    
C151  H107  S    
C102  H66   S    
C70   H38   S    
C22   C39   A    
C126  H86   S    
C101  C102  A    
C113  C114  A    
C145  C146  A    
C50   C61   S    
C98   H63   S    
C136  C137  A    
C54   C57   S    
C10   C42   A    
C121  C122  A    
C100  C101  A    
C111  C112  A    
N9    Ni5   S    
N30   Ni8   S    
C14   C46   A    
C88   C89   A    
C15   H15   S    
C151  C152  A    
C1    H1    S    
C23   C40   A    
C28   C41   A    
C10   N10   A    
C147  C148  A    
C11   N11   A    
C108  H71   S    
N15   Ni5   S    
C24   N24   A    
C9    N9    A    
C7    H7    S    
C53   H21   S    
C101  H65   S    
C117  C118  A    
C12   N12   A    
C13   N13   A    
C60   H28   S    
C96   C97   A    
C162  C163  A    
C40   C66   S    
C55   C60   S    
N25   Ni7   S    
N2    N17   A    
C64   C80   D    
N26   Ni8   S    
N5    N24   A    
C12   H12   S    
C82   H49   S    
C27   N27   A    
C156  H111  S    
N13   Ni7   S    
C32   C171  S    
C129  C134  A    
C56   H24   S    
C131  H90   S    
N19   Ni1   S    
C9    H9    S    
C29   N29   A    
C127  C128  A    
C85   C86   A    
C25   N25   A    
C154  H109  S    
C19   N19   A    
C165  C166  A    
C13   H13   S    
C17   N17   A    
N4    Ni4   S    
C105  C106  A    
C105  C110  A    
C162  H116  S    
C167  H120  S    
C141  C146  A    
N16   N31   A    
C31   C165  S    
N10   N25   A    
C74   H42   S    
C38   C68   S    
C146  H103  S    
C2    H2    S    
N21   Ni1   S    
N14   N29   A    
C78   H46   S    
N8    N23   A    
C125  C126  A    
C100  H64   S    
C109  H72   S    
C120  C121  A    
C66   H34   S    
C54   H22   S    
C25   C42   A    
C152  H108  S    
C29   C46   A    
C106  H69   S    
C148  H104  S    
C169  C170  A    
C160  C161  A    
C153  C158  A    
C2    N2    A    
C167  C168  A    
N12   N27   A    
C47   C75   S    
C135  C136  A    
C10   H10   S    
C157  C158  A    
C137  C138  A    
C132  H91   S    
C30   C159  S    
C14   H14   S    
N24   Ni2   S    
C89   C90   A    
C29   C153  S    
N12   Ni8   S    
C57   H25   S    
C83   C84   A    
C42   C80   S    
C139  H97   S    
C81   C82   A    
C24   C123  S    
C130  H89   S    
C15   C47   A    
C90   C91   A    
C61   H29   S    
C16   C48   A    
C46   C76   S    
C1    C33   A    
C63   C79   D    
C102  C103  A    
C91   C92   A    
C49   C65   D    
N16   Ni8   S    
C75   H43   S    
C85   H52   S    
C149  C150  A    
C19   C36   A    
C41   C77   S    
C169  H122  S    
C17   C81   S    
C43   C79   S    
C113  H75   S    
C55   H23   S    
C45   C73   S    
C165  C170  A    
C67   H35   S    
N1    N20   A    
C103  H67   S    
C155  C156  A    
C54   C70   D    
C135  C140  A    
C11   C43   A    
C121  H82   S    
N3    Ni3   S    
C52   C68   D    
C114  H76   S    
C164  H118  S    
C26   C43   A    
C51   H19   S    
C147  C152  A    
C30   C47   A    
C108  C109  A    
C106  C107  A    
C27   C141  S    
C143  C144  A    
C94   H59   S    
N6    Ni2   S    
N9    N28   A    
C58   H26   S    
C7    N7    A    
C173  H125  S    
N13   N32   A    
C96   H61   S    
C62   H30   S    
C20   N20   A    
C112  C113  A    
C50   C66   D    
C156  C157  A    
C107  H70   S    
C104  H68   S    
C26   N26   A    
C131  C132  A    
C59   C75   D    
C84   C85   A    
C97   H62   S    
C127  H87   S    
C30   N30   A    
C23   N23   A    
C154  C155  A    
C91   H57   S    
C39   C67   S    
C18   N18   A    
C163  H117  S    
C124  C125  A    
C94   C95   A    
C23   C117  S    
C6    N6    A    
C69   H37   S    
C89   H55   S    
C87   C92   A    
C175  C176  A    
C168  H121  S    
C28   N28   A    
C159  C164  A    
C86   H53   S    
C31   N31   A    
C32   N32   A    
