data_mof_unit_67060.cif
_audit_creation_date              2013-03-05T15:58:16-0500
_audit_creation_method            fapswitch 2.2
_symmetry_space_group_name_H-M    P1
_symmetry_Int_Tables_number       1
_space_group_crystal_system       triclinic
_cell_length_a                    8.256063
_cell_length_b                    12.802766
_cell_length_c                    14.384266
_cell_angle_alpha                 93.577117
_cell_angle_beta                  91.029415
_cell_angle_gamma                 98.147328
_cell_volume                      1501.59216103

loop_
_atom_site_label
_atom_site_type_symbol
_atom_site_description
_atom_site_fract_x
_atom_site_fract_y
_atom_site_fract_z
_atom_type_partial_charge
P1    P     P_3+3 0.054400 0.427280 0.286870 0.485689
O1    O     O_2   0.887370 0.460630 0.272300 -0.324994
O2    O     O_3   0.129410 0.451380 0.388510 -0.337489
O3    O     O_3   0.670210 0.653170 0.329170 -0.333626
O4    O     O_2   0.793792 0.588271 0.167713 -0.381201
O5    O     O_3   0.982204 0.291697 0.273688 -0.592097
O6    O     O_3   0.712036 0.776641 0.170068 -0.544716
H1    H     H_    0.768322 0.865647 0.294070 0.095112
C1    C     C_3   0.655924 0.954353 0.193899 0.634656
H2    H     H_    0.639740 0.015153 0.250698 -0.026797
P2    P     P_3+3 0.668300 0.742890 0.573060 0.478843
P3    P     P_3+3 0.130528 0.840420 0.376093 0.467220
O7    O     O_2   0.845380 0.761330 0.544970 -0.379670
O8    O     O_3   0.088930 0.704860 0.376040 -0.411103
O9    O     O_2   0.003113 0.885778 0.438213 -0.348386
O10   O     O_3   0.681687 0.767946 0.694275 -0.576026
O11   O     O_3   0.081692 0.871599 0.263252 -0.536454
C2    C     C_3   0.154896 0.806838 0.199137 0.406262
H3    H     H_    0.100323 0.722637 0.202011 0.123235
H4    H     H_    0.288805 0.815302 0.212694 0.041755
C3    C     C_3   0.125969 0.840056 0.101372 -0.899009
H5    H     H_    0.995342 0.817627 0.079858 0.266453
H6    H     H_    0.159802 0.926908 0.098572 0.275080
C4    C     C_3   0.227992 0.759878 0.654860 0.419487
H7    H     H_    0.353765 0.743129 0.643460 0.084491
H8    H     H_    0.148231 0.734133 0.592315 0.125091
C5    C     C_3   0.230349 0.878352 0.673318 -0.852536
H9    H     H_    0.300522 0.905601 0.738723 0.250218
H10   H     H_    0.287809 0.922008 0.615540 0.209658
H11   H     H_    0.103437 0.896381 0.680593 0.289309
Ba1   Ba    Ba6+2 0.855630 0.555280 0.454520 1.613867
C6    C     C_3   0.105956 0.229675 0.257615 0.390040
H12   H     H_    0.223548 0.268213 0.288391 0.122368
C7    C     C_3   0.119640 0.203730 0.152890 -1.139223
H13   H     H_    0.148514 0.277019 0.116048 0.256412
H14   H     H_    0.002817 0.160339 0.122345 0.304897
H15   H     H_    0.217841 0.153439 0.140542 0.277998
C8    C     C_3   0.738972 0.684619 0.736986 0.425391
H16   H     H_    0.842128 0.657454 0.698961 0.078248
H17   H     H_    0.638096 0.617571 0.739562 0.056885
C9    C     C_3   0.797309 0.723552 0.836233 0.012983
H18   H     H_    0.825936 0.655993 0.875305 0.050770
H19   H     H_    0.699692 0.759610 0.872877 0.194206
P4    P     P_3+3 0.135310 0.572810 0.713130 0.482645
O12   O     O_2   0.302330 0.539400 0.727760 -0.329444
O13   O     O_3   0.060300 0.548700 0.611500 -0.412095
O14   O     O_3   0.519500 0.346920 0.670840 -0.389408
O15   O     O_3   0.169379 0.710480 0.733712 -0.544011
P5    P     P_3+3 0.058563 0.156948 0.621798 0.499774
O16   O     O_3   0.614310 0.373510 0.452640 -0.331627
O17   O     O_3   0.100780 0.295230 0.623970 -0.379873
O18   O     O_2   0.196998 0.113500 0.567058 -0.332530
O19   O     O_3   0.087554 0.117925 0.734907 -0.546076
Ba2   Ba    Ba6+2 0.334200 0.444810 0.545490 1.617736
P6    P     P_3+3 0.658565 0.649117 0.206860 0.507330
C10   C     C_3   0.671197 0.851007 0.238568 0.413591
H20   H     H_    0.553028 0.824597 0.271284 -0.114101
O20   O     O_3   0.575400 0.626570 0.547370 -0.356474
C11   C     C_3   0.583356 0.308126 0.251590 0.803056
H21   H     H_    0.711179 0.301434 0.265020 0.115027
C12   C     C_3   0.552118 0.300122 0.146233 -0.810075
H22   H     H_    0.422445 0.304528 0.129679 0.225607
H23   H     H_    0.622831 0.370578 0.117964 0.185679
P7    P     P_3+3 0.524284 0.242731 0.417239 0.519013
O21   O     O_2   0.344320 0.238700 0.455090 -0.273948
O22   O     O_3   0.490005 0.225823 0.295300 -0.628997
H24   H     H_    0.202246 0.799692 0.052256 0.205753
C13   C     C_3   0.045287 0.196141 0.799382 0.314477
H25   H     H_    0.124074 0.272964 0.792232 0.104101
H26   H     H_    0.914991 0.206279 0.789497 0.023091
C14   C     C_3   0.072056 0.164672 0.898573 0.007727
H27   H     H_    0.204554 0.163306 0.913280 0.186516
H28   H     H_    0.031382 0.224921 0.948190 0.116722
P8    P     P_3+3 0.538936 0.348540 0.791943 0.463072
C15   C     C_3   0.539418 0.147691 0.759983 0.395761
H29   H     H_    0.653400 0.180917 0.725777 0.017389
O23   O     O_2   0.408098 0.411147 0.834337 -0.373239
O24   O     O_3   0.481285 0.219633 0.824842 -0.507143
H30   H     H_    0.443399 0.121416 0.705114 0.133790
H31   H     H_    0.676976 0.076953 0.862300 0.305400
C16   C     C_3   0.576136 0.052308 0.810135 -0.859961
H32   H     H_    0.613147 0.991722 0.759313 0.224552
H33   H     H_    0.466454 0.017706 0.847104 0.269962
C17   C     C_R   0.991754 0.437571 0.057242 -0.168432
C18   C     C_R   0.183679 0.493768 0.194013 0.091107
C19   C     C_R   0.331270 0.556526 0.224295 -0.454184
C20   C     C_R   0.453362 0.587776 0.162093 0.216278
C21   C     C_R   0.416168 0.579451 0.067774 -0.277918
C22   C     C_R   0.256121 0.540071 0.034428 0.026055
C23   C     C_R   0.143124 0.487325 0.095722 0.008975
C24   C     C_R   0.057116 0.503880 0.902212 -0.090005
C25   C     C_R   0.948914 0.444461 0.962186 0.066301
C26   C     C_R   0.009428 0.504734 0.804782 0.216004
C27   C     C_R   0.855720 0.453002 0.773985 -0.534305
C28   C     C_R   0.745797 0.404307 0.835339 0.269831
C29   C     C_R   0.793737 0.396798 0.927762 -0.306466
C30   C     C_R   0.206157 0.558645 0.942793 -0.043342
H34   H     H_    0.511584 0.608850 0.021781 0.193093
H35   H     H_    0.708605 0.353881 0.972415 0.157989
H36   H     H_    0.818106 0.454296 0.701646 0.168779
H37   H     H_    0.905768 0.393670 0.101118 0.150437
C31   C     C_R   0.771227 0.173838 0.520894 -0.403567
C32   C     C_R   0.421825 0.815673 0.470540 -0.552663
C33   C     C_R   0.416204 0.988139 0.413406 0.422877
C34   C     C_R   0.341231 0.884882 0.422167 0.088298
C35   C     C_R   0.574715 0.847353 0.513799 0.278527
C36   C     C_R   0.642882 0.956976 0.516256 -0.128070
C37   C     C_R   0.560225 0.028771 0.466298 -0.158177
C38   C     C_R   0.624863 0.138561 0.471018 0.239029
C39   C     C_R   0.856310 0.104382 0.566236 0.275360
C40   C     C_R   0.790265 0.997228 0.566326 -0.163124
H38   H     H_    0.855627 0.946598 0.605505 0.178430
H39   H     H_    0.821855 0.256726 0.522883 0.165959
H40   H     H_    0.361748 0.736299 0.477562 0.186970
C41   C     C_2   0.056804 0.129296 0.304206 0.631139
H41   H     H_    0.036895 0.054194 0.264167 0.093926
O25   O     O_2   0.035271 0.131522 0.387911 -0.551519
O26   O     O_3   0.935949 0.799967 0.833940 -0.693767
H42   H     H_    0.970807 0.819124 0.899971 0.323506
O27   O     O_3   0.521356 0.938510 0.130714 -0.742185
H43   H     H_    0.451359 0.993486 0.147112 0.320765
O28   O     O_3   0.550297 0.407356 0.285620 -0.671221
H44   H     H_    0.431129 0.399266 0.294853 0.311556
C42   C     C_2   0.604346 0.203229 0.099392 0.608359
H45   H     H_    0.724478 0.182986 0.114686 0.057806
O29   O     O_2   0.514206 0.148653 0.041653 -0.544461
O30   O     O_3   0.799614 0.989702 0.147626 -0.771267
H46   H     H_    0.796251 0.948753 0.086516 0.383950
O31   O     O_3   0.980899 0.066295 0.912636 -0.703531
H47   H     H_    0.046339 0.011897 0.888115 0.372691
C43   C     C_2   0.351155 0.608373 0.317450 0.829676
H48   H     H_    0.354867 0.692466 0.322211 -0.161231
O32   O     O_2   0.393743 0.564067 0.384126 -0.509737
C44   C     C_2   0.284106 0.657070 0.904710 0.584691
H49   H     H_    0.215829 0.722970 0.901372 0.044543
O33   O     O_2   0.423701 0.665598 0.877319 -0.614443
O34   O     O_3   0.350238 0.048554 0.351787 -0.712982
H50   H     H_    0.321506 0.004428 0.293401 0.291617

loop_
_geom_bond_atom_site_label_1
_geom_bond_atom_site_label_2
_geom_bond_distance
_ccdc_geom_bond_type
O5    C6    1.394048 S    
C20   C21   1.379875 A    
C26   C27   1.396523 A    
C5    H10   1.106848 S    
C2    C3    1.518840 S    
O16   P7    1.772683 S    
C9    H18   1.110705 S    
C28   C29   1.393248 A    
C4    C5    1.520771 S    
O6    P6    1.747125 S    
O8    Ba1   2.820308 S    
H1    C10   1.109609 S    
C16   H32   1.110818 S    
Ba2   O21   2.880839 S    
C18   C19   1.407076 A    
C33   O34   1.366785 S    
O16   Ba2   2.919313 S    
C12   C42   1.495491 S    
C30   C44   1.473460 S    
Ba1   O20   2.920099 S    
C4    H8    1.109892 S    
P1    O1    1.515114 D    
C11   O22   1.403396 S    
C8    H16   1.105620 S    
O2    Ba2   2.809151 S    
C19   C43   1.453719 S    
C24   C26   1.450014 A    
C35   C36   1.434203 A    
C41   H41   1.079777 S    
C7    H15   1.114576 S    
C29   H35   1.076689 S    
P1    Ba1   3.406660 S    
C2    H3    1.111464 S    
C37   C38   1.428059 A    
C7    H13   1.105107 S    
C12   H23   1.106741 S    
O19   C13   1.406930 S    
O7    Ba1   2.880618 S    
O26   H42   0.993086 S    
P4    C26   1.874470 S    
C39   C40   1.402699 A    
C40   H38   1.078322 S    
C13   H25   1.111187 S    
P5    O17   1.753445 S    
Ba1   O13   2.808585 S    
P3    O11   1.749130 S    
C36   C37   1.438598 A    
C9    O26   1.398694 S    
P2    O20   1.593736 S    
C1    H2    1.115942 S    
C2    H4    1.108020 S    
C11   O28   1.397684 S    
P2    Ba1   3.421299 S    
C11   H21   1.085688 S    
C6    C41   1.494922 S    
C3    H5    1.109261 S    
C3    H24   1.106998 S    
C5    H11   1.109763 S    
C17   H37   1.079558 S    
C9    H19   1.109433 S    
C27   C28   1.388594 A    
C17   C23   1.406931 A    
O6    C10   1.406016 S    
C33   C34   1.392222 A    
C16   H33   1.109967 S    
P4    O13   1.572530 S    
C25   C29   1.405994 A    
P1    C18   1.892995 S    
C11   C12   1.527351 S    
P1    O5    1.750995 S    
C4    O15   1.393945 S    
C32   H40   1.077324 S    
P4    O15   1.750644 S    
C4    H7    1.102711 S    
C8    C9    1.528689 S    
C24   C25   1.427555 A    
C14   H28   1.109251 S    
C19   C20   1.392637 A    
C15   C16   1.520056 S    
C44   O33   1.217142 D    
C41   O25   1.219405 D    
P8    O23   1.545718 D    
C22   C30   1.418263 A    
O1    Ba1   2.850544 S    
P1    O2    1.572650 S    
C6    C7    1.531883 S    
C15   H29   1.112602 S    
C14   O31   1.400810 S    
P2    O10   1.751706 S    
P3    O9    1.544158 D    
C27   H36   1.082327 S    
P5    O18   1.547117 D    
O13   Ba2   2.925129 S    
P2    C35   1.877170 S    
O11   C2    1.403533 S    
C32   C34   1.392630 A    
C1    C10   1.526373 S    
C1    O30   1.403205 S    
C24   C30   1.423038 A    
O2    Ba1   2.924363 S    
P7    O22   1.766606 S    
O14   Ba2   2.808639 S    
P3    O8    1.720734 S    
O12   Ba2   2.851074 S    
C3    H6    1.110869 S    
O3    P6    1.757367 S    
C31   C39   1.393744 A    
C10   H20   1.109256 S    
Ba1   O16   2.839350 S    
O30   H46   0.992864 S    
C33   C37   1.416357 A    
P4    O12   1.515478 D    
C42   O29   1.220578 D    
O31   H47   0.992067 S    
Ba2   O20   2.838679 S    
C36   C40   1.417520 A    
P8    C28   1.837570 S    
O4    P6    1.544250 D    
O14   P8    1.745037 S    
H31   C16   1.108723 S    
C43   O32   1.215537 D    
C18   C23   1.441682 A    
C44   H49   1.082023 S    
O34   H50   0.988138 S    
O17   Ba2   2.820897 S    
P7    O21   1.586668 D    
O28   H44   0.986849 S    
C14   H27   1.113226 S    
C31   H39   1.082464 S    
C6    H12   1.097035 S    
C8    H17   1.110985 S    
P2    O7    1.513834 D    
P7    C38   1.867130 S    
P3    C34   1.849382 S    
C13   C14   1.527265 S    
P5    O19   1.753656 S    
C32   C35   1.392911 A    
C7    H14   1.111009 S    
Ba1   Ba2   4.577428 S    
P6    C20   1.849918 S    
C12   H22   1.102573 S    
C15   O24   1.408281 S    
O3    Ba1   2.809230 S    
P4    Ba2   3.407119 S    
C21   C22   1.410131 A    
C13   H26   1.109347 S    
P8    O24   1.748454 S    
C5    H9    1.106642 S    
C1    O27   1.406538 S    
O27   H43   0.992206 S    
C42   H45   1.082315 S    
C31   C38   1.397359 A    
C17   C25   1.417370 A    
C22   C23   1.424420 A    
C15   H30   1.110548 S    
C21   H34   1.079663 S    
C43   H48   1.070567 S    
O10   C8    1.397700 S    
P5    C39   1.856430 S    
