data_mof_unit_53619.cif
_audit_creation_date              2012-12-10T17:21:19-0500
_audit_creation_method            fapswitch 2.2
_symmetry_space_group_name_H-M    P1
_symmetry_Int_Tables_number       1
_space_group_crystal_system       triclinic
_cell_length_a                    18.361938
_cell_length_b                    25.826658
_cell_length_c                    18.24371
_cell_angle_alpha                 90.02342
_cell_angle_beta                  90.044899
_cell_angle_gamma                 90.030243
_cell_volume                      8651.66426938

loop_
_atom_site_label
_atom_site_type_symbol
_atom_type_description
_atom_site_fract_x
_atom_site_fract_y
_atom_site_fract_z
_atom_type_partial_charge
C1    C     C_R   0.388990 0.249559 0.140666 0.820821
C2    C     C_R   0.571124 0.348342 0.878570 0.448786
C3    C     C_R   0.936588 0.356828 0.122005 -0.186094
C4    C     C_R   0.603723 0.624390 0.214572 -0.188982
C5    C     C_R   0.434163 0.146368 0.617708 -0.185794
C6    C     C_R   0.471691 0.119452 0.340755 -0.195603
C7    C     C_R   0.638524 0.653115 0.821432 -0.203009
C8    C     C_R   0.102075 0.165278 0.761223 -0.167383
C9    C     C_R   0.994250 0.678473 0.129263 -0.149969
C10   C     C_R   0.019455 0.661258 0.842814 -0.162340
C11   C     C_R   0.994269 0.323014 0.131115 -0.153550
C12   C     C_R   0.605221 0.667090 0.260120 -0.153018
C13   C     C_R   0.523457 0.381346 0.171161 0.488398
C14   C     C_R   0.492436 0.179513 0.628003 -0.152785
C15   C     C_R   0.518191 0.161583 0.343574 -0.164473
C16   C     C_R   0.627208 0.685696 0.762505 -0.153459
C17   C     C_R   0.294133 0.053594 0.872311 -0.146820
C18   C     C_R   0.295285 0.945951 0.872475 -0.142452
C19   C     C_R   0.778372 0.553667 0.368331 -0.138552
C20   C     C_R   0.779707 0.446136 0.368648 -0.142351
C21   C     C_R   0.316478 0.026762 0.810055 -0.138440
C22   C     C_R   0.317302 0.973003 0.810240 -0.101430
C23   C     C_R   0.792818 0.526777 0.303753 -0.135698
C24   C     C_R   0.362916 0.838603 0.670215 0.433974
C25   C     C_R   0.793575 0.473001 0.303933 -0.131061
C26   C     C_R   0.273039 0.972613 0.936695 0.063410
C27   C     C_R   0.272709 0.027019 0.936650 0.071464
C28   C     C_R   0.765305 0.472761 0.434932 0.070726
C29   C     C_R   0.764891 0.527122 0.434809 0.071683
C30   C     C_R   0.250050 0.946146 0.000273 -0.137345
C31   C     C_R   0.249786 0.053654 0.000215 -0.134624
C32   C     C_R   0.749473 0.446235 0.500613 -0.136353
C33   C     C_R   0.749121 0.553737 0.500448 -0.134053
C34   C     C_R   0.226711 0.972674 0.063755 0.063787
C35   C     C_R   0.902914 0.371365 0.791353 0.454416
C36   C     C_R   0.226537 0.027131 0.063714 0.075542
C37   C     C_R   0.730681 0.472786 0.565578 0.060156
C38   C     C_R   0.730427 0.527254 0.565457 0.074335
C39   C     C_R   0.204502 0.945994 0.127902 -0.112691
C40   C     C_R   0.204022 0.053786 0.127772 -0.159887
C41   C     C_R   0.712097 0.446154 0.630878 -0.110021
C42   C     C_R   0.711426 0.553981 0.630555 -0.156647
C43   C     C_R   0.181787 0.972992 0.189911 -0.046553
C44   C     C_R   0.181619 0.026756 0.189865 -0.116422
C45   C     C_R   0.692634 0.473243 0.693975 -0.044918
C46   C     C_R   0.068745 0.850840 0.376332 0.454619
C47   C     C_R   0.692551 0.527035 0.693898 -0.125911
C48   C     C_R   0.249967 0.109371 0.000201 0.780237
C49   C     C_R   0.250028 0.890562 0.000188 0.789983
C50   C     C_R   0.749879 0.609404 0.500457 0.781852
C51   C     C_R   0.749953 0.390588 0.500584 0.787227
C52   C     C_R   0.250166 0.391419 0.000111 0.755237
C53   C     C_R   0.250208 0.608595 0.000094 0.746173
C54   C     C_R   0.750150 0.891417 0.500110 0.757014
C55   C     C_R   0.750158 0.108592 0.500092 0.747323
C56   C     C_3   0.251298 0.470307 0.080240 -0.366854
C57   C     C_R   0.023319 0.881379 0.671181 0.473255
C58   C     C_3   0.181266 0.529923 0.961525 -0.395144
C59   C     C_3   0.251376 0.529779 0.080226 -0.374481
C60   C     C_3   0.181280 0.470059 0.961492 -0.395526
C61   C     C_3   0.750611 0.970304 0.580241 -0.367300
C62   C     C_3   0.681562 0.029910 0.460897 -0.393794
C63   C     C_3   0.750596 0.029776 0.580229 -0.372494
C64   C     C_3   0.681551 0.970049 0.460927 -0.394578
C65   C     C_3   0.318682 0.470088 0.960172 -0.367212
C66   C     C_3   0.318649 0.529988 0.960081 -0.388410
C67   C     C_3   0.818957 0.970083 0.460718 -0.363436
C68   C     C_R   0.066550 0.145776 0.371595 0.460322
C69   C     C_3   0.818974 0.029984 0.460731 -0.371294
C70   C     C_3   0.250364 0.449155 0.000478 0.167676
C71   C     C_3   0.250388 0.550883 0.000454 0.183524
C72   C     C_3   0.750325 0.949150 0.500475 0.161610
C73   C     C_3   0.750329 0.050876 0.500452 0.169078
C74   C     C_R   0.007322 0.332133 0.848578 -0.228012
C75   C     C_R   0.118297 0.817781 0.263491 -0.229902
C76   C     C_R   0.089974 0.837092 0.765945 -0.195788
C77   C     C_R   0.116667 0.180987 0.260494 -0.235295
C78   C     C_R   0.507984 0.833453 0.346133 -0.232493
C79   C     C_R   0.400172 0.830571 0.239095 -0.202151
C80   C     C_R   0.619558 0.316244 0.764689 -0.224961
C81   C     C_R   0.589730 0.337127 0.266259 -0.229118
C82   C     C_R   0.480228 0.811427 0.625275 -0.230745
C83   C     C_R   0.956887 0.372205 0.844677 -0.183311
C84   C     C_R   0.123068 0.850971 0.323384 -0.182615
C85   C     C_R   0.078932 0.880804 0.722780 -0.120840
C86   C     C_R   0.121036 0.146651 0.318933 -0.184967
C87   C     C_R   0.458076 0.873816 0.340684 -0.178737
C88   C     C_R   0.625196 0.348648 0.825363 -0.189135
C89   C     C_R   0.578856 0.380814 0.223006 -0.186081
C90   C     C_R   0.511090 0.315609 0.871148 -0.211295
C91   C     C_R   0.416643 0.840167 0.616638 -0.169423
C92   C     C_3   0.425085 0.636549 0.117342 -0.866821
C93   C     C_3   0.301696 0.185764 0.764336 -0.924975
C94   C     C_3   0.322926 0.163322 0.213809 -0.934285
C95   C     C_3   0.469470 0.668772 0.934706 -0.946833
C96   C     C_3   0.949798 0.154088 0.582124 -0.872478
C97   C     C_3   0.804125 0.683154 0.266324 -0.939179
C98   C     C_3   0.825290 0.661729 0.711850 -0.943894
C99   C     C_3   0.802298 0.314775 0.265581 -0.918377
C100  C     C_R   0.479733 0.337686 0.161520 -0.199125
C101  C     C_R   0.390976 0.748580 0.861319 0.816569
C102  C     C_R   0.373144 0.808720 0.733041 -0.220806
C103  C     C_R   0.899443 0.330429 0.741568 -0.204362
C104  C     C_R   0.009455 0.817357 0.369570 -0.218428
C105  C     C_R   0.979529 0.837741 0.661687 -0.208577
C106  C     C_R   0.007769 0.179939 0.366446 -0.220400
C107  C     C_R   0.450874 0.789055 0.243011 0.012611
C108  C     C_R   0.504060 0.282113 0.809775 0.004630
C109  C     C_R   0.488396 0.293070 0.206354 -0.002579
C110  C     C_R   0.437170 0.778594 0.742816 0.012855
C111  C     C_R   0.950760 0.289236 0.743885 0.006948
C112  C     C_R   0.391550 0.747546 0.137999 0.807146
C113  C     C_R   0.003365 0.783002 0.309049 0.006857
C114  C     C_R   0.988380 0.793080 0.706404 0.000311
C115  C     C_R   0.002434 0.215792 0.307596 0.008375
C116  C     C_R   0.005045 0.290197 0.798398 0.079828
C117  C     C_R   0.058673 0.783340 0.255566 0.077182
C118  C     C_R   0.044101 0.793086 0.759477 0.067031
C119  C     C_R   0.057642 0.215984 0.254023 0.084157
C120  C     C_R   0.505195 0.790655 0.297483 0.077502
C121  C     C_R   0.559251 0.282474 0.756173 0.076844
C122  C     C_R   0.543986 0.293075 0.259570 0.082101
C123  C     C_R   0.388753 0.249260 0.859015 0.817966
C124  C     C_R   0.491068 0.779926 0.687936 0.075896
C125  C     C_R   0.446653 0.745745 0.195127 -0.117203
C126  C     C_R   0.443031 0.248892 0.801122 -0.112991
C127  C     C_R   0.442434 0.249088 0.199242 -0.115667
C128  C     C_R   0.447467 0.747027 0.805647 -0.112109
C129  C     C_R   0.947882 0.247230 0.693651 -0.112202
C130  C     C_R   0.943190 0.748912 0.301148 -0.112247
C131  C     C_R   0.942669 0.748976 0.699119 -0.112476
C132  C     C_R   0.942964 0.250646 0.301070 -0.113153
C133  C     C_R   0.494714 0.702120 0.202851 0.046431
C134  C     C_R   0.889036 0.749542 0.640654 0.821187
C135  C     C_R   0.435742 0.215676 0.738569 0.048917
C136  C     C_R   0.448222 0.205817 0.247798 0.050567
C137  C     C_R   0.510258 0.714433 0.813326 0.044854
C138  C     C_R   0.998493 0.205000 0.697343 0.044941
C139  C     C_R   0.936848 0.714889 0.239325 0.047131
C140  C     C_R   0.949246 0.705366 0.747054 0.050651
C141  C     C_R   0.936477 0.285117 0.239867 0.048506
C142  C     C_R   0.051667 0.206402 0.754181 0.042311
C143  C     C_R   0.995313 0.714119 0.188204 0.036529
C144  C     C_R   0.008255 0.705094 0.797531 0.039003
C145  C     C_R   0.889070 0.250383 0.359291 0.817123
C146  C     C_R   0.995106 0.286541 0.188935 0.035986
C147  C     C_R   0.551660 0.706320 0.255429 0.044870
C148  C     C_R   0.494249 0.214684 0.687465 0.037472
C149  C     C_R   0.507449 0.205324 0.298048 0.038502
C150  C     C_R   0.564074 0.716857 0.757372 0.040154
C151  C     C_R   0.054878 0.248974 0.802991 -0.112243
C152  C     C_R   0.054049 0.749059 0.195823 -0.109800
C153  C     C_R   0.053907 0.749069 0.804028 -0.109558
C154  C     C_R   0.053584 0.251275 0.195521 -0.111172
C155  C     C_R   0.555055 0.749483 0.302966 -0.114732
C156  C     C_R   0.890900 0.248633 0.638653 0.815151
C157  C     C_R   0.553808 0.248896 0.695702 -0.110199
C158  C     C_R   0.553684 0.249049 0.304141 -0.114132
C159  C     C_R   0.554303 0.749706 0.696245 -0.111093
C160  C     C_R   0.490357 0.654445 0.161023 0.180912
C161  C     C_R   0.373298 0.183181 0.723731 0.209867
C162  C     C_R   0.396742 0.163495 0.250718 0.223110
C163  C     C_R   0.522358 0.678818 0.873227 0.220604
C164  C     C_R   0.000017 0.161500 0.647088 0.193587
C165  C     C_R   0.875304 0.681461 0.225135 0.222048
C166  C     C_R   0.898744 0.662455 0.749160 0.226778
C167  C     C_R   0.888826 0.749297 0.359041 0.818651
C168  C     C_R   0.874458 0.318191 0.225961 0.212003
C169  C     C_R   0.546790 0.617855 0.166064 -0.098041
C170  C     C_R   0.375056 0.148452 0.664425 -0.115274
C171  C     C_R   0.411235 0.120576 0.295631 -0.087648
C172  C     C_R   0.586828 0.649574 0.876012 -0.098343
C173  C     C_R   0.051647 0.121955 0.656967 -0.046311
C174  C     C_R   0.877672 0.646386 0.166249 -0.115622
C175  C     C_R   0.913800 0.619409 0.793634 -0.096737
C176  C     C_R   0.877070 0.354102 0.168174 -0.108793
C177  C     C_R   0.110267 0.249976 0.860077 0.786000
C178  C     C_R   0.404151 0.872404 0.287288 0.453080
C179  C     C_R   0.110613 0.750154 0.140156 0.787728
C180  C     C_R   0.110324 0.749895 0.860018 0.786328
C181  C     C_R   0.110084 0.250349 0.139682 0.787357
C182  C     C_R   0.609886 0.750515 0.360510 0.785327
C183  C     C_R   0.610422 0.249988 0.640009 0.786617
C184  C     C_R   0.610224 0.249825 0.360081 0.785829
C185  C     C_R   0.609575 0.750723 0.639169 0.785667
C186  C     C_R   0.101660 0.123783 0.713419 -0.193407
C187  C     C_R   0.936707 0.644646 0.119457 -0.194021
C188  C     C_R   0.973865 0.618677 0.839243 -0.199007
Cl1   Cl    Cl    0.340650 0.922982 0.281122 -0.662836
Cl2   Cl    Cl    0.578635 0.389190 0.954947 -0.576779
Cl3   Cl    Cl    0.507558 0.437388 0.119129 -0.617775
Cl4   Cl    Cl    0.281687 0.873398 0.658078 -0.629927
Cl5   Cl    Cl    0.839018 0.421710 0.787191 -0.687633
Cl6   Cl    Cl    0.074984 0.892885 0.451517 -0.507750
Cl7   Cl    Cl    0.007414 0.937387 0.619093 -0.570438
Cl8   Cl    Cl    0.072132 0.101076 0.443664 -0.630900
H1    H     H_    0.300550 0.456102 0.109658 0.205327
H2    H     H_    0.832566 0.620459 0.155182 0.131459
H3    H     H_    0.489375 0.638185 0.972478 0.232401
H4    H     H_    0.894045 0.145084 0.600980 0.254774
H5    H     H_    0.951708 0.188083 0.545114 0.228472
H6    H     H_    0.965299 0.120283 0.548135 0.261694
H7    H     H_    0.811936 0.672498 0.324367 0.225418
H8    H     H_    0.779033 0.722002 0.260959 0.266683
H9    H     H_    0.764124 0.655061 0.243991 0.213922
H10   H     H_    0.796304 0.698683 0.721788 0.236526
H11   H     H_    0.831014 0.653360 0.652663 0.260472
H12   H     H_    0.789541 0.630905 0.734300 0.215540
H13   H     H_    0.877510 0.586302 0.794653 0.163312
H14   H     H_    0.779017 0.275425 0.259124 0.268994
H15   H     H_    0.808272 0.325197 0.323979 0.220335
H16   H     H_    0.761226 0.341947 0.242790 0.218969
H17   H     H_    0.831712 0.379812 0.157360 0.141405
H18   H     H_    0.545648 0.582518 0.134018 0.171610
H19   H     H_    0.329384 0.123118 0.652943 0.147152
H20   H     H_    0.374266 0.087869 0.297321 0.167594
H21   H     H_    0.597332 0.623032 0.920776 0.148602
H22   H     H_    0.142930 0.164569 0.803900 0.142225
H23   H     H_    0.038184 0.676081 0.089906 0.124068
H24   H     H_    0.063387 0.659167 0.882153 0.139595
H25   H     H_    0.179102 0.544191 0.904004 0.187567
H26   H     H_    0.038442 0.326000 0.092105 0.122715
H27   H     H_    0.649553 0.669050 0.298983 0.135889
H28   H     H_    0.536387 0.176930 0.588687 0.123818
H29   H     H_    0.562434 0.159272 0.382544 0.139980
H30   H     H_    0.668639 0.685853 0.720548 0.128442
H31   H     H_    0.164270 0.047569 0.238217 0.150471
H32   H     H_    0.164688 0.952116 0.238344 0.160703
H33   H     H_    0.677753 0.547967 0.743071 0.140554
H34   H     H_    0.677904 0.452404 0.743233 0.162245
H35   H     H_    0.293452 0.095218 0.869383 0.128427
H36   H     H_    0.300694 0.543973 0.109575 0.189431
H37   H     H_    0.295678 0.904117 0.869391 0.134274
H38   H     H_    0.776589 0.595268 0.365530 0.120310
H39   H     H_    0.779317 0.404478 0.366068 0.121265
H40   H     H_    0.332957 0.047780 0.761483 0.146791
H41   H     H_    0.334807 0.952202 0.761911 0.183885
H42   H     H_    0.802815 0.547733 0.253385 0.133368
H43   H     H_    0.804238 0.452017 0.253719 0.136463
H44   H     H_    0.202698 0.456149 0.110718 0.180082
H45   H     H_    0.131585 0.544345 0.989860 0.150821
H46   H     H_    0.202859 0.543983 0.110778 0.182208
H47   H     H_    0.179205 0.455795 0.903950 0.189014
H48   H     H_    0.131569 0.455593 0.989748 0.152200
H49   H     H_    0.701803 0.956104 0.610341 0.180650
H50   H     H_    0.631623 0.044358 0.488742 0.152978
H51   H     H_    0.701768 0.043948 0.610306 0.182739
H52   H     H_    0.631618 0.955607 0.488808 0.155236
H53   H     H_    0.204747 0.904166 0.131115 0.127561
H54   H     H_    0.203578 0.095610 0.130754 0.130264
H55   H     H_    0.712157 0.404308 0.633897 0.124311
H56   H     H_    0.710366 0.595809 0.633083 0.128040
H57   H     H_    0.368947 0.455703 0.987557 0.207275
H58   H     H_    0.799660 0.956139 0.610041 0.204655
H59   H     H_    0.319461 0.544203 0.902506 0.188685
H60   H     H_    0.368952 0.544509 0.987278 0.172575
H61   H     H_    0.319631 0.455771 0.902635 0.187842
H62   H     H_    0.869010 0.955653 0.488447 0.211937
H63   H     H_    0.820377 0.044245 0.403192 0.191467
H64   H     H_    0.869011 0.044459 0.488506 0.190192
H65   H     H_    0.820314 0.955808 0.403167 0.188629
H66   H     H_    0.140886 0.092820 0.719979 0.162908
H67   H     H_    0.937167 0.617569 0.074120 0.143982
H68   H     H_    0.983862 0.585454 0.874019 0.148636
H69   H     H_    0.679945 0.044144 0.403342 0.187574
H70   H     H_    0.937189 0.384532 0.077467 0.147204
H71   H     H_    0.645841 0.595185 0.218691 0.149845
H72   H     H_    0.434096 0.119596 0.572007 0.150813
H73   H     H_    0.481287 0.086302 0.375782 0.151146
H74   H     H_    0.687499 0.629913 0.824492 0.146617
H75   H     H_    0.047642 0.334335 0.891748 0.140272
H76   H     H_    0.162040 0.819279 0.223806 0.142484
H77   H     H_    0.134742 0.838439 0.804476 0.155532
H78   H     H_    0.160114 0.179794 0.220570 0.138728
H79   H     H_    0.548430 0.836171 0.389127 0.140689
H80   H     H_    0.799626 0.044017 0.610041 0.192547
H81   H     H_    0.663173 0.317819 0.724866 0.141671
H82   H     H_    0.634138 0.338590 0.305179 0.152965
H83   H     H_    0.520356 0.813809 0.581977 0.135235
H84   H     H_    0.959629 0.403809 0.883613 0.161182
H85   H     H_    0.169299 0.876754 0.328624 0.200290
H86   H     H_    0.113763 0.914310 0.729667 0.190303
H87   H     H_    0.166974 0.120571 0.323133 0.165932
H88   H     H_    0.461210 0.906105 0.378443 0.165821
H89   H     H_    0.671922 0.373929 0.831024 0.196964
H90   H     H_    0.613579 0.414359 0.230104 0.169272
H91   H     H_    0.679908 0.955759 0.403384 0.188693
H92   H     H_    0.409070 0.863447 0.567873 0.175944
H93   H     H_    0.356247 0.830914 0.199567 0.154195
H94   H     H_    0.470319 0.316936 0.913907 0.151937
H95   H     H_    0.438543 0.339802 0.119276 0.164901
H96   H     H_    0.329875 0.808979 0.773271 0.146102
H97   H     H_    0.855820 0.331372 0.701707 0.150295
H98   H     H_    0.968513 0.818787 0.412156 0.150839
H99   H     H_    0.938256 0.839875 0.619531 0.165638
H100  H     H_    0.966453 0.177697 0.408542 0.143350
H101  H     H_    0.377771 0.631818 0.154475 0.275958
H102  H     H_    0.053451 0.088832 0.620531 0.203736
H103  H     H_    0.412888 0.662994 0.071581 0.226018
H104  H     H_    0.433573 0.597977 0.091743 0.215922
H105  H     H_    0.308350 0.174725 0.822392 0.218031
H106  H     H_    0.277891 0.225021 0.759043 0.269931
H107  H     H_    0.260882 0.158502 0.741371 0.220238
H108  H     H_    0.294299 0.200427 0.223947 0.240023
H109  H     H_    0.328171 0.155062 0.154532 0.255616
H110  H     H_    0.286816 0.132674 0.236304 0.218809
H111  H     H_    0.462601 0.704187 0.968242 0.246553
H112  H     H_    0.416955 0.654293 0.912857 0.250061
O1    O     O_3   0.249990 0.250010 0.000000 -0.489403
O2    O     O_R   0.835430 0.219350 0.353840 -0.637136
O3    O     O_R   0.835430 0.219350 0.646160 -0.638875
O4    O     O_R   0.835430 0.780650 0.353840 -0.637704
O5    O     O_R   0.164550 0.280640 0.853840 -0.639544
O6    O     O_R   0.164550 0.719360 0.146160 -0.633823
O7    O     O_R   0.164550 0.719360 0.853840 -0.633813
O8    O     O_R   0.164550 0.280640 0.146160 -0.638366
O9    O     O_R   0.664550 0.780640 0.353840 -0.641381
O10   O     O_R   0.664550 0.219360 0.646160 -0.634892
O11   O     O_R   0.664550 0.219360 0.353840 -0.642597
O12   O     O_3   0.249990 0.749990 0.000000 -0.488370
O13   O     O_R   0.664550 0.780640 0.646160 -0.637594
O14   O     O_R   0.396160 0.219380 0.914560 -0.631411
O15   O     O_R   0.396160 0.780620 0.085440 -0.634329
O16   O     O_R   0.396160 0.780620 0.914560 -0.637636
O17   O     O_R   0.396160 0.219380 0.085440 -0.626898
O18   O     O_R   0.896160 0.719380 0.414560 -0.629353
O19   O     O_R   0.896160 0.280620 0.585440 -0.632090
O20   O     O_R   0.896160 0.280620 0.414560 -0.633185
O21   O     O_R   0.896160 0.719380 0.585440 -0.625430
O22   O     O_R   0.103840 0.219370 0.085450 -0.629798
O23   O     O_3   0.749990 0.750010 0.500000 -0.489914
O24   O     O_R   0.103840 0.780630 0.914550 -0.635625
O25   O     O_R   0.103840 0.780630 0.085450 -0.632575
O26   O     O_R   0.103840 0.219370 0.914550 -0.631563
O27   O     O_R   0.603840 0.719370 0.585450 -0.630309
O28   O     O_R   0.603840 0.280630 0.414550 -0.630325
O29   O     O_R   0.603840 0.280630 0.585450 -0.631199
O30   O     O_R   0.603840 0.719370 0.414550 -0.628981
O31   O     O_R   0.310730 0.133160 0.000000 -0.640220
O32   O     O_R   0.310730 0.866840 0.000000 -0.630267
O33   O     O_R   0.810730 0.633160 0.500000 -0.639199
O34   O     O_3   0.749990 0.249990 0.500000 -0.488702
O35   O     O_R   0.810730 0.366840 0.500000 -0.629941
O36   O     O_R   0.249970 0.366860 0.060720 -0.644922
O37   O     O_R   0.249970 0.633140 0.939280 -0.647779
O38   O     O_R   0.249970 0.633140 0.060720 -0.650303
O39   O     O_R   0.249970 0.366860 0.939280 -0.642659
O40   O     O_R   0.749970 0.866860 0.560720 -0.644510
O41   O     O_R   0.749970 0.133140 0.439280 -0.641571
O42   O     O_R   0.749970 0.133140 0.560720 -0.653587
O43   O     O_R   0.749970 0.866860 0.439280 -0.642975
O44   O     O_R   0.189290 0.133150 0.000000 -0.637341
O45   O     O_R   0.335430 0.280650 0.146160 -0.643231
O46   O     O_R   0.189290 0.866850 0.000000 -0.642528
O47   O     O_R   0.689290 0.633150 0.500000 -0.636031
O48   O     O_R   0.689290 0.366850 0.500000 -0.641393
O49   O     O_R   0.335430 0.719350 0.853840 -0.634255
O50   O     O_R   0.335430 0.719350 0.146160 -0.638857
O51   O     O_R   0.335430 0.280650 0.853840 -0.637292
O52   O     O_R   0.835430 0.780650 0.646160 -0.645162
Zn1   Zn    Zn3+2 0.249990 0.293780 0.913250 0.959291
Zn2   Zn    Zn3+2 0.336760 0.793760 0.000000 0.970345
Zn3   Zn    Zn3+2 0.836760 0.706240 0.500000 0.973554
Zn4   Zn    Zn3+2 0.836760 0.293760 0.500000 0.973970
Zn5   Zn    Zn3+2 0.163250 0.206230 0.000000 0.966581
Zn6   Zn    Zn3+2 0.163250 0.793770 0.000000 0.968907
Zn7   Zn    Zn3+2 0.663250 0.706230 0.500000 0.968493
Zn8   Zn    Zn3+2 0.663250 0.293770 0.500000 0.968115
Zn9   Zn    Zn3+2 0.249990 0.706220 0.086750 0.947951
Zn10  Zn    Zn3+2 0.249990 0.706220 0.913250 0.959042
Zn11  Zn    Zn3+2 0.249990 0.293780 0.086750 0.961811
Zn12  Zn    Zn3+2 0.749990 0.793780 0.413250 0.958776
Zn13  Zn    Zn3+2 0.749990 0.206220 0.586750 0.954527
Zn14  Zn    Zn3+2 0.749990 0.206220 0.413250 0.953826
Zn15  Zn    Zn3+2 0.749990 0.793780 0.586750 0.961075
Zn16  Zn    Zn3+2 0.336760 0.206240 0.000000 0.970872

loop_
_geom_bond_atom_site_label_1
_geom_bond_atom_site_label_2
_ccdc_geom_bond_type
O5    Zn1   S    
C182  O9    A    
C75   C117  A    
C74   C83   A    
O22   Zn5   S    
C9    C143  A    
O1    Zn16  S    
C136  C162  A    
C16   H30   S    
C54   O43   A    
C57   Cl7   S    
C167  O18   A    
C56   H1    S    
C31   C36   A    
C62   H69   S    
C58   C60   S    
C29   C33   A    
C101  C128  S    
C118  C153  A    
O38   Zn9   S    
C61   C63   S    
C62   C64   S    
C131  C140  A    
C175  C188  A    
C130  C167  S    
C109  C127  A    
O35   Zn4   S    
C141  C168  A    
C65   H57   S    
O32   Zn2   S    
C4    C12   A    
C147  C155  A    
C48   O31   A    
C6    C171  A    
C153  C180  S    
C100  C109  A    
O14   Zn16  S    
C21   C22   A    
O49   Zn10  S    
C98   H12   S    
C95   H111  S    
C80   C121  A    
C45   C47   A    
C155  C182  S    
C150  C159  A    
C27   C31   A    
C105  H99   S    
C28   C32   A    
C177  O26   A    
C53   O38   A    
C178  Cl1   S    
C19   C23   A    
C123  C126  S    
C170  H19   S    
C20   C28   A    
C33   C50   S    
C120  C155  A    
C17   C21   A    
C82   C91   A    
C142  C151  A    
C78   C120  A    
C43   C44   A    
C12   H27   S    
C37   C38   A    
C134  O52   A    
C183  O29   A    
O12   Zn6   S    
C146  C154  A    
C93   C161  S    
C41   H55   S    
O9    Zn12  S    
C122  C158  A    
O23   Zn15  S    
C164  C173  A    
O34   Zn14  S    
C163  C172  A    
C112  C125  S    
C69   H64   S    
C46   C84   A    
C171  H20   S    
C181  O8    A    
O48   Zn8   S    
C31   C48   S    
O2    Zn14  S    
C80   H81   S    
C97   H8    S    
C53   C71   S    
C107  C120  A    
C15   C149  A    
C123  O51   A    
O11   Zn14  S    
C60   H47   S    
O12   Zn9   S    
C50   O47   A    
C56   H44   S    
C33   C38   A    
C129  C156  S    
O15   Zn2   S    
C96   H6    S    
C63   H51   S    
C84   H85   S    
C106  C115  A    
O17   Zn16  S    
O23   Zn7   S    
C167  O4    A    
C56   C59   S    
O27   Zn7   S    
C92   H101  S    
C92   C160  S    
C133  C160  A    
C80   C88   A    
O50   Zn9   S    
O36   Zn11  S    
O7    Zn10  S    
C57   C85   A    
C76   H77   S    
C44   H31   S    
C67   H62   S    
C3    C11   A    
C3    C176  A    
C134  O21   A    
O24   Zn6   S    
C94   H110  S    
C1    O45   A    
C41   C45   A    
C176  H17   S    
C98   H10   S    
O23   Zn12  S    
C168  C176  A    
C108  C126  A    
C76   C85   A    
C110  C128  A    
C180  O24   A    
C78   C87   A    
C99   H15   S    
C186  H66   S    
C4    H71   S    
C15   H29   S    
C132  C145  S    
C55   O42   A    
C75   C84   A    
C151  C177  S    
C21   H40   S    
C75   H76   S    
C25   H43   S    
C65   C70   S    
C2    C90   A    
C67   C72   S    
C139  C165  A    
C87   H88   S    
C101  O49   A    
C139  C143  A    
C145  O2    A    
C10   C188  A    
C5    C170  A    
C62   C73   S    
C133  C147  A    
C60   C70   S    
O45   Zn11  S    
C149  C158  A    
C181  O22   A    
C22   H41   S    
C3    H70   S    
O19   Zn4   S    
C135  C161  A    
O16   Zn2   S    
C67   H65   S    
C58   H25   S    
C46   Cl6   S    
C115  C132  A    
C113  C130  A    
C30   C34   A    
C92   H103  S    
C34   C39   A    
C17   C27   A    
C93   H106  S    
C112  O50   A    
C107  C125  A    
C137  C163  A    
C23   H42   S    
C8    C186  A    
C165  C174  A    
C96   C164  S    
O34   Zn8   S    
C174  C187  A    
C40   H54   S    
C64   H52   S    
O28   Zn8   S    
O4    Zn12  S    
C24   Cl4   S    
C10   C144  A    
C32   C37   A    
C98   C166  S    
C113  C117  A    
C66   H60   S    
C26   C30   A    
C115  C119  A    
C137  C150  A    
O41   Zn14  S    
C51   O35   A    
C19   H38   S    
C43   H32   S    
O3    Zn13  S    
C132  C141  A    
C96   H4    S    
C49   O46   A    
C18   C22   A    
C7    H74   S    
C11   C146  A    
O12   Zn2   S    
O44   Zn5   S    
O30   Zn7   S    
C159  C185  S    
C90   C108  A    
C88   H89   S    
C34   C36   A    
C148  C157  A    
C175  H13   S    
C177  O5    A    
C37   C41   A    
O25   Zn6   S    
C104  C113  A    
C55   C73   S    
C40   C44   A    
C45   H34   S    
O8    Zn11  S    
C16   C150  A    
C7    C172  A    
C116  C151  A    
O23   Zn3   S    
C114  C131  A    
O39   Zn1   S    
C184  O28   A    
C108  C121  A    
C131  C134  S    
C136  C149  A    
C26   C27   A    
C59   H46   S    
C12   C147  A    
C28   C29   A    
O40   Zn15  S    
C35   C103  A    
O18   Zn3   S    
C53   O37   A    
O42   Zn13  S    
C58   C71   S    
C62   H50   S    
C20   C25   A    
C104  H98   S    
C154  C181  S    
C103  C111  A    
C82   C124  A    
O10   Zn13  S    
C110  C124  A    
C111  C129  A    
O20   Zn4   S    
O6    Zn9   S    
C160  C169  A    
C69   C73   S    
C111  C116  A    
C69   H63   S    
O52   Zn15  S    
C81   C89   A    
C9    H23   S    
C42   H56   S    
C89   H90   S    
C6    H73   S    
C91   H92   S    
C97   H7    S    
C130  C139  A    
C93   H107  S    
C103  H97   S    
C140  C166  A    
C60   H48   S    
O12   Zn10  S    
C81   H82   S    
C83   H84   S    
C138  C142  A    
C35   C83   A    
C52   O39   A    
C63   C73   S    
C9    C187  A    
C46   C104  A    
C32   C51   S    
C66   C71   S    
O29   Zn8   S    
C55   O41   A    
C20   H39   S    
O47   Zn7   S    
C173  H102  S    
C79   C107  A    
C68   Cl8   S    
C127  C136  A    
C5    C14   A    
C141  C146  A    
C61   C72   S    
C143  C152  A    
C156  O3    A    
C126  C135  A    
C119  C154  A    
C85   H86   S    
C98   H11   S    
C102  C110  A    
C19   C29   A    
C95   H112  S    
C102  H96   S    
C99   C168  S    
O1    Zn5   S    
C77   H78   S    
O34   Zn4   S    
C140  C144  A    
C106  H100  S    
C74   H75   S    
C179  O25   A    
C180  O7    A    
C81   C122  A    
C152  C179  S    
C179  O6    A    
C87   C178  A    
C90   H94   S    
C97   C165  S    
O34   Zn13  S    
C24   C102  A    
C76   C118  A    
C8    H22   S    
C35   Cl5   S    
C63   H80   S    
C52   O36   A    
C5    H72   S    
C8    C142  A    
C157  C183  S    
C97   H9    S    
C158  C184  S    
C172  H21   S    
O1    Zn11  S    
C185  O13   A    
C57   C105  A    
C123  O14   A    
C54   O40   A    
C61   H58   S    
O46   Zn6   S    
C68   C86   A    
C65   H61   S    
C82   H83   S    
C17   H35   S    
C18   H37   S    
C10   H24   S    
C96   H5    S    
C169  H18   S    
C92   H104  S    
C14   H28   S    
C38   C42   A    
C100  H95   S    
C95   C163  S    
C109  C122  A    
O21   Zn3   S    
C61   H49   S    
C124  C159  A    
C14   C148  A    
C51   O48   A    
C93   H105  S    
C144  C153  A    
C48   O44   A    
C6    C15   A    
C129  C138  A    
C94   H109  S    
C2    Cl2   S    
C86   H87   S    
C2    C88   A    
C117  C152  A    
C185  O27   A    
C23   C25   A    
C121  C157  A    
C68   C106  A    
C78   H79   S    
C59   H36   S    
C11   H26   S    
C99   H16   S    
C173  C186  A    
C174  H2    S    
C4    C169  A    
C183  O10   A    
C105  C114  A    
C36   C40   A    
C39   C43   A    
C67   C69   S    
O31   Zn16  S    
C58   H45   S    
C128  C137  A    
C166  C175  A    
C39   H53   S    
C101  O16   A    
C182  O30   A    
O43   Zn12  S    
C74   C116  A    
C18   C26   A    
O13   Zn15  S    
C79   C178  A    
O51   Zn1   S    
C114  C118  A    
C79   H93   S    
C161  C170  A    
C49   O32   A    
C77   C86   A    
C135  C148  A    
C56   C70   S    
C145  O20   A    
C24   C91   A    
C64   H91   S    
C125  C133  A    
C94   C162  S    
O37   Zn10  S    
C7    C16   A    
C50   O33   A    
C13   C89   A    
C30   C49   S    
C1    C127  S    
C94   H108  S    
C77   C119  A    
C112  O15   A    
C47   H33   S    
C188  H68   S    
C13   Cl3   S    
C13   C100  A    
C184  O11   A    
O33   Zn3   S    
C187  H67   S    
O26   Zn5   S    
C42   C47   A    
C64   C72   S    
C156  O19   A    
C52   C70   S    
O1    Zn1   S    
C162  C171  A    
C54   C72   S    
C66   H59   S    
C95   H3    S    
C65   C66   S    
C138  C164  A    
C1    O17   A    
C59   C71   S    
C99   H14   S    
