data_mof_unit_37104.cif
_audit_creation_date              2012-12-11T15:56:01-0500
_audit_creation_method            fapswitch 2.2
_symmetry_space_group_name_H-M    P1
_symmetry_Int_Tables_number       1
_space_group_crystal_system       triclinic
_cell_length_a                    10.995416
_cell_length_b                    10.951715
_cell_length_c                    18.73474
_cell_angle_alpha                 90.45883
_cell_angle_beta                  90.644649
_cell_angle_gamma                 59.497204
_cell_volume                      1943.66019086

loop_
_atom_site_label
_atom_site_type_symbol
_atom_type_description
_atom_site_fract_x
_atom_site_fract_y
_atom_site_fract_z
_atom_type_partial_charge
C1    C     C_R   0.387001 0.709495 0.389568 0.539777
C2    C     C_R   0.234700 0.389740 0.209966 -0.100855
C3    C     C_R   0.251961 0.404141 0.282027 -0.010160
C4    C     C_R   0.416250 0.377177 0.382599 0.532912
C5    C     C_R   0.967107 0.554560 0.455219 -0.059363
C6    C     C_R   0.059174 0.409839 0.445639 -0.076689
C7    C     C_R   0.137411 0.360228 0.383152 -0.084410
C8    C     C_R   0.128832 0.455459 0.330506 0.063750
C9    C     C_R   0.389559 0.360087 0.308179 -0.012087
C10   C     C_R   0.937631 0.309076 0.193377 0.010514
C11   C     C_R   0.995008 0.196388 0.242065 -0.022126
C12   C     C_R   0.609598 0.221197 0.141193 0.047929
C13   C     C_R   0.946164 0.216332 0.311246 -0.002057
C14   C     C_R   0.803884 0.466645 0.289353 -0.143657
C15   C     C_R   0.850776 0.446876 0.219991 -0.144917
C16   C     C_R   0.778130 0.378875 0.403361 0.531438
C17   C     C_3   0.015567 0.051120 0.239437 -0.250652
C18   C     C_3   0.958054 0.075237 0.314945 -0.285025
C19   C     C_R   0.842560 0.349734 0.334116 0.028366
C20   C     C_R   0.373702 0.809323 0.168046 0.000161
C21   C     C_R   0.447443 0.845504 0.216951 0.007529
C22   C     C_R   0.457503 0.808269 0.288412 0.010371
C23   C     C_R   0.350064 0.334009 0.163555 -0.001411
C24   C     C_R   0.333724 0.684465 0.263213 -0.161602
C25   C     C_R   0.328860 0.716305 0.190649 -0.143575
C26   C     C_3   0.426761 0.987882 0.235014 -0.257373
C27   C     C_3   0.439811 0.946313 0.312933 -0.258465
C28   C     C_R   0.342076 0.772807 0.603250 0.552254
C29   C     C_R   0.389780 0.738049 0.313536 -0.008072
C30   C     C_R   0.301412 0.307353 0.808858 0.002374
C31   C     C_R   0.418337 0.199731 0.773476 0.015590
C32   C     C_R   0.429929 0.203591 0.701246 -0.004205
C33   C     C_R   0.196710 0.410413 0.693776 -0.170794
C34   C     C_R   0.505259 0.304725 0.261914 -0.165789
C35   C     C_R   0.184766 0.406420 0.768176 -0.158556
C36   C     C_3   0.571995 0.146581 0.787098 -0.096265
C37   C     C_3   0.584935 0.151569 0.707025 -0.206845
C38   C     C_R   0.325643 0.315797 0.661111 0.006511
C39   C     C_R   0.814750 0.327092 0.835833 -0.001089
C40   C     C_R   0.368924 0.348010 0.594566 0.547286
C41   C     C_R   0.744134 0.460322 0.803488 -0.007115
C42   C     C_R   0.736721 0.470788 0.730541 0.024435
C43   C     C_R   0.847506 0.218139 0.717889 -0.170450
C44   C     C_R   0.856362 0.205994 0.792543 -0.155087
C45   C     C_R   0.486643 0.291675 0.189281 -0.032867
C46   C     C_3   0.759176 0.588881 0.810580 -0.232722
C47   C     C_3   0.756048 0.595918 0.730005 -0.224969
C48   C     C_R   0.795157 0.351570 0.686367 0.013751
C49   C     C_R   0.287545 0.873116 0.819954 0.015116
C50   C     C_R   0.183439 0.863385 0.782484 0.012208
C51   C     C_R   0.190908 0.848302 0.709526 0.019642
C52   C     C_R   0.763504 0.376707 0.610760 0.538621
C53   C     C_R   0.388587 0.885475 0.706679 -0.163127
C54   C     C_R   0.383225 0.896781 0.780909 -0.148653
C55   C     C_3   0.132562 0.762109 0.792444 -0.277557
C56   C     C_R   0.025081 0.601956 0.337394 0.057449
C57   C     C_3   0.141497 0.743698 0.712198 -0.253096
C58   C     C_R   0.302264 0.844851 0.671519 0.014093
C59   C     C_R   0.973050 0.289934 0.118174 0.548326
C60   C     C_R   0.326856 0.294280 0.092841 0.530018
C61   C     C_R   0.310975 0.893788 0.103763 0.532550
C62   C     C_R   0.880661 0.309810 0.905332 0.546232
C63   C     C_R   0.293609 0.286695 0.884310 0.540873
C64   C     C_R   0.788231 0.060941 0.029290 -0.054961
C65   C     C_R   0.271781 0.900869 0.895944 0.545902
C66   C     C_R   0.798428 0.997290 0.095125 -0.111898
C67   C     C_R   0.946198 0.649127 0.400544 -0.126269
C68   C     C_R   0.708891 0.076850 0.150877 -0.098483
C69   C     C_2   0.652390 0.999878 0.819123 0.189094
C70   C     C_2   0.997243 0.711295 0.283022 0.184134
C71   C     C_R   0.606890 0.286511 0.076427 -0.060082
C72   C     C_R   0.692599 0.205593 0.020092 -0.050134
Cr1   Cr    Cr6+3 0.601740 0.606840 0.505840 0.988184
Cr2   Cr    Cr6+3 0.291500 0.601560 0.495070 0.998933
Cr3   Cr    Cr6+3 0.606780 0.291630 0.499130 0.991675
Cr4   Cr    Cr6+3 0.062440 0.063060 0.008240 0.994445
Cr5   Cr    Cr6+3 0.062950 0.375000 0.998920 1.014230
Cr6   Cr    Cr6+3 0.374550 0.061770 0.992470 0.998105
H1    H     H_    0.609904 0.272115 0.282507 0.122407
H2    H     H_    0.037992 0.004920 0.354969 0.161662
H3    H     H_    0.283883 0.627698 0.280804 0.166557
H4    H     H_    0.681342 0.254598 0.968720 0.096300
H5    H     H_    0.273640 0.683502 0.154135 0.171931
H6    H     H_    0.319898 0.076283 0.220215 0.132145
H7    H     H_    0.515434 0.999775 0.216414 0.150408
H8    H     H_    0.536915 0.933228 0.339183 0.143893
H9    H     H_    0.340882 0.010323 0.343398 0.139672
H10   H     H_    0.111693 0.494993 0.663425 0.119189
H11   H     H_    0.088383 0.483889 0.793803 0.132316
H12   H     H_    0.907883 0.593077 0.504186 0.118270
H13   H     H_    0.589373 0.225028 0.816609 0.097900
H14   H     H_    0.608465 0.234521 0.691207 0.152471
H15   H     H_    0.869419 0.760428 0.408171 0.072577
H16   H     H_    0.648992 0.048046 0.679511 0.180329
H17   H     H_    0.883797 0.124103 0.685189 0.133938
H18   H     H_    0.907505 0.101063 0.815697 0.155710
H19   H     H_    0.861371 0.569238 0.832647 0.173245
H20   H     H_    0.665118 0.679227 0.835658 0.144390
H21   H     H_    0.663382 0.691380 0.708184 0.164632
H22   H     H_    0.858638 0.571243 0.706658 0.138398
H23   H     H_    0.072279 0.336242 0.487385 0.105357
H24   H     H_    0.467398 0.896360 0.677917 0.132451
H25   H     H_    0.456507 0.920199 0.807589 0.156945
H26   H     H_    0.022713 0.815356 0.812650 0.182846
H27   H     H_    0.854229 0.998245 0.985436 0.109448
H28   H     H_    0.209534 0.665014 0.821930 0.134574
H29   H     H_    0.225455 0.636485 0.695454 0.164803
H30   H     H_    0.036958 0.783838 0.685835 0.154610
H31   H     H_    0.872979 0.885458 0.102394 0.140249
H32   H     H_    0.712828 0.024292 0.200262 0.095150
H33   H     H_    0.529024 0.396989 0.067401 0.092439
H34   H     H_    0.215130 0.248697 0.378940 0.104126
H35   H     H_    0.131136 0.415418 0.190807 0.166770
H36   H     H_    0.632490 0.983232 0.873652 0.137817
H37   H     H_    0.933395 0.822539 0.296967 0.095523
H38   H     H_    0.730364 0.573935 0.306414 0.148158
H39   H     H_    0.810996 0.539926 0.186587 0.163017
H40   H     H_    0.128569 0.970166 0.237469 0.165603
H41   H     H_    0.948958 0.039034 0.198931 0.177309
H42   H     H_    0.853682 0.082570 0.318254 0.130967
O1    O     O_R   0.748670 0.497520 0.427970 -0.532573
O2    O     O_R   0.417470 0.174910 0.067830 -0.506638
O3    O     O_R   0.375160 0.946380 0.070880 -0.494242
O4    O     O_R   0.476470 0.723930 0.429450 -0.497373
O5    O     O_R   0.160500 0.919670 0.926690 -0.521421
O6    O     O_R   0.933140 0.190380 0.936050 -0.518323
O7    O     O_R   0.909010 0.403210 0.925030 -0.518938
O8    O     O_R   0.179590 0.361290 0.918480 -0.502298
O9    O     O_R   0.391360 0.170840 0.907510 -0.545439
O10   O     O_R   0.350950 0.942600 0.922260 -0.516351
O11   O     O_3   0.166650 0.166610 0.999880 -0.261946
O12   O     O_R   0.300170 0.471020 0.567120 -0.503737
O13   O     O_R   0.264730 0.744140 0.416740 -0.527474
O14   O     O_R   0.309440 0.472410 0.418220 -0.503116
O15   O     O_R   0.501630 0.260530 0.414310 -0.517804
O16   O     O_R   0.727920 0.305730 0.428950 -0.518351
O17   O     O_R   0.738670 0.496020 0.588600 -0.527697
O18   O     O_R   0.467190 0.722540 0.578350 -0.499754
O19   O     O_R   0.254720 0.742640 0.577370 -0.519408
O20   O     O_2   0.743494 0.899290 0.785741 -0.578729
O21   O     O_2   0.039308 0.680687 0.221926 -0.557550
O22   O     O_R   0.491630 0.259030 0.574940 -0.522854
O23   O     O_R   0.718640 0.304340 0.577850 -0.507591
O24   O     O_3   0.500010 0.500010 0.500020 -0.274261
O25   O     O_R   0.186620 0.923750 0.087000 -0.528674
O26   O     O_R   0.957350 0.194160 0.084660 -0.487470
O27   O     O_R   0.935120 0.407280 0.085350 -0.522704
O28   O     O_R   0.203800 0.365060 0.067090 -0.515060

loop_
_geom_bond_atom_site_label_1
_geom_bond_atom_site_label_2
_ccdc_geom_bond_type
C66   C68   A    
C21   C26   S    
C23   C45   A    
C22   C29   A    
C40   O22   A    
Cr4   O6    S    
C41   C42   A    
C24   H3    S    
C8    C56   A    
C65   O10   A    
C7    C8    A    
C39   C41   A    
C53   C54   A    
C12   C68   A    
C26   C27   S    
C49   C65   S    
C13   C18   S    
C44   H18   S    
C36   C37   S    
C33   H10   S    
Cr2   O12   S    
C10   C15   A    
C26   H7    S    
C62   O7    A    
Cr4   O11   S    
Cr3   O15   S    
C20   C25   A    
C49   C54   A    
Cr2   O13   S    
C47   H21   S    
C7    H34   S    
Cr5   O11   S    
C6    H23   S    
C51   C58   A    
C20   C61   S    
C61   O25   A    
C24   C29   A    
C33   C35   A    
C71   H33   S    
C43   H17   S    
C41   C46   S    
C51   C57   S    
C32   C38   A    
C52   O17   A    
C43   C48   A    
Cr5   O27   S    
C63   O8    A    
Cr5   O7    S    
C5    C67   A    
C69   O20   D    
C64   C72   A    
C46   H20   S    
Cr4   O26   S    
C21   C22   A    
Cr4   O5    S    
C28   O19   A    
C46   H19   S    
C1    O13   A    
C50   C51   A    
C23   C60   S    
C69   H36   S    
C52   O23   A    
C13   C19   A    
C55   H28   S    
C54   H25   S    
C64   H27   S    
C28   O18   A    
C24   C25   A    
C3    C8    S    
Cr3   O24   S    
C62   O6    A    
Cr3   O16   S    
C42   C48   A    
C55   H26   S    
C47   H22   S    
C15   H39   S    
C65   O5    A    
C27   H8    S    
C60   O2    A    
C16   O1    A    
C3    C9    A    
Cr3   O22   S    
C34   H1    S    
C31   C32   A    
C53   H24   S    
Cr1   O4    S    
C1    C29   S    
C17   C18   S    
C34   C45   A    
C68   H32   S    
C32   C37   S    
C27   H9    S    
Cr6   O3    S    
Cr5   O28   S    
C6    C7    A    
Cr5   O8    S    
Cr3   O23   S    
C17   H40   S    
C4    O15   A    
C35   H11   S    
C36   H13   S    
C57   H29   S    
C12   C71   A    
Cr4   O25   S    
Cr1   O1    S    
C22   C27   S    
C55   C57   S    
C43   C44   A    
C9    C34   A    
C16   O16   A    
C18   H42   S    
C36   C69   S    
C4    O14   A    
C39   C62   S    
Cr2   O24   S    
C46   C47   S    
C11   C17   S    
C70   O21   D    
C26   H6    S    
C37   H14   S    
C31   C36   S    
C25   H5    S    
C14   C19   A    
Cr6   O9    S    
Cr6   O11   S    
C5    H12   S    
C12   C45   S    
C53   C58   A    
C39   C44   A    
C28   C58   S    
C70   H37   S    
C56   C67   A    
C30   C35   A    
Cr2   O19   S    
C56   C70   S    
C50   C55   S    
C61   O3    A    
C2    C3    A    
Cr6   O10   S    
C1    O4    A    
C71   C72   A    
C38   C40   S    
C11   C13   A    
C30   C31   A    
C5    C6    A    
Cr1   O17   S    
C16   C19   S    
C14   H38   S    
Cr2   O14   S    
C2    H35   S    
C37   H16   S    
C10   C59   S    
C42   C47   S    
C63   O9    A    
C66   H31   S    
C40   O12   A    
Cr6   O2    S    
C10   C11   A    
C17   H41   S    
C59   O26   A    
C48   C52   S    
C57   H30   S    
C20   C21   A    
C18   H2    S    
C49   C50   A    
Cr1   O18   S    
C2    C23   A    
C67   H15   S    
C14   C15   A    
C33   C38   A    
C60   O28   A    
C4    C9    S    
C30   C63   S    
C72   H4    S    
C64   C66   A    
Cr1   O24   S    
C59   O27   A    
