data_mof_unit_20262.cif
_audit_creation_date              2012-12-11T15:53:39-0500
_audit_creation_method            fapswitch 2.2
_symmetry_space_group_name_H-M    P1
_symmetry_Int_Tables_number       1
_space_group_crystal_system       triclinic
_cell_length_a                    6.968601
_cell_length_b                    14.520117
_cell_length_c                    16.011248
_cell_angle_alpha                 90.42379
_cell_angle_beta                  89.817713
_cell_angle_gamma                 89.789417
_cell_volume                      1620.03295848

loop_
_atom_site_label
_atom_site_type_symbol
_atom_type_description
_atom_site_fract_x
_atom_site_fract_y
_atom_site_fract_z
_atom_type_partial_charge
O1    O     O_R   0.361600 0.167310 0.164620 -0.543527
O2    O     O_R   0.638400 0.832690 0.835380 -0.537458
O3    O     O_R   0.691080 0.157570 0.338750 -0.545485
O4    O     O_R   0.308920 0.842430 0.661250 -0.548900
O5    O     O_R   0.861410 0.336420 0.339360 -0.546904
O6    O     O_R   0.138590 0.663580 0.660640 -0.548169
C1    C     C_R   0.522078 0.135306 0.367424 0.684612
C2    C     C_R   0.477912 0.864636 0.632524 0.676333
O7    O     O_R   0.691320 0.156280 0.165240 -0.535392
O8    O     O_R   0.308680 0.843720 0.834760 -0.534131
O9    O     O_R   0.861640 0.335130 0.164600 -0.547581
O10   O     O_R   0.138360 0.664870 0.835400 -0.540197
C3    C     C_R   0.522243 0.132196 0.137615 0.687296
C4    C     C_R   0.477420 0.864246 0.865338 0.708997
O11   O     O_R   0.361370 0.168600 0.339370 -0.544062
O12   O     O_R   0.638630 0.831400 0.660630 -0.545497
O13   O     O_3   0.527990 0.310540 0.251980 -0.359788
O14   O     O_3   0.472010 0.689460 0.748020 -0.366237
V1    V     V_3+5 0.802830 0.240980 0.251990 1.458622
V2    V     V_3+5 0.197170 0.759020 0.748010 1.446250
O15   O     O_R   0.191360 0.346160 0.165220 -0.510983
O16   O     O_R   0.808640 0.653840 0.834780 -0.513373
C5    C     C_R   0.022896 0.366194 0.134676 0.742967
C6    C     C_R   0.977675 0.629721 0.862099 0.778895
O17   O     O_R   0.191130 0.347440 0.338740 -0.530432
O18   O     O_R   0.808870 0.652560 0.661260 -0.534937
C7    C     C_R   0.021679 0.369786 0.367095 0.742636
C8    C     C_R   0.978342 0.630026 0.633099 0.721858
V3    V     V_3+5 0.302840 0.262750 0.251990 1.506327
V4    V     V_3+5 0.697160 0.737250 0.748010 1.487663
O19   O     O_3   0.027820 0.193180 0.251990 -0.368773
O20   O     O_3   0.972180 0.806820 0.748010 -0.377006
C9    C     C_3   0.820843 0.486518 0.468338 -0.305016
C10   C     C_3   0.179106 0.513098 0.532140 -0.316995
C11   C     C_3   0.885404 0.467741 0.559314 0.502088
C12   C     C_3   0.114598 0.531911 0.441173 0.506236
H1    H     H_    0.675558 0.475996 0.441751 0.151607
H2    H     H_    0.324326 0.523595 0.558806 0.150110
C13   C     C_3   0.990758 0.560661 0.563082 -0.156352
C14   C     C_3   0.009253 0.438972 0.437329 -0.157736
C15   C     C_3   0.929615 0.579336 0.472079 -0.119846
C16   C     C_3   0.070351 0.420277 0.528380 -0.115631
C17   C     C_R   0.821751 0.514795 0.960221 0.496386
C18   C     C_R   0.180119 0.459520 0.019508 0.510783
C19   C     C_R   0.834936 0.457898 0.030469 -0.279588
C20   C     C_R   0.166691 0.528135 0.958405 -0.277877
H3    H     H_    0.704937 0.432402 0.058388 0.217779
H4    H     H_    0.296695 0.555501 0.931919 0.214763
C21   C     C_R   0.013426 0.429982 0.061917 -0.238286
C22   C     C_R   0.987986 0.557709 0.928269 -0.240287
C23   C     C_R   0.678399 0.025051 0.467198 -0.139455
C24   C     C_R   0.321567 0.974765 0.532631 -0.145670
H5    H     H_    0.818341 0.043221 0.442934 0.123031
H6    H     H_    0.181622 0.956586 0.556884 0.118974
C25   C     C_R   0.667432 0.959762 0.530884 -0.119775
C26   C     C_R   0.332532 0.040052 0.468943 -0.110697
H7    H     H_    0.799466 0.929628 0.553663 0.122733
H8    H     H_    0.200496 0.070173 0.446150 0.124367
C27   C     C_R   0.488876 0.933787 0.564550 -0.050043
C28   C     C_R   0.511096 0.066067 0.435316 -0.048528
C29   C     C_R   0.676816 0.025605 0.032416 -0.190963
C30   C     C_R   0.323090 0.968594 0.972700 -0.186427
H9    H     H_    0.814541 0.050758 0.051404 0.146839
H10   H     H_    0.185334 0.950981 0.947690 0.150090
C31   C     C_R   0.666856 0.952207 0.975367 -0.037845
C32   C     C_R   0.333026 0.022205 0.045707 -0.046145
C33   C     C_R   0.489937 0.930680 0.937018 -0.099610
C34   C     C_R   0.509992 0.060676 0.070241 -0.101124
O21   O     O_3   0.770531 0.437560 0.626437 -0.568192
C35   C     C_3   0.659522 0.361781 0.600571 -0.241806
H11   H     H_    0.750118 0.304670 0.575536 0.141953
H12   H     H_    0.551400 0.382795 0.553542 0.142877
H13   H     H_    0.580537 0.335145 0.655527 0.173036
O22   O     O_3   0.229743 0.562465 0.374277 -0.552347
C36   C     C_3   0.340459 0.638181 0.400628 -0.179694
H14   H     H_    0.448844 0.616874 0.447433 0.125453
H15   H     H_    0.249724 0.694988 0.426146 0.130576
H16   H     H_    0.419149 0.665436 0.345858 0.188059
C37   C     C_1   0.854906 0.667538 0.441694 0.292986
N1    N     N_1   0.796451 0.737241 0.417918 -0.368933
C38   C     C_1   0.145076 0.332116 0.558839 0.277012
N2    N     N_1   0.203567 0.262451 0.582689 -0.390319
O23   O     O_3   0.645274 0.526393 0.922974 -0.543211
C39   C     C_3   0.634548 0.465072 0.854080 -0.177942
H17   H     H_    0.659177 0.392416 0.873073 0.105884
H18   H     H_    0.738818 0.483281 0.804234 0.151917
H19   H     H_    0.489005 0.469661 0.826561 0.146385
O24   O     O_3   0.357055 0.420776 0.035530 -0.536879
C40   C     C_3   0.369574 0.336182 0.991365 -0.208974
H20   H     H_    0.266699 0.284606 0.015875 0.112616
H21   H     H_    0.515709 0.307129 0.999362 0.133374
H22   H     H_    0.344631 0.345382 0.923303 0.113738
C41   C     C_1   0.825331 0.888041 0.971729 0.312165
N3    N     N_1   0.946878 0.833533 0.969825 -0.356411
C42   C     C_1   0.175585 0.018312 0.104242 0.299145
N4    N     N_1   0.054976 0.013470 0.153840 -0.337979

loop_
_geom_bond_atom_site_label_1
_geom_bond_atom_site_label_2
_ccdc_geom_bond_type
C18   C21   A    
C32   C34   A    
C41   N3    T    
C25   C27   A    
C17   O23   S    
C42   N4    T    
C10   C16   S    
C39   H19   S    
O4    C2    A    
V1    O19   S    
C38   N2    T    
C13   C15   S    
O9    V1    S    
C30   C33   A    
C39   H18   S    
O3    C1    A    
C2    C27   S    
C5    C21   S    
O12   V4    S    
O13   V3    S    
C29   H9    S    
C11   C16   S    
O7    C3    A    
C30   H10   S    
C9    C11   S    
O5    C7    A    
O7    V1    S    
O6    C8    A    
O8    V2    S    
C31   C33   A    
C4    C33   S    
O3    V1    S    
C35   H11   S    
O14   V4    S    
C40   H21   S    
C23   C25   A    
C24   H6    S    
C14   C16   S    
C2    O12   A    
O17   V3    S    
C12   C15   S    
C16   C38   S    
C18   C20   A    
O11   V3    S    
C19   H3    S    
C6    C22   S    
C20   H4    S    
C9    C14   S    
O22   C36   S    
C30   C32   A    
C10   C13   S    
C12   C14   S    
C39   H17   S    
O8    C4    A    
C1    O11   A    
C8    C13   S    
O15   V3    S    
C9    H1    S    
C26   C28   A    
C23   H5    S    
C11   C13   S    
C36   H14   S    
C24   C27   A    
C36   H15   S    
O23   C39   S    
C19   C21   A    
C7    C14   S    
O10   V2    S    
C35   H13   S    
O1    V3    S    
C40   H22   S    
C17   C19   A    
C12   O22   S    
O18   V4    S    
C25   H7    S    
O16   C6    A    
O1    C3    A    
C1    C28   S    
V2    O20   S    
O10   C6    A    
O16   V4    S    
C10   H2    S    
C15   C37   S    
C17   C22   A    
O5    V1    S    
O17   C7    A    
O6    V2    S    
C20   C22   A    
O18   C8    A    
O2    V4    S    
C9    C15   S    
O15   C5    A    
V3    O19   S    
V4    O20   S    
C29   C34   A    
O9    C5    A    
C31   C41   S    
O13   V1    S    
C10   C12   S    
C26   H8    S    
O14   V2    S    
O21   C35   S    
O2    C4    A    
C36   H16   S    
C37   N1    T    
O4    V2    S    
C29   C31   A    
O24   C40   S    
C11   O21   S    
C35   H12   S    
C23   C28   A    
C40   H20   S    
C18   O24   S    
C24   C26   A    
C32   C42   S    
C3    C34   S    
