data_mof_unit_14352.cif
_audit_creation_date              2012-12-11T17:41:25-0500
_audit_creation_method            fapswitch 2.2
_symmetry_space_group_name_H-M    P1
_symmetry_Int_Tables_number       1
_space_group_crystal_system       triclinic
_cell_length_a                    15.525877
_cell_length_b                    14.875995
_cell_length_c                    15.066463
_cell_angle_alpha                 109.411979
_cell_angle_beta                  120.900491
_cell_angle_gamma                 58.865154
_cell_volume                      2545.16560071

loop_
_atom_site_label
_atom_site_type_symbol
_atom_type_description
_atom_site_fract_x
_atom_site_fract_y
_atom_site_fract_z
_atom_type_partial_charge
C1    C     C_R   0.805401 0.923236 0.763177 0.486601
C2    C     C_R   0.229320 0.020097 0.211350 0.538685
C3    C     C_R   0.137328 0.276584 0.482333 0.202816
C4    C     C_R   0.793840 0.698232 0.439149 0.190116
C5    C     C_R   0.505607 0.323851 0.553941 0.045889
C6    C     C_R   0.497291 0.699242 0.565469 0.059149
C7    C     C_R   0.501725 0.036622 0.825069 0.030475
C8    C     C_R   0.504776 0.065222 0.204111 -0.002945
C9    C     C_R   0.622855 0.683019 0.864250 -0.111305
C10   C     C_R   0.406076 0.397173 0.259276 -0.086288
C11   C     C_R   0.570142 0.790721 0.889741 -0.165044
C12   C     C_R   0.454623 0.299005 0.211055 -0.165327
C13   C     C_R   0.630931 0.851186 0.944321 -0.060272
C14   C     C_R   0.392846 0.266226 0.109151 -0.080661
C15   C     C_R   0.747492 0.801554 0.974121 0.533939
C16   C     C_R   0.279545 0.335858 0.055469 0.544083
C17   C     C_R   0.798228 0.693924 0.944706 -0.098114
C18   C     C_R   0.233124 0.434904 0.104766 -0.121424
C19   C     C_R   0.736506 0.634800 0.890676 -0.218985
C20   C     C_R   0.295600 0.465150 0.206104 -0.208615
C21   C     C_R   0.575437 0.972621 0.078011 -0.209616
C22   C     C_R   0.449834 0.149024 0.966267 -0.248060
C23   C     C_R   0.199711 0.275950 0.441704 -0.081590
C24   C     C_R   0.760422 0.708963 0.513081 -0.040769
C25   C     C_R   0.511791 0.069401 0.115251 0.094277
C26   C     C_R   0.508237 0.049297 0.926171 0.081819
C27   C     C_R   0.450023 0.160326 0.062158 0.040133
C28   C     C_R   0.573638 0.960730 0.983543 0.007841
C29   C     C_2   0.023356 0.353543 0.466028 -0.287957
C30   C     C_2   0.859173 0.598228 0.395640 -0.297546
C31   C     C_2   0.951811 0.408188 0.381758 0.383867
C32   C     C_2   0.856822 0.507174 0.389630 0.384946
C33   C     C_2   0.989537 0.929214 0.836119 -0.193962
C34   C     C_2   0.126333 0.903970 0.108715 -0.201123
C35   C     C_R   0.180613 0.884810 0.614894 -0.159854
C36   C     C_R   0.912086 0.255980 0.713142 -0.104828
C37   C     C_R   0.283067 0.796599 0.634412 -0.189563
C38   C     C_R   0.802032 0.326573 0.662014 -0.203390
C39   C     C_R   0.292389 0.706234 0.563391 0.123431
C40   C     C_R   0.723100 0.356144 0.698835 0.092151
C41   C     C_R   0.197004 0.704611 0.473809 -0.217321
C42   C     C_R   0.755919 0.312296 0.786668 -0.202613
C43   C     C_R   0.094649 0.792823 0.454679 -0.151114
C44   C     C_R   0.866547 0.241272 0.837679 -0.152031
C45   C     C_R   0.595446 0.228379 0.556090 -0.118226
C46   C     C_R   0.406604 0.781880 0.508324 -0.138770
C47   C     C_R   0.086446 0.883117 0.524851 0.268148
C48   C     C_R   0.944799 0.214083 0.801501 0.275881
C49   C     C_R   0.408579 0.516201 0.583558 -0.243059
C50   C     C_R   0.601122 0.533659 0.644512 -0.251997
C51   C     C_R   0.509738 0.425875 0.603283 0.060058
C52   C     C_R   0.498228 0.617799 0.601176 0.052920
C53   C     C_R   0.609060 0.438475 0.649490 0.042459
C54   C     C_R   0.401333 0.613513 0.583218 0.030851
C55   C     C_2   0.025180 0.895602 0.926102 -0.135802
C56   C     C_2   0.123368 0.898647 0.017003 -0.123186
C57   C     C_R   0.407604 0.047847 0.732222 -0.121631
C58   C     C_R   0.594687 0.012352 0.286959 -0.146107
C59   C     C_R   0.410473 0.306242 0.484736 -0.124139
C60   C     C_R   0.590253 0.710301 0.587737 -0.077284
C61   C     C_R   0.593407 0.978944 0.804341 -0.116625
C62   C     C_R   0.410610 0.086971 0.210326 -0.035701
C63   C     C_R   0.198710 0.185946 0.533108 -0.166361
C64   C     C_R   0.761396 0.799224 0.420455 -0.157298
C65   C     C_R   0.808574 0.019391 0.680541 -0.194586
C66   C     C_R   0.233265 0.923880 0.301869 -0.178296
C67   C     C_R   0.872878 0.957016 0.762921 -0.016763
C68   C     C_R   0.194291 0.946938 0.202600 -0.028088
H1    H     H_    0.070734 0.884657 0.114425 0.169084
H2    H     H_    0.040560 0.947454 0.822445 0.189988
H3    H     H_    0.777237 0.551135 0.870740 0.155651
H4    H     H_    0.258208 0.541446 0.243497 0.137914
H5    H     H_    0.575648 0.636659 0.825651 0.141284
H6    H     H_    0.454457 0.420778 0.337885 0.135816
H7    H     H_    0.482561 0.826529 0.871324 0.137190
H8    H     H_    0.541233 0.248383 0.253447 0.146848
H9    H     H_    0.886677 0.655338 0.966044 0.141874
H10   H     H_    0.147148 0.488338 0.064542 0.141695
H11   H     H_    0.621121 0.903099 0.119655 0.140009
H12   H     H_    0.404244 0.216916 0.922723 0.152538
H13   H     H_    0.919247 0.597607 0.378088 0.112079
H14   H     H_    0.001246 0.373119 0.530036 0.114692
H15   H     H_    0.172964 0.328576 0.388531 0.153502
H16   H     H_    0.776106 0.647371 0.549505 0.143414
H17   H     H_    0.174618 0.954541 0.669404 0.161894
H18   H     H_    0.972272 0.234978 0.684823 0.154711
H19   H     H_    0.355388 0.799095 0.703795 0.126357
H20   H     H_    0.778406 0.359204 0.594234 0.143666
H21   H     H_    0.202284 0.635758 0.418053 0.126037
H22   H     H_    0.696534 0.334553 0.816495 0.137009
H23   H     H_    0.021915 0.791195 0.385002 0.144761
H24   H     H_    0.891740 0.208647 0.906039 0.150643
H25   H     H_    0.333474 0.510304 0.562015 0.130761
H26   H     H_    0.677591 0.538815 0.671019 0.135002
H27   H     H_    0.682464 0.207988 0.596491 0.138132
H28   H     H_    0.320052 0.805631 0.483726 0.122545
H29   H     H_    0.322300 0.084470 0.721354 0.115710
H30   H     H_    0.680848 0.991381 0.309998 0.138524
H31   H     H_    0.325103 0.363673 0.461483 0.091789
H32   H     H_    0.674699 0.670037 0.642499 0.101435
H33   H     H_    0.679503 0.954784 0.858798 0.156382
H34   H     H_    0.326424 0.136778 0.162153 0.179518
H35   H     H_    0.168410 0.155252 0.561443 0.121394
H36   H     H_    0.776293 0.819384 0.368579 0.119448
H37   H     H_    0.839887 0.046368 0.649875 0.172902
H38   H     H_    0.217419 0.873332 0.323403 0.136540
H39   H     H_    0.181107 0.914064 0.010615 0.180642
H40   H     H_    0.970109 0.884722 0.941064 0.188350
N1    N     N_R   0.705410 0.966550 0.689210 -0.076121
N2    N     N_R   0.294590 0.033450 0.310790 -0.077021
N3    N     N_R   0.294590 0.188320 0.465660 -0.062953
N4    N     N_R   0.705410 0.811680 0.534340 -0.060994
N5    N     N_R   0.556610 0.157790 0.497330 -0.041243
N6    N     N_R   0.443390 0.842210 0.502670 -0.043749
N7    N     N_R   0.443390 0.997080 0.657540 -0.045239
N8    N     N_R   0.556610 0.002920 0.342460 -0.043570
N9    N     N_R   0.443390 0.203250 0.451380 -0.045083
N10   N     N_R   0.556610 0.796750 0.548620 -0.043672
N11   N     N_R   0.556610 0.951620 0.703500 -0.035627
N12   N     N_R   0.443390 0.048380 0.296500 -0.051118
N13   N     N_R   0.294590 0.131500 0.522480 -0.049358
N14   N     N_R   0.705410 0.868500 0.477520 -0.046189
N15   N     N_R   0.705410 0.023370 0.632390 -0.070769
N16   N     N_R   0.294590 0.976630 0.367610 -0.069913
Ni1   Ni    Ni4+2 0.629830 0.882720 0.617850 0.255654
Ni2   Ni    Ni4+2 0.370170 0.117280 0.382150 0.254208
Ni3   Ni    Ni4+2 0.629830 0.013030 0.487540 0.225962
Ni4   Ni    Ni4+2 0.370170 0.986970 0.512460 0.216508
O1    O     O_3   0.838915 0.830007 0.796847 -0.785277
H41   H     H_    0.913613 0.781122 0.798682 0.315543
O2    O     O_3   0.188999 0.085055 0.139012 -0.769109
H42   H     H_    0.116615 0.086028 0.084808 0.336311
O3    O     O_3   0.814776 0.853776 0.032432 -0.773060
H43   H     H_    0.769346 0.929085 0.046842 0.314360
O4    O     O_3   0.210606 0.310893 0.956780 -0.756085
H44   H     H_    0.245539 0.234560 0.937514 0.339183
O5    O     O_3   0.776511 0.506522 0.404708 -0.762180
H45   H     H_    0.790409 0.432088 0.397977 0.314113
O6    O     O_3   0.973880 0.379949 0.295961 -0.754353
H46   H     H_    0.911366 0.430466 0.243531 0.314634
I1    I     I_    0.932359 0.016941 0.493881 -0.542894
I2    I     I_    0.113354 0.113640 0.881206 -0.504927

loop_
_geom_bond_atom_site_label_1
_geom_bond_atom_site_label_2
_ccdc_geom_bond_type
C33   C55   D    
C66   C68   A    
C55   C56   S    
C34   C56   D    
C61   N11   A    
C59   H31   S    
C19   H3    S    
C24   N4    A    
C35   C47   A    
O4    H44   S    
C57   N7    A    
C7    C26   S    
C23   H15   S    
C35   C37   A    
C1    O1    S    
C4    C24   A    
N12   Ni2   S    
C39   C54   S    
N3    N13   A    
C49   C54   A    
C18   C20   A    
C64   H36   S    
N14   Ni3   S    
C3    C29   S    
C7    C61   A    
N2    N16   A    
C3    C23   A    
C9    C19   A    
C65   C67   A    
C10   C20   A    
C49   C51   A    
N8    Ni3   S    
C58   H30   S    
C50   C52   A    
C13   C28   S    
C60   N10   A    
C10   H6    S    
N10   Ni1   S    
C14   C27   S    
C47   I1    S    
N9    Ni2   S    
C62   N12   A    
C44   H24   S    
N16   Ni4   S    
C1    N1    A    
C40   C42   A    
C59   N9    A    
C38   C40   A    
C58   N8    A    
C8    C25   S    
C41   C43   A    
C42   C44   A    
C66   H38   S    
C65   H37   S    
C63   N13   A    
C52   C54   A    
C50   C53   A    
C5    C59   A    
C6    C60   A    
N13   Ni4   S    
C63   H35   S    
C35   H17   S    
C34   C68   S    
C46   N6    A    
C50   H26   S    
C36   H18   S    
C5    C45   A    
C43   H23   S    
N7    Ni4   S    
N8    N12   A    
C38   H20   S    
C42   H22   S    
C61   H33   S    
C56   H39   S    
N4    N14   A    
N6    Ni4   S    
N15   Ni3   S    
C31   C32   S    
C18   H10   S    
C57   H29   S    
C21   H11   S    
N3    Ni2   S    
C17   H9    S    
C2    O2    S    
C48   I2    S    
C16   C18   A    
C9    C11   A    
C34   H1    S    
N4    Ni1   S    
N6    N10   A    
C10   C12   A    
C33   H2    S    
N2    Ni2   S    
N5    N9    A    
N11   Ni1   S    
N1    Ni1   S    
C21   C28   A    
C12   C14   A    
N7    N11   A    
C22   C27   A    
C12   H8    S    
O3    H43   S    
C14   C16   A    
C31   O6    S    
O2    H42   S    
C45   H27   S    
C33   C67   S    
O1    H41   S    
O5    H45   S    
C15   C17   A    
C21   C25   A    
C2    N2    A    
C8    C58   A    
C6    C46   A    
C41   H21   S    
C26   C28   A    
C9    H5    S    
C37   H19   S    
C60   H32   S    
O6    H46   S    
N5    Ni3   S    
C3    C63   A    
C25   C27   A    
C23   N3    A    
C15   O3    S    
C4    C64   A    
C2    C68   A    
C49   H25   S    
C55   H40   S    
C6    C52   S    
C30   H13   S    
C13   C15   A    
C24   H16   S    
C22   H12   S    
C29   H14   S    
C29   C31   D    
C11   H7    S    
C30   C32   D    
C11   C13   A    
C64   N14   A    
C36   C38   A    
C1    C67   A    
C36   C48   A    
C66   N16   A    
C65   N15   A    
C17   C19   A    
C45   N5    A    
C32   O5    S    
C46   H28   S    
C39   C41   A    
C37   C39   A    
C40   C53   S    
C22   C26   A    
C20   H4    S    
N1    N15   A    
C51   C53   A    
C16   O4    S    
C43   C47   A    
C7    C57   A    
C4    C30   S    
C44   C48   A    
C8    C62   A    
C5    C51   S    
C62   H34   S    
