data_mof_unit_11164.cif
_audit_creation_date              2012-12-11T14:56:34-0500
_audit_creation_method            fapswitch 2.2
_symmetry_space_group_name_H-M    P1
_symmetry_Int_Tables_number       1
_space_group_crystal_system       triclinic
_cell_length_a                    10.554681
_cell_length_b                    10.687216
_cell_length_c                    17.060102
_cell_angle_alpha                 79.900401
_cell_angle_beta                  90.028732
_cell_angle_gamma                 119.424899
_cell_volume                      1641.91278126

loop_
_atom_site_label
_atom_site_type_symbol
_atom_type_description
_atom_site_fract_x
_atom_site_fract_y
_atom_site_fract_z
_atom_type_partial_charge
C1    C     C_R   0.278590 0.888361 0.132791 0.546601
C2    C     C_R   0.709018 0.252042 0.302288 0.011849
C3    C     C_R   0.719537 0.257808 0.221043 -0.162672
C4    C     C_R   0.639244 0.303629 0.170216 -0.041634
C5    C     C_1   0.685178 0.831110 0.201693 0.002080
C6    C     C_1   0.703893 0.807148 0.270472 -0.000152
C7    C     C_1   0.227779 0.853880 0.215668 -0.017480
C8    C     C_1   0.179268 0.835308 0.283183 -0.011158
C9    C     C_1   0.644732 0.324621 0.778240 -0.016407
C10   C     C_1   0.651871 0.345509 0.707529 -0.026033
C11   C     C_R   0.499859 0.791837 0.772772 -0.140648
C12   C     C_R   0.634293 0.273159 0.089846 0.569156
C13   C     C_R   0.510847 0.769882 0.696498 -0.123564
C14   C     C_R   0.642508 0.857337 0.648069 0.018069
C15   C     C_R   0.754649 0.979743 0.671662 -0.073971
C16   C     C_R   0.747271 0.003667 0.748993 -0.025892
C17   C     C_R   0.619584 0.901076 0.802280 -0.032218
C18   C     C_R   0.232056 0.970369 0.754648 -0.047492
C19   C     C_R   0.249835 0.958563 0.675729 -0.042745
C20   C     C_R   0.180223 0.818619 0.657647 -0.018448
C21   C     C_R   0.137791 0.692654 0.718704 -0.043511
C22   C     C_R   0.136490 0.704712 0.799324 -0.042000
C23   C     C_R   0.643553 0.855410 0.124192 0.572831
C24   C     C_R   0.183797 0.843650 0.817418 -0.029940
C25   C     C_R   0.711440 0.772412 0.353669 0.561238
C26   C     C_R   0.679220 0.381628 0.400448 0.590865
C27   C     C_R   0.108409 0.812943 0.359963 0.555924
C28   C     C_R   0.673410 0.805543 0.581456 0.580459
C29   C     C_R   0.678402 0.381650 0.624379 0.575685
C30   C     C_R   0.104842 0.802698 0.584582 0.582751
C31   C     C_R   0.224471 0.865652 0.898065 0.525665
C32   C     C_R   0.637969 0.285997 0.861148 0.545096
C33   C     C_R   0.602341 0.896378 0.888293 0.545181
C34   C     C_R   0.538161 0.336462 0.202402 -0.002371
C35   C     C_R   0.526500 0.330831 0.285483 -0.014697
C36   C     C_R   0.626304 0.306464 0.333031 -0.017425
Cr1   Cr    Cr6+3 0.402240 0.783890 0.019450 1.064804
Cr2   Cr    Cr6+3 0.382360 0.097900 0.991800 1.098289
Cr3   Cr    Cr6+3 0.715380 0.118170 0.988700 1.064321
Cr4   Cr    Cr6+3 0.936650 0.882420 0.465510 1.096949
Cr5   Cr    Cr6+3 0.605770 0.565620 0.493360 1.070511
Cr6   Cr    Cr6+3 0.921340 0.550490 0.496380 1.073152
H1    H     H_    0.785769 0.217922 0.198065 0.194638
H2    H     H_    0.400039 0.715649 0.810903 0.176500
H3    H     H_    0.420666 0.676570 0.678325 0.138559
H4    H     H_    0.853050 0.050915 0.631164 0.186876
O1    O     O_R   0.521780 0.757110 0.108900 -0.469625
O2    O     O_R   0.513330 0.228330 0.898660 -0.498369
O3    O     O_R   0.739230 0.266130 0.888050 -0.507132
O4    O     O_R   0.712580 0.991850 0.918770 -0.515645
O5    O     O_3   0.499990 0.999980 0.999980 -0.324885
O6    O     O_R   0.083770 0.911170 0.376030 -0.474168
O7    O     O_R   0.808770 0.880340 0.383890 -0.478111
O8    O     O_R   0.584340 0.689460 0.394160 -0.482803
O9    O     O_R   0.614320 0.443940 0.423590 -0.491735
O10   O     O_R   0.805020 0.410040 0.421340 -0.487796
O11   O     O_R   0.049240 0.685450 0.403290 -0.505355
O12   O     O_R   0.275160 0.783810 0.101120 -0.477989
O13   O     O_R   0.077520 0.903010 0.551800 -0.471205
O14   O     O_R   0.802980 0.872780 0.546830 -0.493485
O15   O     O_R   0.578090 0.681300 0.569920 -0.518641
O16   O     O_R   0.608530 0.436370 0.586530 -0.510475
O17   O     O_R   0.798770 0.401880 0.597100 -0.459087
O18   O     O_R   0.043450 0.677890 0.566230 -0.523048
O19   O     O_3   0.821250 0.666180 0.485090 -0.304441
O20   O     O_R   0.237900 0.972600 0.090980 -0.476394
O21   O     O_R   0.511190 0.220540 0.061620 -0.487968
O22   O     O_R   0.736920 0.257720 0.063840 -0.514318
O23   O     O_R   0.710450 0.984050 0.081720 -0.494828
O24   O     O_R   0.524090 0.765520 0.933110 -0.488781
O25   O     O_R   0.277300 0.791600 0.938160 -0.531408
O26   O     O_R   0.240210 0.981010 0.915190 -0.449626
C37   C     C_2   0.445272 0.374968 0.149283 0.635004
O27   O     O_2   0.312877 0.311984 0.166038 -0.465848
O28   O     O_R   0.509614 0.480247 0.078618 -0.664454
H5    H     H_    0.435281 0.494752 0.046573 0.355198
C38   C     C_2   0.329854 0.091035 0.610368 0.253277
H6    H     H_    0.336136 0.194068 0.613899 0.113867
O29   O     O_2   0.390653 0.085500 0.551219 -0.459695
C39   C     C_2   0.088901 0.548082 0.698078 0.341537
H7    H     H_    0.151917 0.537062 0.652230 0.117293
O30   O     O_2   0.973139 0.442493 0.728910 -0.457615
C40   C     C_2   0.083004 0.573435 0.865606 0.302636
H8    H     H_    0.019524 0.564616 0.918426 0.121866
O31   O     O_2   0.115222 0.478707 0.863700 -0.467129
C41   C     C_2   0.411983 0.351552 0.322277 0.633397
O32   O     O_2   0.334729 0.264911 0.382265 -0.472042
O33   O     O_R   0.394045 0.470573 0.289291 -0.660251
H9    H     H_    0.313063 0.472519 0.320034 0.349380
C42   C     C_2   0.788485 0.191436 0.353178 0.607454
O34   O     O_2   0.738729 0.126025 0.422054 -0.479894
O35   O     O_R   0.920185 0.209050 0.322102 -0.677565
H10   H     H_    0.967261 0.168984 0.363305 0.358929
C43   C     C_2   0.877946 0.131317 0.770026 0.331362
H11   H     H_    0.877897 0.173143 0.822830 0.211483
O36   O     O_2   0.991220 0.197110 0.725321 -0.458674
C44   C     C_2   0.259989 0.115010 0.768848 0.289417
H12   H     H_    0.357870 0.215155 0.741821 0.072601
O37   O     O_2   0.169250 0.123776 0.808215 -0.411805

loop_
_geom_bond_atom_site_label_1
_geom_bond_atom_site_label_2
_ccdc_geom_bond_type
Cr3   O5    S    
C29   O17   A    
Cr4   O14   S    
C30   O18   A    
C37   O28   S    
C37   O27   D    
C23   O23   A    
C19   C20   A    
Cr5   O15   S    
C26   O9    A    
C44   H12   S    
C7    C8    T    
C20   C30   S    
C38   H6    S    
C12   O22   A    
C3    H1    S    
C18   C24   A    
C25   O7    A    
C18   C19   A    
C5    C6    T    
Cr1   O5    S    
C35   C41   S    
C41   O33   S    
C6    C25   S    
C15   C16   A    
C2    C42   S    
C34   C35   A    
Cr3   O22   S    
C19   C38   S    
Cr5   O9    S    
C9    C32   S    
Cr6   O10   S    
Cr2   O20   S    
C16   C17   A    
Cr6   O19   S    
C18   C44   S    
C4    C12   S    
C9    C10   T    
Cr2   O2    S    
Cr1   O12   S    
C28   O15   A    
C31   O25   A    
Cr4   O13   S    
C21   C22   A    
C32   O2    A    
C17   C33   S    
Cr5   O16   S    
Cr6   O11   S    
C44   O37   D    
C4    C34   A    
C38   O29   D    
Cr5   O8    S    
C12   O21   A    
Cr2   O26   S    
C23   O1    A    
C25   O8    A    
C39   O30   D    
C27   O11   A    
C41   O32   D    
Cr5   O19   S    
Cr2   O5    S    
C33   O4    A    
Cr4   O6    S    
C35   C36   A    
O28   H5    S    
C42   O35   S    
C40   H8    S    
C5    C23   S    
C30   O13   A    
C20   C21   A    
C1    O20   A    
Cr3   O23   S    
C11   H2    S    
O33   H9    S    
C43   O36   D    
C28   O14   A    
C33   O24   A    
C26   C36   S    
C31   O26   A    
Cr3   O3    S    
Cr4   O19   S    
Cr1   O25   S    
C22   C24   A    
Cr1   O1    S    
C3    C4    A    
Cr6   O18   S    
C27   O6    A    
C2    C36   A    
C29   O16   A    
C11   C17   A    
C40   O31   D    
C1    C7    S    
C39   H7    S    
C26   O10   A    
C16   C43   S    
Cr1   O24   S    
C22   C40   S    
C2    C3    A    
C24   C31   S    
C1    O12   A    
C13   H3    S    
C11   C13   A    
C10   C29   S    
C42   O34   D    
C21   C39   S    
O35   H10   S    
C43   H11   S    
C32   O3    A    
C34   C37   S    
Cr3   O4    S    
Cr2   O21   S    
Cr4   O7    S    
C8    C27   S    
C14   C15   A    
C15   H4    S    
C14   C28   S    
C13   C14   A    
Cr6   O17   S    
