data_mof_unit_18328.cif
_audit_creation_date              2012-12-11T14:36:07-0500
_audit_creation_method            fapswitch 2.2
_symmetry_space_group_name_H-M    P1
_symmetry_Int_Tables_number       1
_space_group_crystal_system       triclinic
_cell_length_a                    13.486155
_cell_length_b                    13.495631
_cell_length_c                    27.520461
_cell_angle_alpha                 90.568558
_cell_angle_beta                  89.987966
_cell_angle_gamma                 60.0226
_cell_volume                      4338.47823138

loop_
_atom_site_label
_atom_site_type_symbol
_atom_type_description
_atom_site_fract_x
_atom_site_fract_y
_atom_site_fract_z
_atom_type_partial_charge
C1    C     C_R   0.620089 0.101213 0.570296 0.545774
C2    C     C_1   0.630770 0.732619 0.616539 -0.009778
C3    C     C_3   0.717798 0.557631 0.767629 -0.103018
C4    C     C_3   0.679604 0.654747 0.805524 0.051335
C5    C     C_3   0.604580 0.630622 0.739868 -0.098924
C6    C     C_3   0.663186 0.683925 0.710880 0.049938
C7    C     C_3   0.566639 0.727267 0.778484 -0.101042
C8    C     C_3   0.625030 0.781033 0.748779 -0.104132
C9    C     C_1   0.688460 0.633848 0.857898 -0.055578
C10   C     C_1   0.649100 0.705496 0.658576 -0.051962
C11   C     C_3   0.063881 0.189644 0.737093 -0.133435
C12   C     C_R   0.599519 0.779711 0.568834 0.545466
C13   C     C_3   0.127092 0.089632 0.773146 -0.117650
C14   C     C_1   0.096562 0.201785 0.901776 -0.010564
C15   C     C_1   0.229809 0.137799 0.617618 0.009524
C16   C     C_3   0.083040 0.269595 0.771887 -0.078758
C17   C     C_3   0.146863 0.169323 0.807095 0.026515
C18   C     C_3   0.198173 0.233796 0.746444 0.196082
C19   C     C_3   0.178904 0.154884 0.712165 0.058755
C20   C     C_3   0.261967 0.134618 0.782283 -0.087715
C21   C     C_3   0.242657 0.054741 0.747442 -0.131922
C22   C     C_1   0.124193 0.182691 0.859553 -0.049887
C23   C     C_R   0.277839 0.121753 0.569727 0.546434
C24   C     C_1   0.201792 0.146802 0.659751 -0.014538
C25   C     C_3   0.623248 0.278510 0.740028 -0.091597
C26   C     C_3   0.553530 0.254708 0.778336 -0.075045
C27   C     C_1   0.691582 0.208189 0.902861 -0.012795
C28   C     C_1   0.635095 0.133161 0.618485 -0.002027
C29   C     C_3   0.732948 0.210227 0.770646 -0.109418
C30   C     C_3   0.663058 0.186164 0.808127 0.041561
C31   C     C_3   0.760032 0.098755 0.743153 -0.105916
C32   C     C_3   0.650584 0.167189 0.713295 0.054663
C33   C     C_3   0.690377 0.074915 0.781342 -0.110566
C34   C     C_R   0.623399 0.101413 0.432276 0.546323
C35   C     C_3   0.580674 0.143124 0.750757 -0.083175
C36   C     C_1   0.674785 0.197107 0.860627 -0.054248
C37   C     C_1   0.643395 0.152078 0.660780 -0.039038
C38   C     C_R   0.724190 0.729784 0.357122 -0.134809
C39   C     C_R   0.732659 0.716079 0.306766 -0.008260
C40   C     C_R   0.748242 0.687934 0.205194 0.029487
C41   C     C_R   0.824074 0.714851 0.230064 0.010799
C42   C     C_R   0.813175 0.731152 0.280683 -0.134880
C43   C     C_R   0.760968 0.658673 0.155521 -0.142340
C44   C     C_R   0.680798 0.637912 0.132307 -0.008415
C45   C     C_R   0.602088 0.776334 0.430327 0.545196
C46   C     C_R   0.565498 0.692418 0.358039 -0.129844
C47   C     C_R   0.570560 0.682146 0.307874 0.016576
C48   C     C_R   0.654598 0.693886 0.282010 0.060329
C49   C     C_R   0.488444 0.667131 0.283115 -0.131501
C50   C     C_R   0.489345 0.663808 0.232767 -0.130771
C51   C     C_R   0.575301 0.670565 0.207002 0.012008
C52   C     C_R   0.659152 0.684920 0.231376 0.049554
C53   C     C_R   0.582517 0.655595 0.157315 -0.126277
C54   C     C_R   0.637280 0.723105 0.382460 -0.003897
C55   C     C_R   0.223202 0.051983 0.357652 -0.114559
C56   C     C_R   0.277358 0.120625 0.431356 0.545878
C57   C     C_R   0.192519 0.068325 0.308812 0.022940
C58   C     C_R   0.148111 0.097482 0.208825 0.014394
C59   C     C_R   0.184946 0.990642 0.229876 -0.123014
C60   C     C_R   0.208164 0.975875 0.279496 -0.090467
C61   C     C_R   0.125577 0.113226 0.159000 -0.137923
C62   C     C_R   0.090706 0.220317 0.138489 0.002106
C63   C     C_R   0.164141 0.253135 0.366718 -0.132506
C64   C     C_R   0.135317 0.271746 0.317617 0.024714
C65   C     C_R   0.152067 0.177405 0.288334 0.045334
C66   C     C_R   0.096157 0.380342 0.296400 0.022812
C67   C     C_3   0.776271 0.611364 0.737850 -0.097822
C68   C     C_R   0.078412 0.391490 0.246280 -0.115502
C69   C     C_R   0.097374 0.297939 0.217382 -0.005694
C70   C     C_R   0.132102 0.191011 0.238231 0.057196
C71   C     C_R   0.079731 0.311059 0.167734 -0.126386
C72   C     C_R   0.214702 0.143087 0.385798 -0.009462
C73   C     C_R   0.565784 0.245590 0.366744 -0.133348
C74   C     C_R   0.581035 0.269754 0.319023 0.015943
C75   C     C_R   0.598795 0.298516 0.218995 0.025046
C76   C     C_R   0.502533 0.378947 0.245327 -0.124531
C77   C     C_R   0.494019 0.364784 0.295103 -0.128241
C78   C     C_3   0.738315 0.708057 0.776606 -0.097313
C79   C     C_R   0.605892 0.307412 0.168459 -0.134275
C80   C     C_R   0.702212 0.224186 0.142903 0.001666
C81   C     C_R   0.755837 0.077549 0.365638 -0.108533
C82   C     C_R   0.772400 0.098816 0.317774 0.027719
C83   C     C_R   0.682027 0.193032 0.293736 0.035542
C84   C     C_R   0.873762 0.024018 0.292271 0.154571
C85   C     C_R   0.881155 0.039270 0.242828 -0.106393
C86   C     C_R   0.788395 0.127058 0.218328 -0.031089
C87   C     C_R   0.690172 0.207042 0.243775 0.054451
C88   C     C_R   0.792557 0.134622 0.168435 -0.131460
C89   C     C_1   0.697318 0.607919 0.900093 -0.013715
C90   C     C_R   0.650170 0.145297 0.388786 -0.017984
C91   C     C_R   0.049129 0.236355 0.949730 0.546381
C92   C     C_R   0.711632 0.562909 0.948150 0.544843
C93   C     C_R   0.722266 0.225597 0.950841 0.547687
C94   C     C_R   0.045422 0.246897 0.089221 0.545766
C95   C     C_R   0.707028 0.575462 0.086208 0.545076
C96   C     C_R   0.723278 0.237005 0.091637 0.547778
Cr1   Cr    Cr6+3 0.417550 0.169090 0.500530 1.037267
Cr2   Cr    Cr6+3 0.669180 0.913420 0.499920 1.036176
Cr3   Cr    Cr6+3 0.413260 0.917540 0.499520 1.033374
Cr4   Cr    Cr6+3 0.909170 0.177380 0.020380 1.020279
Cr5   Cr    Cr6+3 0.912710 0.429210 0.018220 1.022998
Cr6   Cr    Cr6+3 0.657170 0.432570 0.019030 1.023813
H1    H     H_    0.792857 0.740280 0.792279 0.110878
H2    H     H_    0.343198 0.112473 0.801064 0.114131
H3    H     H_    0.017694 0.358399 0.782344 0.123241
H4    H     H_    0.468609 0.318513 0.793395 0.150928
H5    H     H_    0.596104 0.362006 0.722595 0.112765
H6    H     H_    0.517814 0.115342 0.741998 0.131733
H7    H     H_    0.717525 0.991358 0.798725 0.106275
H8    H     H_    0.845097 0.034957 0.728199 0.112323
H9    H     H_    0.795970 0.237823 0.779380 0.102460
H10   H     H_    0.835363 0.645537 0.135288 0.122617
H11   H     H_    0.862293 0.563367 0.720637 0.128544
H12   H     H_    0.779700 0.753940 0.375962 0.140553
H13   H     H_    0.868399 0.754887 0.300010 0.145243
H14   H     H_    0.517702 0.643504 0.139332 0.132919
H15   H     H_    0.425094 0.652244 0.214023 0.098620
H16   H     H_    0.422562 0.659870 0.302627 0.111043
H17   H     H_    0.498353 0.687147 0.377512 0.131860
H18   H     H_    0.132681 0.043514 0.136510 0.112158
H19   H     H_    0.261597 0.966702 0.372615 0.140887
H20   H     H_    0.197410 0.918210 0.207877 0.107076
H21   H     H_    0.586662 0.873334 0.740446 0.102395
H22   H     H_    0.239646 0.891818 0.294866 0.144161
H23   H     H_    0.050483 0.394906 0.152422 0.130779
H24   H     H_    0.050653 0.473592 0.229578 0.103389
H25   H     H_    0.155922 0.321949 0.389880 0.136190
H26   H     H_    0.537851 0.378829 0.149310 0.116157
H27   H     H_    0.485003 0.299901 0.385175 0.125484
H28   H     H_    0.432834 0.451128 0.227283 0.100589
H29   H     H_    0.418353 0.426508 0.314719 0.103081
H30   H     H_    0.869470 0.071284 0.149763 0.134319
H31   H     H_    0.480565 0.775281 0.795655 0.107762
H32   H     H_    0.958206 0.979719 0.223167 0.134929
H33   H     H_    0.821467 0.002811 0.383813 0.189409
H34   H     H_    0.549982 0.598389 0.724257 0.110938
H35   H     H_    0.756148 0.465342 0.775973 0.100146
H36   H     H_    0.097833 0.029861 0.784799 0.118155
H37   H     H_    0.982654 0.212187 0.718222 0.107533
H38   H     H_    0.308292 0.966157 0.736859 0.111131
O1    O     O_R   0.301710 0.195650 0.554160 -0.491401
O2    O     O_R   0.658900 0.818120 0.449760 -0.501851
O3    O     O_R   0.503220 0.801620 0.445520 -0.520006
O4    O     O_R   0.319370 0.022040 0.450020 -0.499686
O5    O     O_3   0.499990 0.000010 0.499990 -0.250459
O6    O     O_R   0.818720 0.150820 0.967160 -0.506022
O7    O     O_R   0.006410 0.181720 0.970200 -0.495639
O8    O     O_R   0.027890 0.334070 0.964920 -0.503051
O9    O     O_R   0.809600 0.521790 0.967960 -0.494636
O10   O     O_R   0.635520 0.542770 0.964420 -0.506576
O11   O     O_R   0.665950 0.325030 0.970100 -0.492401
O12   O     O_R   0.522390 0.158990 0.550460 -0.488602
O13   O     O_R   0.816620 0.158530 0.074540 -0.525667
O14   O     O_R   0.004460 0.188870 0.069750 -0.503208
O15   O     O_R   0.025800 0.341780 0.072300 -0.521984
O16   O     O_R   0.807650 0.528950 0.067500 -0.503760
O17   O     O_R   0.633420 0.550490 0.071810 -0.524791
O18   O     O_R   0.664000 0.332180 0.069640 -0.499309
O19   O     O_3   0.826350 0.346390 0.019210 -0.247059
O20   O     O_R   0.694390 0.003530 0.554040 -0.506327
O21   O     O_R   0.657700 0.819660 0.549320 -0.493345
O22   O     O_R   0.501930 0.803280 0.552920 -0.505607
O23   O     O_R   0.318170 0.023580 0.549580 -0.498910
O24   O     O_R   0.303010 0.193990 0.446760 -0.522014
O25   O     O_R   0.523600 0.157450 0.450900 -0.502159
O26   O     O_R   0.695690 0.001860 0.446640 -0.516351
Br1   Br    Br    0.249129 0.338776 0.727114 -0.568698
C97   C     C_3   0.914459 0.730326 0.204038 -0.282372
C98   C     C_3   0.860159 0.837806 0.172976 -0.422763
H39   H     H_    0.815177 0.827971 0.141211 0.151155
H40   H     H_    0.797526 0.912446 0.194938 0.176454
H41   H     H_    0.927779 0.854579 0.159300 0.128535
H42   H     H_    0.971857 0.738769 0.230691 0.169029
H43   H     H_    0.970167 0.653925 0.181305 0.123097
C99   C     C_3   0.076015 0.485034 0.325259 -0.273952
C100  C     C_3   0.187380 0.486017 0.333161 -0.437128
H44   H     H_    0.170298 0.562141 0.355363 0.165524
H45   H     H_    0.251405 0.407967 0.352188 0.151405
H46   H     H_    0.223014 0.491056 0.297479 0.151237
H47   H     H_    0.017943 0.563409 0.305180 0.150865
H48   H     H_    0.032242 0.491748 0.360316 0.142422
Br2   Br    Br    0.002369 0.895496 0.321790 -0.650916

loop_
_geom_bond_atom_site_label_1
_geom_bond_atom_site_label_2
_ccdc_geom_bond_type
Cr4   O13   S    
C5    H34   S    
C66   C68   A    
C79   H26   S    
C55   H19   S    
Cr5   O8    S    
C40   C41   A    
C50   H15   S    
C73   C74   A    
C39   C48   A    
C96   O18   A    
C74   C83   A    
C43   C44   A    
C2    C12   S    
C26   H4    S    
C91   O7    A    
C81   C82   A    
C7    C8    S    
C47   C49   A    
C85   C86   A    
C97   H43   S    
C11   C19   S    
C20   C21   S    
C49   C50   A    
Cr3   O3    S    
C19   C21   S    
C73   C90   A    
C7    H31   S    
C77   H29   S    
C5    C6    S    
C38   H12   S    
C86   C88   A    
Cr5   O15   S    
Cr4   O7    S    
C65   C70   A    
C41   C97   S    
C17   C20   S    
C1    O12   A    
C60   H22   S    
C95   O16   A    
C41   C42   A    
C69   C71   A    
C11   H37   S    
C35   H6    S    
C12   O21   A    
C68   C69   A    
C76   H28   S    
C44   C53   A    
Cr1   O12   S    
C40   C43   A    
C31   C32   S    
Cr4   O6    S    
C16   C17   S    
C56   C72   S    
C74   C77   A    
C46   H17   S    
C1    C28   S    
C31   C33   S    
C3    H35   S    
C80   C96   S    
C34   O25   A    
C55   C72   A    
C53   H14   S    
C85   H32   S    
C99   H48   S    
Cr6   O11   S    
C59   H20   S    
C15   C23   S    
Cr3   O5    S    
C59   C60   A    
Cr2   O2    S    
C61   H18   S    
C8    C78   S    
C98   H40   S    
Cr6   O18   S    
C61   C62   A    
C67   C78   S    
C4    C7    S    
Cr6   O17   S    
C91   O8    A    
C81   H33   S    
C39   C42   A    
C23   O23   A    
C100  H46   S    
C25   C29   S    
C97   H42   S    
C73   H27   S    
C51   C52   A    
C32   C35   S    
C97   C98   S    
Cr3   O4    S    
C76   C77   A    
C9    C89   T    
C5    C7    S    
C86   C87   A    
C18   C19   S    
C57   C60   A    
C6    C8    S    
Cr5   O16   S    
C3    C5    S    
C25   C26   S    
C40   C52   A    
C63   C64   A    
C51   C53   A    
C64   C66   A    
Cr6   O19   S    
C75   C76   A    
C34   C90   S    
C4    C78   S    
C29   C30   S    
Cr3   O22   S    
C11   C16   S    
C26   C35   S    
C96   O13   A    
C38   C54   A    
C94   O14   A    
Cr1   O24   S    
C46   C54   A    
C50   C51   A    
C94   O15   A    
C13   C21   S    
C93   O6    A    
C98   H39   S    
C32   C37   S    
C84   C85   A    
C89   C92   S    
Cr1   O1    S    
Cr2   O26   S    
C16   H3    S    
Cr6   O10   S    
Cr3   O23   S    
C81   C90   A    
C75   C87   A    
C100  H44   S    
Cr2   O20   S    
C45   C54   S    
C26   C30   S    
C82   C84   A    
C62   C94   S    
C92   O10   A    
C45   O2    A    
C98   H41   S    
C66   C99   S    
C27   C93   S    
C33   H7    S    
C43   H10   S    
C88   H30   S    
C3    C4    S    
C2    C10   T    
C68   H24   S    
Cr2   O21   S    
C25   H5    S    
C45   O3    A    
Cr4   O14   S    
C46   C47   A    
C15   C24   T    
C30   C33   S    
C78   H1    S    
C95   O17   A    
Cr1   O5    S    
C84   Br2   S    
C29   H9    S    
C1    O20   A    
C58   C70   A    
C57   C65   A    
C47   C48   A    
C16   C18   S    
C83   C87   A    
C6    C10   S    
C18   Br1   S    
C8    H21   S    
C99   H47   S    
C20   H2    S    
Cr2   O5    S    
C30   C36   S    
C27   C36   T    
C56   O24   A    
C17   C22   S    
C13   C17   S    
C64   C65   A    
C14   C22   T    
C55   C57   A    
C19   C24   S    
C58   C59   A    
C80   C88   A    
C99   C100  S    
C6    C67   S    
C13   H36   S    
C11   C13   S    
Cr4   O19   S    
C38   C39   A    
C3    C67   S    
C28   C37   T    
C58   C61   A    
Cr1   O25   S    
Cr5   O9    S    
C33   C35   S    
C31   H8    S    
C62   C71   A    
C18   C20   S    
C67   H11   S    
C69   C70   A    
C14   C91   S    
C93   O11   A    
C12   O22   A    
C79   C80   A    
C56   O4    A    
C49   H16   S    
C42   H13   S    
C48   C52   A    
C63   C72   A    
Cr5   O19   S    
C29   C31   S    
C82   C83   A    
C23   O1    A    
C92   O9    A    
C44   C95   S    
C71   H23   S    
C21   H38   S    
C4    C9    S    
C34   O26   A    
C75   C79   A    
C63   H25   S    
C100  H45   S    
C25   C32   S    
