data_mof_unit_66977.cif
_audit_creation_date              2013-03-05T15:58:12-0500
_audit_creation_method            fapswitch 2.2
_symmetry_space_group_name_H-M    P1
_symmetry_Int_Tables_number       1
_space_group_crystal_system       triclinic
_cell_length_a                    8.337697
_cell_length_b                    12.848512
_cell_length_c                    14.512732
_cell_angle_alpha                 93.407847
_cell_angle_beta                  90.964863
_cell_angle_gamma                 98.135428
_cell_volume                      1535.83622837

loop_
_atom_site_label
_atom_site_type_symbol
_atom_site_description
_atom_site_fract_x
_atom_site_fract_y
_atom_site_fract_z
_atom_type_partial_charge
P1    P     P_3+3 0.054400 0.427280 0.286870 0.558778
O1    O     O_2   0.887370 0.460630 0.272300 -0.247908
O2    O     O_3   0.129410 0.451380 0.388510 -0.324281
O3    O     O_3   0.670210 0.653170 0.329170 -0.297204
O4    O     O_2   0.755391 0.560748 0.172075 -0.340668
O5    O     O_3   0.993151 0.293158 0.270509 -0.599510
O6    O     O_3   0.717208 0.753214 0.161532 -0.588519
H1    H     H_    0.811809 0.849920 0.272340 0.186146
C1    C     C_3   0.707386 0.934277 0.169006 -0.932329
H2    H     H_    0.648123 0.994180 0.207466 0.249338
H3    H     H_    0.833594 0.964048 0.154256 0.247299
P2    P     P_3+3 0.668300 0.742890 0.573060 0.458754
P3    P     P_3+3 0.141125 0.841163 0.376867 0.497469
O7    O     O_2   0.845380 0.761330 0.544970 -0.387060
O8    O     O_3   0.088930 0.704860 0.376040 -0.351859
O9    O     O_2   0.000024 0.889416 0.422965 -0.357918
O10   O     O_3   0.680901 0.770620 0.690490 -0.621826
O11   O     O_3   0.139411 0.876991 0.261523 -0.523987
C2    C     C_3   0.293645 0.870162 0.224651 0.081040
H4    H     H_    0.317135 0.787005 0.224303 0.030268
H5    H     H_    0.388430 0.922063 0.266184 0.103399
C3    C     C_3   0.306123 0.905042 0.124854 0.301098
H6    H     H_    0.186680 0.906031 0.092244 0.124312
C4    C     C_3   0.225064 0.761896 0.661278 0.417924
H7    H     H_    0.355872 0.758336 0.654097 0.097259
H8    H     H_    0.158565 0.730183 0.596448 0.118804
C5    C     C_3   0.198261 0.875845 0.676705 -0.934934
H9    H     H_    0.246764 0.907651 0.745547 0.258760
H10   H     H_    0.258090 0.924318 0.622904 0.230673
H11   H     H_    0.066633 0.880401 0.674979 0.260124
Ba1   Ba    Ba6+2 0.855630 0.555280 0.454520 1.645479
C6    C     C_3   0.964610 0.247625 0.354800 0.158296
H12   H     H_    0.868330 0.283368 0.390989 0.085372
H13   H     H_    0.074558 0.258072 0.400033 0.147770
C7    C     C_3   0.909944 0.129900 0.333408 0.069974
H14   H     H_    0.808050 0.119643 0.282842 0.096617
H15   H     H_    0.860209 0.095726 0.396174 0.110528
C8    C     C_3   0.706087 0.681772 0.734159 0.231441
H16   H     H_    0.827256 0.660922 0.717620 0.027817
H17   H     H_    0.610449 0.613861 0.716429 0.121916
C9    C     C_3   0.699429 0.712599 0.834684 0.914983
H18   H     H_    0.778383 0.790104 0.848352 -0.003877
P4    P     P_3+3 0.135310 0.572810 0.713130 0.472090
O12   O     O_2   0.302330 0.539400 0.727760 -0.359339
O13   O     O_3   0.060300 0.548700 0.611500 -0.415071
O14   O     O_3   0.519500 0.346920 0.670840 -0.392878
O15   O     O_3   0.170964 0.708926 0.738942 -0.554553
P5    P     P_3+3 0.055045 0.156910 0.617480 0.448946
O16   O     O_3   0.614310 0.373510 0.452640 -0.293659
O17   O     O_3   0.100780 0.295230 0.623970 -0.375485
O18   O     O_2   0.166454 0.114283 0.545371 -0.374242
O19   O     O_3   0.118921 0.108858 0.719667 -0.530172
Ba2   Ba    Ba6+2 0.334200 0.444810 0.545490 1.631844
P6    P     P_3+3 0.642120 0.636618 0.209002 0.541714
C10   C     C_3   0.705995 0.838128 0.224148 0.390359
H19   H     H_    0.595134 0.827336 0.265035 0.027373
H20   H     H_    0.642931 0.914011 0.101587 0.305828
O20   O     O_3   0.575400 0.626570 0.547370 -0.371692
C11   C     C_3   0.518051 0.287569 0.254331 1.095697
H21   H     H_    0.395067 0.307955 0.244071 -0.133102
C12   C     C_3   0.584673 0.254995 0.162293 0.200519
H22   H     H_    0.504485 0.185664 0.129242 0.135584
H23   H     H_    0.707659 0.230719 0.171499 0.080490
P7    P     P_3+3 0.526253 0.239815 0.428761 0.453478
O21   O     O_2   0.344320 0.238700 0.455090 -0.368749
O22   O     O_3   0.516699 0.201974 0.310756 -0.746347
H24   H     H_    0.368895 0.849538 0.082434 0.087492
C13   C     C_3   0.031061 0.147276 0.792840 0.265624
H25   H     H_    0.085194 0.229568 0.814933 0.108007
H26   H     H_    0.901634 0.145709 0.773571 0.002122
C14   C     C_3   0.037269 0.076536 0.873146 0.384567
H27   H     H_    0.956548 0.099808 0.928155 0.086400
H28   H     H_    0.995171 0.992719 0.849681 0.088872
P8    P     P_3+3 0.543444 0.346772 0.790290 0.515126
C15   C     C_3   0.529565 0.146934 0.757267 0.288388
H29   H     H_    0.651192 0.173820 0.731222 0.002789
O23   O     O_2   0.419135 0.412220 0.833764 -0.354103
O24   O     O_3   0.481501 0.219038 0.824072 -0.462588
H30   H     H_    0.441029 0.135473 0.698452 0.089204
C16   C     C_3   0.535501 0.041371 0.798790 0.367574
H31   H     H_    0.544728 0.979728 0.742368 0.022238
H32   H     H_    0.424528 0.018582 0.838027 0.189120
C17   C     C_R   0.989109 0.429750 0.054545 -0.137621
C18   C     C_R   0.178877 0.487046 0.192554 -0.005463
C19   C     C_R   0.328369 0.541162 0.223854 0.481755
C20   C     C_R   0.440440 0.583565 0.162978 0.131975
C21   C     C_R   0.403141 0.578816 0.068397 -0.372215
C22   C     C_R   0.251973 0.530021 0.033037 0.132723
C23   C     C_R   0.138592 0.479584 0.094138 -0.120574
C24   C     C_R   0.061558 0.489515 0.898616 -0.022904
C25   C     C_R   0.950461 0.434227 0.958707 0.062516
C26   C     C_R   0.013910 0.496873 0.802494 0.253165
C27   C     C_R   0.860165 0.448176 0.771686 -0.440809
C28   C     C_R   0.750912 0.397927 0.831769 0.261744
C29   C     C_R   0.797229 0.388186 0.923170 -0.250028
C30   C     C_R   0.212688 0.535915 0.937877 -0.088005
H33   H     H_    0.490577 0.614215 0.022075 0.192804
H34   H     H_    0.710933 0.345290 0.965880 0.237348
H35   H     H_    0.821699 0.453695 0.700727 0.148276
H36   H     H_    0.900962 0.388749 0.098203 0.218595
H37   H     H_    0.299532 0.580575 0.895787 0.212315
C31   C     C_R   0.750077 0.176742 0.547633 -0.531470
C32   C     C_R   0.426733 0.814910 0.471083 -0.517785
C33   C     C_R   0.397242 0.994629 0.443462 -0.213642
C34   C     C_R   0.335868 0.887753 0.437434 0.197433
C35   C     C_R   0.574928 0.847466 0.517543 0.287422
C36   C     C_R   0.635810 0.957978 0.529000 -0.065487
C37   C     C_R   0.545873 0.031997 0.489607 -0.070521
C38   C     C_R   0.607435 0.141437 0.497332 0.241822
C39   C     C_R   0.843904 0.105752 0.581434 0.202526
C40   C     C_R   0.785704 0.997258 0.574739 -0.189798
H38   H     H_    0.326786 0.047278 0.411212 0.205821
H39   H     H_    0.860797 0.944910 0.602832 0.176301
H40   H     H_    0.797260 0.259897 0.552219 0.161989
H41   H     H_    0.378842 0.731940 0.463403 0.199698
O25   O     O_3   0.032218 0.069547 0.304496 -0.600561
C41   C     C_3   0.140242 0.117022 0.240111 0.386601
H42   H     H_    0.242766 0.072467 0.234998 0.156233
H43   H     H_    0.200665 0.192953 0.269030 0.086127
C42   C     C_3   0.062877 0.122299 0.143329 -0.365059
H44   H     H_    0.065776 0.047087 0.102262 0.211711
H45   H     H_    0.934517 0.134469 0.149023 0.208889
C43   C     C_3   0.146208 0.212897 0.089839 -0.756384
H46   H     H_    0.177876 0.285313 0.135106 0.231284
H47   H     H_    0.062878 0.230401 0.034839 0.239070
H48   H     H_    0.257001 0.193386 0.056556 0.321157
O26   O     O_3   0.752837 0.633367 0.883978 -0.750919
C44   C     C_3   0.791830 0.671723 0.974647 0.190394
H49   H     H_    0.772825 0.601980 0.015742 0.206582
H50   H     H_    0.710432 0.727496 0.000568 0.163418
C45   C     C_3   0.966665 0.726007 0.983785 -0.386277
H51   H     H_    0.042062 0.693311 0.930844 0.231631
H52   H     H_    0.972097 0.811133 0.972286 0.186556
C46   C     C_3   0.036387 0.714040 0.079063 -0.840857
H53   H     H_    0.002228 0.775044 0.128097 0.302746
H54   H     H_    0.168649 0.718536 0.076193 0.205023
H55   H     H_    0.993510 0.637755 0.105840 0.286810
F1    F     F_    0.541175 0.723757 0.856757 -0.713113
F2    F     F_    0.611760 0.378756 0.288400 -0.608351
F3    F     F_    0.593930 0.339611 0.107114 -0.696041
F4    F     F_    0.194047 0.085359 0.908510 -0.672593
F5    F     F_    0.668579 0.047268 0.858599 -0.708892
F6    F     F_    0.369850 0.549546 0.315132 -0.646423
F7    F     F_    0.393341 0.003590 0.119549 -0.717894

loop_
_geom_bond_atom_site_label_1
_geom_bond_atom_site_label_2
_geom_bond_distance
_ccdc_geom_bond_type
O5    C6    1.396710 S    
C21   C22   1.400464 A    
C22   C30   1.422844 A    
C27   C28   1.390736 A    
C5    H10   1.108768 S    
C9    H18   1.118458 S    
P8    C28   1.839212 S    
P5    C39   1.845385 S    
C7    H14   1.101583 S    
C4    C5    1.516214 S    
O6    C10   1.392383 S    
O7    Ba1   2.897241 S    
C10   H19   1.103492 S    
C45   C46   1.515605 S    
C44   H49   1.100143 S    
C19   F6    1.357615 S    
C46   H55   1.091011 S    
P7    C38   1.848031 S    
C29   H34   1.071937 S    
C43   H46   1.104070 S    
C19   C20   1.375288 A    
C37   C38   1.424180 A    
P1    C18   1.867522 S    
P3    O11   1.762643 S    
Ba1   O20   2.945997 S    
C2    H5    1.104342 S    
C4    H8    1.109756 S    
O11   C2    1.413246 S    
C41   H43   1.089419 S    
C11   O22   1.408557 S    
C8    H16   1.107770 S    
C43   H47   1.103312 S    
C35   C36   1.437545 A    
P1    Ba1   3.435492 S    
O25   C41   1.413155 S    
P1    O1    1.528900 D    
C12   H23   1.121378 S    
C9    O26   1.396641 S    
C39   C40   1.406765 A    
O3    P6    1.752007 S    
C33   H38   1.078238 S    
O12   Ba2   2.877116 S    
P4    Ba2   3.435955 S    
P5    O18   1.538360 D    
C2    H4    1.112910 S    
C13   H25   1.115450 S    
P8    O23   1.544366 D    
P2    O10   1.718590 S    
C36   C37   1.430274 A    
C1    C10   1.510140 S    
Ba2   O21   2.897457 S    
C15   C16   1.523287 S    
C27   H35   1.082782 S    
O19   C13   1.405066 S    
C42   C43   1.528741 S    
C14   F4    1.383293 S    
P2    O20   1.602811 S    
P5    O17   1.760633 S    
O13   Ba2   2.949440 S    
C11   H21   1.103518 S    
O16   P7    1.781470 S    
C30   H37   1.079650 S    
C5    H11   1.107223 S    
C28   C29   1.393019 A    
Ba1   O16   2.857296 S    
H1    C10   1.104197 S    
C33   C34   1.393026 A    
C42   H45   1.107006 S    
C17   C23   1.414141 A    
C11   C12   1.513996 S    
O17   Ba2   2.838091 S    
P1    O5    1.727722 S    
C6    C7    1.528512 S    
O4    P6    1.531306 D    
C2    C3    1.542191 S    
C4    H7    1.104459 S    
C8    C9    1.492840 S    
C16   H32   1.107694 S    
C41   C42   1.544898 S    
P6    C20   1.822647 S    
C20   C21   1.398154 A    
C43   H48   1.102571 S    
C46   H54   1.097707 S    
C24   C30   1.410918 A    
Ba1   Ba2   4.618158 S    
O1    Ba1   2.876580 S    
P1    O2    1.588296 S    
C6    H13   1.106232 S    
C32   H41   1.082687 S    
C15   H29   1.104475 S    
C31   H40   1.082772 S    
P4    O13   1.588174 S    
C24   C26   1.456172 A    
C11   F2    1.373554 S    
C7    O25   1.419919 S    
C40   H39   1.074150 S    
C18   C19   1.393359 A    
O2    Ba1   2.948665 S    
C1    H3    1.096736 S    
O14   P8    1.741808 S    
C9    F1    1.387978 S    
P3    C34   1.838929 S    
P2    O7    1.528053 D    
P4    O15   1.748862 S    
C16   F5    1.387890 S    
C17   H36   1.079293 S    
P3    O8    1.743038 S    
P4    O12   1.529264 D    
P8    O24   1.750685 S    
C32   C34   1.389588 A    
C31   C39   1.388097 A    
C18   C23   1.456175 A    
C45   H51   1.102092 S    
C44   C45   1.524383 S    
C33   C37   1.407169 A    
C42   H44   1.108271 S    
C14   H28   1.115498 S    
C1    H2    1.101789 S    
C7    H15   1.096918 S    
C4    O15   1.399464 S    
C36   C40   1.418095 A    
C16   H31   1.116233 S    
C45   H52   1.110899 S    
C44   H50   1.108968 S    
Ba2   O20   2.856616 S    
C12   F3    1.382413 S    
O8    Ba1   2.837494 S    
C46   H53   1.097976 S    
C17   C25   1.428764 A    
P4    C26   1.890398 S    
C6    H12   1.105002 S    
C14   H27   1.107419 S    
P2    Ba1   3.445684 S    
C41   H42   1.095224 S    
P7    O21   1.568830 D    
P2    C35   1.861251 S    
O2    Ba2   2.836457 S    
C24   C25   1.427505 A    
C8    H17   1.110347 S    
C13   C14   1.524563 S    
O16   Ba2   2.945203 S    
O14   Ba2   2.829412 S    
C26   C27   1.398221 A    
C32   C35   1.395875 A    
C1    H20   1.107402 S    
O10   C8    1.377786 S    
C12   H22   1.113749 S    
C15   O24   1.403645 S    
C3    H24   1.107150 S    
O3    Ba1   2.830011 S    
C25   C29   1.405643 A    
P5    O19   1.743405 S    
C22   C23   1.422355 A    
C13   H26   1.107310 S    
Ba1   O13   2.835885 S    
P3    O9    1.549077 D    
C3    F7    1.375085 S    
C5    H9    1.104447 S    
C3    H6    1.097428 S    
C31   C38   1.389899 A    
O6    P6    1.727018 S    
C15   H30   1.108256 S    
O26   C44   1.393989 S    
P7    O22   1.749590 S    
C21   H33   1.072038 S    
