data_mof_unit_24324.cif
_audit_creation_date              2012-12-10T19:01:20-0500
_audit_creation_method            fapswitch 2.2
_symmetry_space_group_name_H-M    P1
_symmetry_Int_Tables_number       1
_space_group_crystal_system       triclinic
_cell_length_a                    9.713829
_cell_length_b                    10.79682
_cell_length_c                    15.594602
_cell_angle_alpha                 88.93584
_cell_angle_beta                  71.454454
_cell_angle_gamma                 90.3844
_cell_volume                      1550.20148524

loop_
_atom_site_label
_atom_site_type_symbol
_atom_type_description
_atom_site_fract_x
_atom_site_fract_y
_atom_site_fract_z
_atom_type_partial_charge
C1    C     C_R   0.997896 0.262863 0.503203 0.763300
C2    C     C_R   0.660827 0.391054 0.902276 -0.018496
C3    C     C_R   0.756569 0.390277 0.953281 0.005424
C4    C     C_R   0.510074 0.379126 0.949616 -0.055433
C5    C     C_R   0.464530 0.375102 0.045587 -0.005482
C6    C     C_R   0.562745 0.336348 0.090078 0.397627
C7    C     C_R   0.710581 0.330041 0.038793 -0.121072
C8    C     C_R   0.402808 0.376198 0.906806 -0.283256
C9    C     C_R   0.256724 0.355118 0.957262 0.465586
C10   C     C_R   0.212959 0.377019 0.050863 -0.012216
C11   C     C_R   0.318099 0.395865 0.093973 0.056450
C12   C     C_R   0.914851 0.491710 0.671959 0.816662
C13   C     C_R   0.066831 0.378076 0.103321 -0.254695
C14   C     C_R   0.024929 0.401913 0.195473 0.497636
C15   C     C_R   0.275064 0.439231 0.183090 -0.250365
C16   C     C_R   0.111911 0.064894 0.520112 0.131929
C17   C     C_R   0.990810 0.129553 0.515369 -0.092995
C18   C     C_R   0.860699 0.063216 0.527318 -0.268732
C19   C     C_R   0.860926 0.933841 0.528917 -0.209574
C20   C     C_R   0.991848 0.870303 0.515804 -0.095721
C21   C     C_R   0.112599 0.937611 0.519800 0.136033
C22   C     C_3   0.267742 0.934926 0.462379 -0.503579
C23   C     C_R   0.998607 0.737229 0.503171 0.776328
C24   C     C_3   0.267368 0.075404 0.462920 -0.463881
C25   C     C_R   0.611723 0.531826 0.423687 0.158273
C26   C     C_R   0.536148 0.457856 0.572591 -0.094266
C27   C     C_R   0.388667 0.457895 0.572717 -0.081401
C28   C     C_R   0.466347 0.530384 0.423576 0.056732
C29   C     C_3   0.487858 0.646693 0.367732 0.174976
C30   C     C_3   0.647231 0.649000 0.366839 0.806409
C31   C     C_R   0.083693 0.487401 0.328843 0.794619
C32   C     C_R   0.859863 0.462678 0.769993 -0.166581
C33   C     C_R   0.128374 0.447157 0.233735 -0.201470
C34   C     C_R   0.893957 0.446185 0.916816 -0.040909
C35   C     C_R   0.943777 0.486054 0.826280 -0.271522
C36   C     C_R   0.722037 0.405019 0.807342 0.466604
Cu1   Cu    Cu3+1 0.140670 0.499980 0.500000 0.944363
Cu2   Cu    Cu3+1 0.859330 0.500020 0.500000 1.003698
H1    H     H_    0.984706 0.358874 0.073991 0.193293
H2    H     H_    0.761007 0.110361 0.530950 0.163792
H3    H     H_    0.760703 0.884509 0.535735 0.210336
H4    H     H_    0.335982 0.893460 0.500213 0.199885
H5    H     H_    0.282042 0.897673 0.394327 0.189329
H6    H     H_    0.336932 0.115153 0.500280 0.193872
H7    H     H_    0.281801 0.118718 0.395275 0.212418
H8    H     H_    0.558558 0.425092 0.632240 0.199165
H9    H     H_    0.304282 0.424843 0.632614 0.143109
H10   H     H_    0.355781 0.467888 0.212561 0.238779
H11   H     H_    0.418556 0.721181 0.406552 0.086461
H12   H     H_    0.958330 0.466542 0.959693 0.174679
H13   H     H_    0.049266 0.531025 0.799770 0.177863
H14   H     H_    0.427936 0.387376 0.835077 0.208935
N1    N     N_R   0.648210 0.500930 0.499430 -0.185637
N2    N     N_R   0.352300 0.500890 0.499430 -0.188982
O1    O     O_R   0.118810 0.319640 0.500000 -0.579574
O2    O     O_R   0.881230 0.319680 0.499990 -0.584973
O3    O     O_R   0.055580 0.499970 0.629840 -0.595082
O4    O     O_R   0.818000 0.500010 0.629830 -0.537914
O5    O     O_R   0.118770 0.680320 0.500010 -0.583192
O6    O     O_R   0.881190 0.680360 0.500000 -0.534258
O7    O     O_R   0.182000 0.499990 0.370170 -0.563135
O8    O     O_R   0.944420 0.500030 0.370160 -0.514003
C37   C     C_2   0.794892 0.224480 0.057226 0.378705
H15   H     H_    0.764764 0.179628 0.123300 0.096146
O9    O     O_2   0.895658 0.181796 0.997041 -0.537262
O10   O     O_3   0.476814 0.622131 0.281370 -0.565448
C38   C     C_3   0.407345 0.720281 0.251594 -0.317719
H16   H     H_    0.466375 0.809563 0.248256 0.154640
H17   H     H_    0.292462 0.727375 0.295377 0.159972
H18   H     H_    0.406637 0.700827 0.182150 0.184137
O11   O     O_3   0.748450 0.622190 0.280402 -0.550329
C39   C     C_3   0.867062 0.705830 0.250090 -0.180977
H19   H     H_    0.920764 0.722022 0.302152 0.174314
H20   H     H_    0.833368 0.793854 0.225356 0.141387
H21   H     H_    0.949637 0.665062 0.191313 0.149094
O12   O     O_3   0.684859 0.746255 0.416227 -0.606104
C40   C     C_3   0.659142 0.866055 0.386385 -0.469576
H22   H     H_    0.584140 0.915164 0.443961 0.189628
H23   H     H_    0.614364 0.867876 0.329219 0.163770
H24   H     H_    0.762833 0.919597 0.364870 0.196626
O13   O     O_3   0.883386 0.376613 0.247847 -0.561294
C41   C     C_3   0.879133 0.258293 0.289257 -0.304805
H25   H     H_    0.775546 0.247679 0.345580 0.177441
H26   H     H_    0.967621 0.244680 0.319561 0.154123
H27   H     H_    0.884188 0.184418 0.239736 0.140739
O14   O     O_3   0.153743 0.325839 0.916006 -0.580747
C42   C     C_3   0.204685 0.237245 0.847835 -0.226906
H28   H     H_    0.266304 0.161920 0.868393 0.153409
H29   H     H_    0.270844 0.282563 0.783246 0.125889
H30   H     H_    0.109726 0.193599 0.834875 0.215412
O15   O     O_3   0.656314 0.352080 0.750156 -0.619148
C43   C     C_3   0.687705 0.224580 0.744252 -0.340776
H31   H     H_    0.640808 0.176006 0.810917 0.177330
H32   H     H_    0.806819 0.208998 0.716967 0.167595
H33   H     H_    0.637197 0.183032 0.696804 0.178747
O16   O     O_3   0.506760 0.270800 0.171516 -0.602939
C44   C     C_3   0.558306 0.319198 0.239245 -0.307679
H34   H     H_    0.632071 0.401478 0.217815 0.234852
H35   H     H_    0.613529 0.244448 0.264303 0.168647
H36   H     H_    0.464021 0.345437 0.297496 0.202936

loop_
_geom_bond_atom_site_label_1
_geom_bond_atom_site_label_2
_ccdc_geom_bond_type
C42   H28   S    
C37   O9    D    
C16   C21   A    
C31   O7    A    
C19   C20   A    
C4    C8    A    
C14   C33   A    
C30   O11   S    
C27   N2    A    
C29   H11   S    
C40   H22   S    
C25   C28   A    
C23   O5    A    
C26   C27   A    
C29   C30   S    
C24   H7    S    
C32   C36   A    
C28   C29   S    
C1    O2    A    
C25   N1    A    
C5    C11   A    
C3    C7    A    
C5    C6    A    
C27   H9    S    
C34   C35   A    
C18   H2    S    
C41   H26   S    
Cu2   O4    S    
C11   C15   A    
C8    C9    A    
C22   H4    S    
C31   C33   S    
C9    C10   A    
C8    H14   S    
C12   O4    A    
O10   C38   S    
C16   C24   S    
C21   C22   S    
C12   C32   S    
C31   O8    A    
C15   H10   S    
C39   H21   S    
C44   H35   S    
C44   H34   S    
C40   H23   S    
C23   O6    A    
C34   H12   S    
C38   H16   S    
C32   C35   A    
O12   C40   S    
C39   H20   S    
O15   C43   S    
C28   N2    A    
O14   C42   S    
C18   C19   A    
C3    C34   A    
C43   H33   S    
O13   C41   S    
C29   O10   S    
C38   H17   S    
C2    C4    A    
Cu1   Cu2   S    
C9    O14   S    
C30   O12   S    
C22   H5    S    
C20   C23   S    
O16   C44   S    
C43   H32   S    
C17   C18   A    
C7    C37   S    
Cu1   O5    S    
Cu2   O6    S    
Cu1   N2    S    
C36   O15   S    
C6    O16   S    
C42   H29   S    
C35   H13   S    
C24   H6    S    
C22   C24   S    
C12   O3    A    
C26   N1    A    
C44   H36   S    
C40   H24   S    
C2    C36   A    
C25   C30   S    
C39   H19   S    
C10   C13   A    
Cu1   O7    S    
C6    C7    A    
C41   H27   S    
C1    C17   S    
C38   H18   S    
C2    C3    A    
C1    O1    A    
O11   C39   S    
C16   C17   A    
Cu2   N1    S    
C43   H31   S    
C13   H1    S    
C10   C11   A    
C26   H8    S    
C37   H15   S    
Cu1   O1    S    
C4    C5    A    
Cu2   O2    S    
C20   C21   A    
C41   H25   S    
C42   H30   S    
C14   O13   S    
C13   C14   A    
C15   C33   A    
Cu1   O3    S    
C19   H3    S    
Cu2   O8    S    
