data_mof_unit_18730.cif
_audit_creation_date              2012-12-11T18:45:07-0500
_audit_creation_method            fapswitch 2.2
_symmetry_space_group_name_H-M    P1
_symmetry_Int_Tables_number       1
_space_group_crystal_system       triclinic
_cell_length_a                    8.277577
_cell_length_b                    14.262238
_cell_length_c                    18.705395
_cell_angle_alpha                 96.402646
_cell_angle_beta                  91.528336
_cell_angle_gamma                 91.394812
_cell_volume                      2192.91472953

loop_
_atom_site_label
_atom_site_type_symbol
_atom_type_description
_atom_site_fract_x
_atom_site_fract_y
_atom_site_fract_z
_atom_type_partial_charge
Ba1   Ba    Ba6+2 0.843240 0.541620 0.463500 1.627648
Ba2   Ba    Ba6+2 0.346570 0.458460 0.536510 1.628297
C1    C     C_3   0.676361 0.814150 0.181610 -0.387894
C2    C     C_R   0.913805 0.406178 0.099269 0.032691
C3    C     C_R   0.756554 0.372811 0.078910 -0.095797
C4    C     C_3   0.159759 0.805259 0.264132 0.360769
C5    C     C_R   0.696256 0.377014 0.008928 -0.091819
C6    C     C_R   0.791255 0.416027 0.958145 0.033303
C7    C     C_R   0.948655 0.450875 0.978014 0.013564
C8    C     C_R   0.731257 0.419697 0.887808 -0.124260
C9    C     C_R   0.827850 0.455041 0.835341 -0.041831
C10   C     C_R   0.982365 0.495827 0.856158 -0.003266
C11   C     C_R   0.042874 0.492384 0.927618 -0.009831
C12   C     C_3   0.673342 0.770760 0.253016 0.391935
C13   C     C_R   0.776153 0.449110 0.762344 -0.014475
C14   C     C_R   0.875896 0.484690 0.711930 -0.293236
C15   C     C_R   0.020783 0.534087 0.732305 0.046296
C16   C     C_3   0.224618 0.905207 0.251100 -0.134321
C17   C     C_R   0.076405 0.539761 0.805835 -0.052385
C18   C     C_R   0.168716 0.478726 0.068881 -0.006676
C19   C     C_R   0.228567 0.476063 0.140574 -0.002373
C20   C     C_R   0.126759 0.442193 0.192702 -0.043977
C21   C     C_R   0.973299 0.403009 0.169842 -0.053217
C22   C     C_R   0.224026 0.585442 0.830802 -0.041643
C23   C     C_3   0.505377 0.289133 0.320497 0.299988
C24   C     C_R   0.289596 0.575305 0.899718 0.036500
C25   C     C_R   0.199001 0.528430 0.948335 0.002174
C26   C     C_R   0.263638 0.519285 0.018222 0.005932
C27   C     C_R   0.446010 0.610182 0.920508 -0.079318
C28   C     C_3   0.183116 0.751950 0.613317 0.308605
C29   C     C_R   0.511870 0.598526 0.988594 -0.090617
C30   C     C_R   0.421165 0.553937 0.038137 0.027579
C31   C     C_R   0.387323 0.511164 0.160675 -0.033879
C32   C     C_R   0.483537 0.546925 0.107965 -0.104441
C33   C     C_R   0.440456 0.515434 0.233948 0.034076
C34   C     C_3   0.459758 0.241114 0.245105 -0.202747
C35   C     C_R   0.335751 0.486974 0.284917 -0.301228
C36   C     C_R   0.180598 0.451116 0.266127 0.044542
C37   C     C_R   0.696596 0.938839 0.543809 -0.040839
C38   C     C_R   0.511771 0.802445 0.500336 0.051846
C39   C     C_R   0.372101 0.768100 0.461958 -0.279922
C40   C     C_3   0.192919 0.858882 0.629913 -0.393103
C41   C     C_R   0.264165 0.829789 0.435995 0.002035
C42   C     C_R   0.300764 0.926320 0.443152 -0.151196
C43   C     C_R   0.448113 0.961212 0.475762 -0.003841
C44   C     C_R   0.553601 0.900154 0.507346 -0.030095
C45   C     C_3   0.124125 0.274669 0.745251 0.384539
C46   C     C_R   0.635717 0.094264 0.509930 -0.036469
C47   C     C_R   0.739501 0.034880 0.544388 -0.001310
C48   C     C_R   0.680404 0.190165 0.509897 0.039664
C49   C     C_R   0.819924 0.227311 0.546956 -0.272709
C50   C     C_R   0.926233 0.168810 0.578303 0.010550
C51   C     C_R   0.886171 0.072440 0.577648 -0.142362
C52   C     C_3   0.009155 0.252689 0.394769 0.312026
C53   C     C_R   0.490486 0.056388 0.476461 -0.051051
C54   C     C_3   0.000175 0.145386 0.382974 -0.414143
C55   C     C_3   0.690332 0.675106 0.675637 0.317276
C56   C     C_3   0.159040 0.255643 0.822667 -0.371582
C57   C     C_3   0.706595 0.707104 0.755926 -0.406952
C58   C     C_3   0.629421 0.841635 0.317823 -0.141711
C59   C     C_3   0.708933 0.940176 0.322445 -0.455690
C60   C     C_3   0.602524 0.189395 0.209534 -0.164866
C61   C     C_3   0.555747 0.143717 0.133939 -0.451845
C62   C     C_3   0.708429 0.186039 0.805569 -0.207291
C63   C     C_3   0.811536 0.098439 0.792313 -0.480937
C64   C     C_3   0.102234 0.744521 0.194274 -0.174242
C65   C     C_3   0.225974 0.735074 0.135120 -0.492171
C66   C     C_3   0.101555 0.972597 0.222370 -0.185960
C67   C     C_3   0.632020 0.218509 0.736577 0.379110
C68   C     C_3   0.094894 0.970603 0.140504 -0.437523
C69   C     C_3   0.538936 0.137177 0.692389 -0.261797
C70   C     C_R   0.010670 0.445193 0.048719 0.009487
H1    H     H_    0.793079 0.742184 0.262540 0.121561
H2    H     H_    0.809973 0.654421 0.655427 0.011821
H3    H     H_    0.603944 0.613856 0.667173 0.072536
H4    H     H_    0.697723 0.758077 0.136946 0.104242
H5    H     H_    0.798387 0.765521 0.766060 0.124606
H6    H     H_    0.744366 0.648038 0.785732 0.060652
H7    H     H_    0.588611 0.732175 0.776322 0.116805
H8    H     H_    0.773952 0.868367 0.181611 0.083522
H9    H     H_    0.393298 0.318263 0.344514 0.009309
H10   H     H_    0.594662 0.347593 0.316333 0.025803
H11   H     H_    0.357995 0.189783 0.249236 0.110239
H12   H     H_    0.290693 0.879770 0.670824 0.123383
H13   H     H_    0.417544 0.295460 0.211215 0.045230
H14   H     H_    0.559840 0.846518 0.170103 0.113199
H15   H     H_    0.271928 0.940356 0.303329 0.047829
H16   H     H_    0.184411 0.342884 0.736961 0.091537
H17   H     H_    0.991649 0.280457 0.737498 -0.085942
H18   H     H_    0.289314 0.266969 0.836958 0.146431
H19   H     H_    0.089518 0.303973 0.860046 0.069152
H20   H     H_    0.124393 0.181892 0.830032 0.116509
H21   H     H_    0.729634 0.242321 0.702497 -0.036150
H22   H     H_    0.619216 0.078877 0.674567 0.048090
H23   H     H_    0.218454 0.892411 0.580775 0.073605
H24   H     H_    0.486693 0.163173 0.643688 0.155345
H25   H     H_    0.441133 0.109088 0.724198 0.135281
H26   H     H_    0.678756 0.345058 0.117499 0.061601
H27   H     H_    0.574372 0.350621 0.994762 0.068685
H28   H     H_    0.835232 0.478496 0.656109 0.067163
H29   H     H_    0.610048 0.392341 0.874280 0.104219
H30   H     H_    0.896939 0.370650 0.206389 0.085553
H31   H     H_    0.293309 0.625946 0.796340 0.102274
H32   H     H_    0.518490 0.645516 0.883740 0.064157
H33   H     H_    0.633156 0.625802 0.002923 0.068368
H34   H     H_    0.076102 0.884930 0.650979 0.117137
H35   H     H_    0.605261 0.573436 0.121393 0.105654
H36   H     H_    0.260498 0.766834 0.287168 0.002626
H37   H     H_    0.374666 0.495302 0.341049 0.069907
H38   H     H_    0.341125 0.693419 0.456767 0.070956
H39   H     H_    0.214420 0.973931 0.423438 0.071632
H40   H     H_    0.969933 0.027077 0.601673 0.068635
H41   H     H_    0.852932 0.301078 0.546080 0.058640
H42   H     H_    0.777084 0.895510 0.571351 0.103947
H43   H     H_    0.409522 0.099295 0.448837 0.110623
H44   H     H_    0.330994 0.900192 0.216640 0.075104
H45   H     H_    0.891205 0.279755 0.412028 0.010729
H46   H     H_    0.303129 0.726118 0.597484 0.007367
H47   H     H_    0.093148 0.733121 0.568657 0.068560
H48   H     H_    0.838161 0.938732 0.337999 0.183090
H49   H     H_    0.691139 0.972914 0.271971 0.114066
H50   H     H_    0.652341 0.987114 0.364880 0.132136
H51   H     H_    0.497616 0.850551 0.317302 0.079378
H52   H     H_    0.660161 0.810187 0.367843 0.131030
H53   H     H_    0.458581 0.089243 0.136481 0.133790
H54   H     H_    0.512791 0.197516 0.099802 0.136104
H55   H     H_    0.662520 0.109324 0.108893 0.125955
H56   H     H_    0.102607 0.274557 0.437266 0.084478
H57   H     H_    0.705984 0.239636 0.206717 0.102141
H58   H     H_    0.642499 0.133172 0.242045 0.144636
H59   H     H_    0.733831 0.034090 0.778528 0.138488
H60   H     H_    0.896507 0.105892 0.748241 0.144952
H61   H     H_    0.881782 0.088839 0.842227 0.134842
H62   H     H_    0.787235 0.244135 0.832288 0.095857
H63   H     H_    0.612029 0.171630 0.843493 0.118115
H64   H     H_    0.255285 0.803253 0.114985 0.135803
H65   H     H_    0.338192 0.706019 0.155018 0.185514
H66   H     H_    0.174971 0.687169 0.088933 0.139815
H67   H     H_    0.907956 0.121459 0.340209 0.122804
H68   H     H_    0.069808 0.672543 0.207717 0.120301
H69   H     H_    0.991812 0.773378 0.172136 0.108006
H70   H     H_    0.218073 0.978443 0.119511 0.127374
H71   H     H_    0.035648 0.904643 0.114494 0.134883
H72   H     H_    0.022248 0.030304 0.125562 0.124788
H73   H     H_    0.979553 0.958851 0.241312 0.134947
H74   H     H_    0.137500 0.045890 0.244530 0.108218
H75   H     H_    0.967492 0.115753 0.432971 0.073423
H76   H     H_    0.119785 0.118240 0.366639 0.105913
O1    O     O_2   0.887710 0.436190 0.327560 -0.481204
O2    O     O_2   0.256175 0.170419 0.562285 -0.496804
O3    O     O_3   0.182863 0.200666 0.697755 -0.598882
O4    O     O_3   0.135370 0.443490 0.416520 -0.488258
O5    O     O_3   0.551980 0.615210 0.532020 -0.486725
O6    O     O_2   0.394410 0.269100 0.474240 -0.468937
O7    O     O_3   0.572499 0.222570 0.361551 -0.657847
O8    O     O_2   0.444109 0.464271 0.758122 -0.493076
O9    O     O_3   0.520211 0.289260 0.756804 -0.603277
O10   O     O_3   0.634420 0.609440 0.364670 -0.467740
O11   O     O_2   0.778602 0.569915 0.236638 -0.527663
O12   O     O_3   0.634257 0.750457 0.641031 -0.641631
O13   O     O_3   0.047846 0.285842 0.329651 -0.645909
O14   O     O_3   0.552704 0.699610 0.244566 -0.651086
O15   O     O_2   0.795290 0.730930 0.525800 -0.469898
O16   O     O_3   0.044470 0.660110 0.398750 -0.463104
O17   O     O_2   0.935178 0.829565 0.442203 -0.490092
O18   O     O_3   0.027246 0.814213 0.310335 -0.639473
O19   O     O_2   0.301980 0.563840 0.672490 -0.467266
O20   O     O_3   0.054330 0.556590 0.583490 -0.494307
O21   O     O_3   0.555270 0.390630 0.635330 -0.460146
O22   O     O_3   0.136815 0.713997 0.675532 -0.639899
O23   O     O_3   0.637720 0.384870 0.467990 -0.472614
O24   O     O_3   0.145220 0.339960 0.601250 -0.481695
P1    P     P_3+3 0.061800 0.409390 0.339760 0.972303
P2    P     P_3+3 0.622760 0.718740 0.547830 0.969775
P3    P     P_3+3 0.070619 0.782659 0.396848 0.926109
P4    P     P_3+3 0.127890 0.590690 0.660240 0.970266
P5    P     P_3+3 0.126138 0.219213 0.609699 0.937847
P6    P     P_3+3 0.612834 0.591245 0.270879 0.927639
P7    P     P_3+3 0.575507 0.266103 0.452665 0.934419
P8    P     P_3+3 0.577190 0.398254 0.728651 0.938602

loop_
_geom_bond_atom_site_label_1
_geom_bond_atom_site_label_2
_ccdc_geom_bond_type
O24   P5    S    
C46   C53   A    
C4    O18   S    
C54   H76   S    
C23   O7    S    
C39   C41   A    
C60   H58   S    
C7    C70   A    
C57   H5    S    
C5    C6    A    
C64   H69   S    
O22   P4    S    
C43   C44   A    
C50   C51   A    
C38   C44   A    
C10   C11   A    
C69   H25   S    
Ba1   P1    S    
O18   P3    S    
C49   H41   S    
C5    H27   S    
Ba1   O4    S    
C32   H35   S    
C18   C70   A    
C19   C20   A    
Ba1   O10   S    
C33   C35   A    
C22   C24   A    
C67   H21   S    
O3    P5    S    
C21   H30   S    
C19   C31   A    
C28   H47   S    
C34   H11   S    
C16   C66   S    
C13   C14   A    
C20   C36   A    
O16   P3    S    
C59   H49   S    
Ba1   Ba2   S    
C48   P7    S    
C67   C69   S    
C65   H66   S    
C7    C11   A    
C50   P5    S    
C28   O22   S    
Ba2   P4    S    
C9    C13   A    
Ba1   O16   S    
C14   C15   A    
C67   O9    S    
Ba1   O1    S    
C56   H19   S    
O21   P8    S    
C35   H37   S    
C15   P4    S    
Ba2   O23   S    
C33   P6    S    
C46   C48   A    
C64   C65   S    
C62   H63   S    
Ba2   O6    S    
C13   P8    S    
C1    H14   S    
C23   H9    S    
C29   H33   S    
C60   H57   S    
O23   P7    S    
C41   P3    S    
C34   C60   S    
C1    H8    S    
C57   H6    S    
C63   H59   S    
O7    P7    S    
C48   C49   A    
C62   H62   S    
Ba2   O4    S    
C4    C16   S    
C52   C54   S    
Ba1   P2    S    
C68   H70   S    
C40   H23   S    
C12   H1    S    
C26   C30   A    
C40   H12   S    
C16   H44   S    
C3    C5    A    
C54   H67   S    
C6    C7    A    
C36   P1    S    
C69   H24   S    
C18   C26   A    
Ba1   O20   S    
C52   H56   S    
O5    P2    S    
Ba1   O23   S    
C49   C50   A    
C27   H32   S    
C58   C59   S    
O9    P8    S    
C30   C32   A    
C55   H2    S    
C12   O14   S    
C58   H51   S    
C41   C42   A    
C42   H39   S    
C35   C36   A    
O13   P1    S    
C11   C25   A    
C29   C30   A    
C37   H42   S    
C60   C61   S    
C31   C32   A    
C68   H71   S    
C62   C67   S    
C18   C19   A    
Ba1   O5    S    
C1    H4    S    
C40   H34   S    
C43   C53   A    
C61   H53   S    
C1    C12   S    
C56   H18   S    
O2    P5    D    
O20   P4    S    
O4    P1    S    
C51   H40   S    
C66   C68   S    
C38   C39   A    
C37   C47   A    
C55   O12   S    
C45   O3    S    
C45   H17   S    
Ba2   O5    S    
C39   H38   S    
C37   C44   A    
C24   C25   A    
C23   H10   S    
C58   H52   S    
O11   P6    D    
C57   H7    S    
Ba2   O20   S    
C2    C70   A    
C63   H60   S    
C66   H74   S    
C42   C43   A    
C2    C21   A    
C46   C47   A    
O12   P2    S    
C8    H29   S    
C14   H28   S    
C2    C3    A    
C9    C10   A    
C34   H13   S    
O17   P3    D    
C12   C58   S    
C68   H72   S    
C16   H15   S    
C22   H31   S    
C62   C63   S    
C55   H3    S    
C54   H75   S    
C65   H64   S    
O10   P6    S    
C27   C29   A    
C45   H16   S    
C45   C56   S    
C38   P2    S    
O8    P8    D    
C53   H43   S    
C47   C51   A    
C10   C17   A    
C31   C33   A    
C17   C22   A    
C28   C40   S    
C52   O13   S    
C65   H65   S    
Ba2   O21   S    
C63   H61   S    
O14   P6    S    
C61   H54   S    
C55   C57   S    
C8    C9    A    
C23   C34   S    
O1    P1    D    
C15   C17   A    
C4    C64   S    
C64   H68   S    
C3    H26   S    
Ba1   O15   S    
C24   C27   A    
C6    C8    A    
C52   H45   S    
C28   H46   S    
C25   C26   A    
C4    H36   S    
C20   C21   A    
C59   H50   S    
C69   H22   S    
O6    P7    D    
O15   P2    D    
C56   H20   S    
Ba2   O19   S    
C61   H55   S    
C66   H73   S    
Ba2   O24   S    
O19   P4    D    
C59   H48   S    
