data_mof_unit_55373.cif
_audit_creation_date              2012-12-10T18:47:47-0500
_audit_creation_method            fapswitch 2.2
_symmetry_space_group_name_H-M    P1
_symmetry_Int_Tables_number       1
_space_group_crystal_system       triclinic
_cell_length_a                    9.933489
_cell_length_b                    10.634724
_cell_length_c                    15.484706
_cell_angle_alpha                 91.690601
_cell_angle_beta                  68.37701
_cell_angle_gamma                 91.210861
_cell_volume                      1519.93482216

loop_
_atom_site_label
_atom_site_type_symbol
_atom_type_description
_atom_site_fract_x
_atom_site_fract_y
_atom_site_fract_z
_atom_type_partial_charge
C1    C     C_R   0.500780 0.739707 0.500381 0.862219
C2    C     C_R   0.373944 0.935119 0.552920 -0.202853
C3    C     C_R   0.498715 0.127785 0.499061 -0.008037
C4    C     C_R   0.501309 0.872239 0.500840 -0.009059
C5    C     C_R   0.954319 0.414834 0.447453 -0.135355
C6    C     C_R   0.045713 0.585199 0.552498 -0.132881
C7    C     C_R   0.097324 0.412912 0.447230 0.166663
C8    C     C_R   0.902742 0.587165 0.552677 0.168935
C9    C     C_R   0.409393 0.498115 0.675581 0.860935
C10   C     C_R   0.590374 0.497643 0.324328 0.862195
C11   C     C_R   0.352772 0.486516 0.776204 -0.055286
C12   C     C_R   0.499242 0.260299 0.499574 0.861287
C13   C     C_R   0.642935 0.475124 0.224150 -0.054470
C14   C     C_R   0.161034 0.507127 0.926817 -0.220870
C15   C     C_R   0.810667 0.378886 0.083281 -0.226375
C16   C     C_R   0.208001 0.511927 0.830442 -0.203569
C17   C     C_R   0.777494 0.420341 0.175112 -0.211738
C18   C     C_R   0.447589 0.449549 0.818019 -0.270537
C19   C     C_R   0.544164 0.489952 0.180885 -0.270061
C20   C     C_R   0.402791 0.442487 0.914356 0.095465
C21   C     C_R   0.569330 0.438709 0.092634 0.096132
C22   C     C_R   0.258275 0.475919 0.969235 0.179657
C23   C     C_R   0.314695 0.466733 0.107203 -0.236821
C24   C     C_R   0.707497 0.388111 0.041526 0.180006
C25   C     C_R   0.501736 0.413925 0.957310 0.067591
C26   C     C_R   0.461501 0.440432 0.053370 0.071150
C27   C     C_3   0.193647 0.311437 0.386572 -0.398712
C28   C     C_3   0.145372 0.180691 0.427170 -0.366555
C29   C     C_3   0.244745 0.078217 0.367484 -0.848494
C30   C     C_3   0.806581 0.688876 0.613112 -0.397478
C31   C     C_3   0.855189 0.819452 0.572209 -0.366011
C32   C     C_3   0.756267 0.922348 0.631677 -0.855783
C33   C     C_R   0.639980 0.362053 0.907563 -0.236211
C34   C     C_R   0.214269 0.481957 0.065546 -0.248081
C35   C     C_R   0.740086 0.347334 0.949860 -0.245108
C36   C     C_R   0.627141 0.935976 0.447541 -0.188449
C37   C     C_R   0.372871 0.064052 0.552335 -0.188489
C38   C     C_R   0.626064 0.064914 0.446945 -0.201166
H1    H     H_    0.446293 0.541144 0.218107 0.158772
H2    H     H_    0.276710 0.884612 0.594427 0.139522
H3    H     H_    0.103430 0.504314 0.108647 0.148983
H4    H     H_    0.844544 0.306747 0.909987 0.150226
H5    H     H_    0.050446 0.532437 0.968150 0.149402
H6    H     H_    0.915155 0.336910 0.045765 0.144259
H7    H     H_    0.920639 0.347681 0.405240 0.135492
H8    H     H_    0.079431 0.652409 0.594653 0.135661
H9    H     H_    0.239799 0.074666 0.296950 0.256122
H10   H     H_    0.358346 0.096558 0.361320 0.270198
H11   H     H_    0.209503 0.985486 0.400042 0.251252
H12   H     H_    0.558854 0.433153 0.774246 0.160230
H13   H     H_    0.146068 0.178787 0.498625 0.236889
H14   H     H_    0.033148 0.159399 0.431337 0.209171
H15   H     H_    0.188119 0.313970 0.316192 0.166665
H16   H     H_    0.307726 0.326289 0.375804 0.265386
H17   H     H_    0.642554 0.904224 0.638032 0.270285
H18   H     H_    0.761464 0.926260 0.702139 0.254725
H19   H     H_    0.791747 0.014861 0.598829 0.251549
H20   H     H_    0.967522 0.840556 0.567898 0.209228
H21   H     H_    0.854392 0.821113 0.500772 0.237553
H22   H     H_    0.692478 0.674057 0.623901 0.263880
H23   H     H_    0.854513 0.406246 0.208373 0.149871
H24   H     H_    0.812040 0.686492 0.683528 0.169736
H25   H     H_    0.132820 0.539440 0.798696 0.155695
H26   H     H_    0.273916 0.473506 0.182112 0.143387
H27   H     H_    0.671942 0.328199 0.836544 0.148676
H28   H     H_    0.724373 0.886150 0.405694 0.141227
H29   H     H_    0.275635 0.113882 0.594183 0.140911
H30   H     H_    0.723282 0.115434 0.405422 0.139980
N1    N     N_R   0.142780 0.500030 0.500020 -0.102896
N2    N     N_R   0.857220 0.499970 0.499980 -0.102954
O1    O     O_R   0.385370 0.683250 0.500010 -0.617097
O2    O     O_R   0.614630 0.316750 0.499990 -0.618590
O3    O     O_R   0.614700 0.683220 0.500000 -0.628455
O4    O     O_R   0.385300 0.316780 0.500000 -0.629150
O5    O     O_R   0.319830 0.500020 0.632250 -0.613700
O6    O     O_R   0.680170 0.499980 0.367750 -0.613351
O7    O     O_R   0.549160 0.499990 0.632240 -0.636334
O8    O     O_R   0.450840 0.500010 0.367760 -0.634292
Zn1   Zn    Zn3+2 0.346870 0.500020 0.500000 0.924655
Zn2   Zn    Zn3+2 0.653130 0.499980 0.500000 0.923443

loop_
_geom_bond_atom_site_label_1
_geom_bond_atom_site_label_2
_ccdc_geom_bond_type
C6    N1    A    
C21   C26   A    
C4    C36   A    
C11   C18   A    
C12   O4    A    
O1    Zn1   S    
C10   O8    A    
C27   H16   S    
C33   H27   S    
C29   H11   S    
C1    O1    A    
C29   H9    S    
C31   H20   S    
C28   C29   S    
C19   C21   A    
C15   H6    S    
C30   C31   S    
C28   H13   S    
C36   H28   S    
C20   C25   A    
C7    C27   S    
C23   C26   A    
C31   H21   S    
C35   H4    S    
C3    C12   S    
C17   H23   S    
C10   O6    A    
C3    C38   A    
C30   H22   S    
C16   H25   S    
C32   H17   S    
C12   O2    A    
C34   H3    S    
C32   H19   S    
C22   C34   A    
C24   C35   A    
C13   C19   A    
C29   H10   S    
N2    Zn2   S    
C5    C7    A    
O8    Zn1   S    
C6    C8    A    
C25   C26   A    
C5    H7    S    
C2    C4    A    
C5    N2    A    
C11   C16   A    
C31   C32   S    
C23   C34   A    
C9    O7    A    
C9    C11   S    
C19   H1    S    
C23   H26   S    
C20   C22   A    
O4    Zn1   S    
C30   H24   S    
C14   C16   A    
N1    Zn1   S    
C18   H12   S    
O7    Zn2   S    
C15   C17   A    
C15   C24   A    
C6    H8    S    
O6    Zn2   S    
C38   H30   S    
C10   C13   S    
C7    N1    A    
C27   H15   S    
C8    N2    A    
C13   C17   A    
C1    C4    S    
C1    O3    A    
C14   C22   A    
C36   C38   A    
C8    C30   S    
O2    Zn2   S    
C28   H14   S    
C2    C37   A    
C37   H29   S    
C33   C35   A    
O3    Zn2   S    
C18   C20   A    
C2    H2    S    
C3    C37   A    
C21   C24   A    
C27   C28   S    
C9    O5    A    
O5    Zn1   S    
C32   H18   S    
C25   C33   A    
C14   H5    S    
