data_mof_unit_31554.cif
_audit_creation_date              2013-03-05T15:46:01-0500
_audit_creation_method            fapswitch 2.2
_symmetry_space_group_name_H-M    P1
_symmetry_Int_Tables_number       1
_space_group_crystal_system       triclinic
_cell_length_a                    17.286503
_cell_length_b                    24.11386
_cell_length_c                    14.830572
_cell_angle_alpha                 89.999968
_cell_angle_beta                  124.3739
_cell_angle_gamma                 89.994845
_cell_volume                      5102.47477056

loop_
_atom_site_label
_atom_site_type_symbol
_atom_site_description
_atom_site_fract_x
_atom_site_fract_y
_atom_site_fract_z
_atom_type_partial_charge
C1    C     C_R   0.357562 0.153790 0.909921 0.002265
C2    C     C_R   0.359227 0.845780 0.910698 0.021514
C3    C     C_R   0.859166 0.654210 0.910668 0.020724
C4    C     C_R   0.857240 0.346294 0.909832 -0.001937
H1    H     H_    0.331044 0.169594 0.829517 0.166864
H2    H     H_    0.333442 0.829633 0.830758 0.162597
H3    H     H_    0.833390 0.670354 0.830728 0.162876
H4    H     H_    0.830483 0.330529 0.829354 0.167507
N1    N     N_R   0.392140 0.102630 0.941800 -0.059969
N2    N     N_R   0.392140 0.897370 0.941800 -0.060674
N3    N     N_R   0.892140 0.602630 0.941800 -0.060669
N4    N     N_R   0.892140 0.397370 0.941800 -0.059826
C5    C     C_R   0.445218 0.846389 0.091577 -0.141854
C6    C     C_R   0.444670 0.153579 0.091180 -0.140842
C7    C     C_R   0.944564 0.346435 0.091140 -0.140566
C8    C     C_R   0.945198 0.653612 0.091557 -0.141839
H5    H     H_    0.490968 0.832661 0.175252 0.098399
H6    H     H_    0.490521 0.167503 0.174698 0.098310
H7    H     H_    0.990427 0.332472 0.174633 0.098187
H8    H     H_    0.990960 0.667344 0.175223 0.098387
N5    N     N_R   0.450890 0.896450 0.057150 -0.052169
N6    N     N_R   0.450890 0.103550 0.057150 -0.051521
N7    N     N_R   0.950890 0.396450 0.057150 -0.051378
N8    N     N_R   0.950890 0.603550 0.057150 -0.052158
C9    C     C_R   0.478074 0.046104 0.247162 -0.121541
C10   C     C_R   0.478086 0.953888 0.247150 -0.121055
C11   C     C_R   0.978078 0.546119 0.247138 -0.121113
C12   C     C_R   0.978064 0.453903 0.247152 -0.121677
H9    H     H_    0.467467 0.089205 0.256612 0.099464
H10   H     H_    0.467491 0.910786 0.256573 0.099422
H11   H     H_    0.967483 0.589223 0.256556 0.099411
H12   H     H_    0.967458 0.410804 0.256610 0.099452
N9    N     N_R   0.525160 0.027960 0.206160 -0.040629
N10   N     N_R   0.525160 0.972040 0.206160 -0.040917
N11   N     N_R   0.025160 0.527960 0.206160 -0.040906
N12   N     N_R   0.025160 0.472040 0.206160 -0.040620
C13   C     C_R   0.230631 0.953081 0.743269 0.336249
C14   C     C_R   0.229558 0.046547 0.740428 0.329072
C15   C     C_R   0.729572 0.453432 0.739889 0.328282
C16   C     C_R   0.730634 0.546941 0.742886 0.336329
N13   N     N_R   0.317870 0.971120 0.792790 -0.107884
N14   N     N_R   0.317870 0.028880 0.792790 -0.105863
N15   N     N_R   0.817870 0.471120 0.792790 -0.105819
N16   N     N_R   0.817870 0.528880 0.792790 -0.107790
C17   C     C_R   0.387127 0.186207 0.000624 -0.002587
C18   C     C_R   0.388555 0.813495 0.001361 -0.005372
C19   C     C_R   0.888507 0.686500 0.001327 -0.005345
C20   C     C_R   0.886836 0.313865 0.000543 -0.001749
C21   C     C_R   0.445454 0.999989 0.271919 0.044145
C22   C     C_R   0.945438 0.500024 0.271898 0.044159
C23   C     C_R   0.171110 0.999467 0.708814 -0.340722
C24   C     C_R   0.671148 0.500540 0.708140 -0.341104
C25   C     C_R   0.447401 0.045549 0.694773 0.618302
C26   C     C_R   0.447226 0.954425 0.694740 0.612268
C27   C     C_R   0.947248 0.545581 0.694752 0.612424
C28   C     C_R   0.947469 0.454457 0.694794 0.619065
N17   N     N_R   0.473480 0.027920 0.793480 -0.143954
N18   N     N_R   0.473480 0.972080 0.793480 -0.143857
N19   N     N_R   0.973480 0.527920 0.793480 -0.143940
N20   N     N_R   0.973480 0.472080 0.793480 -0.144044
C29   C     C_R   0.750153 0.953503 0.304856 -0.149357
C30   C     C_R   0.751119 0.045727 0.305957 -0.159015
C31   C     C_R   0.251064 0.454272 0.306003 -0.159104
C32   C     C_R   0.250064 0.546490 0.304885 -0.149307
H13   H     H_    0.759496 0.910540 0.329156 0.095289
H14   H     H_    0.764573 0.088493 0.332323 0.097458
H15   H     H_    0.264565 0.411505 0.332379 0.097481
H16   H     H_    0.259310 0.589449 0.329178 0.095307
N21   N     N_R   0.681610 0.971120 0.207570 -0.038047
N22   N     N_R   0.681610 0.028880 0.207570 -0.037092
N23   N     N_R   0.181610 0.471120 0.207570 -0.037123
N24   N     N_R   0.181610 0.528880 0.207570 -0.038084
C33   C     C_R   0.689281 0.123543 0.091180 -0.115913
C34   C     C_R   0.689163 0.876248 0.091239 -0.116570
C35   C     C_R   0.189152 0.623759 0.091248 -0.116599
C36   C     C_R   0.189280 0.376441 0.091205 -0.115912
H17   H     H_    0.746361 0.128132 0.175746 0.095885
H18   H     H_    0.746163 0.871553 0.175793 0.095735
H19   H     H_    0.246145 0.628446 0.175808 0.095735
H20   H     H_    0.246352 0.371866 0.175780 0.095874
N25   N     N_R   0.605410 0.102620 0.056870 -0.046745
N26   N     N_R   0.605410 0.897380 0.056870 -0.047312
N27   N     N_R   0.105410 0.602620 0.056870 -0.047300
N28   N     N_R   0.105410 0.397380 0.056870 -0.046706
C37   C     C_R   0.599434 0.875509 0.908623 -0.112035
C38   C     C_R   0.599448 0.124326 0.908559 -0.112144
C39   C     C_R   0.099465 0.375648 0.908587 -0.111726
C40   C     C_R   0.099428 0.624503 0.908629 -0.111949
H21   H     H_    0.573555 0.870707 0.823765 0.153669
H22   H     H_    0.573521 0.129119 0.823698 0.154029
H23   H     H_    0.073560 0.370839 0.823737 0.154179
H24   H     H_    0.073553 0.629311 0.823773 0.153668
N29   N     N_R   0.549680 0.896430 0.944180 -0.040382
N30   N     N_R   0.549680 0.103570 0.944180 -0.039566
N31   N     N_R   0.049680 0.396430 0.944180 -0.039380
N32   N     N_R   0.049680 0.603570 0.944180 -0.040342
Ni1   Ni    Ni4+2 0.433410 0.064680 0.868830 0.291651
Ni2   Ni    Ni4+2 0.433410 0.935320 0.868830 0.290648
Ni3   Ni    Ni4+2 0.933410 0.564680 0.868830 0.290748
Ni4   Ni    Ni4+2 0.933410 0.435320 0.868830 0.291790
Ni5   Ni    Ni4+2 0.565650 0.934380 0.131170 0.201194
Ni6   Ni    Ni4+2 0.565650 0.065620 0.131170 0.202380
Ni7   Ni    Ni4+2 0.065650 0.434380 0.131170 0.202437
Ni8   Ni    Ni4+2 0.065650 0.565620 0.131170 0.201143
C41   C     C_R   0.428100 0.999981 0.628184 -0.325016
C42   C     C_R   0.928156 0.500030 0.628203 -0.325312
C43   C     C_R   0.794777 0.999297 0.368763 0.023469
C44   C     C_R   0.294691 0.500697 0.368813 0.023529
C45   C     C_R   0.688546 0.136671 0.999504 0.014366
C46   C     C_R   0.688481 0.863037 0.999661 0.015658
C47   C     C_R   0.188467 0.636982 0.999674 0.015642
C48   C     C_R   0.188562 0.363293 0.999551 0.014200
C49   C     C_3   0.021749 0.941753 0.612828 -0.299107
C50   C     C_3   0.013350 0.042148 0.644610 -0.355446
C51   C     C_3   0.513515 0.458108 0.644718 -0.356542
C52   C     C_3   0.521938 0.558343 0.612091 -0.299870
H25   H     H_    0.045378 0.910588 0.578484 0.219711
H26   H     H_    0.043412 0.083678 0.662497 0.229137
H27   H     H_    0.543780 0.416617 0.663508 0.228964
H28   H     H_    0.545509 0.589349 0.577423 0.219515
H29   H     H_    0.037654 0.928001 0.693225 0.195313
H30   H     H_    0.013336 0.029095 0.716609 0.161797
H31   H     H_    0.513421 0.471551 0.716453 0.161421
H32   H     H_    0.538007 0.572265 0.692463 0.195602
C53   C     C_3   0.915792 0.944375 0.530264 -0.480200
C54   C     C_3   0.911895 0.047233 0.543384 -0.435806
C55   C     C_3   0.412046 0.452865 0.543546 -0.434838
C56   C     C_3   0.415957 0.555724 0.529854 -0.480248
H33   H     H_    0.879598 0.942916 0.572914 0.178703
H34   H     H_    0.862290 0.046526 0.568635 0.165084
H35   H     H_    0.362466 0.453616 0.568834 0.164790
H36   H     H_    0.379969 0.557336 0.572731 0.178712
H37   H     H_    0.894813 0.906734 0.478542 0.164270
H38   H     H_    0.903680 0.087750 0.502986 0.171892
H39   H     H_    0.403945 0.412291 0.503379 0.172227
H40   H     H_    0.394922 0.593299 0.477948 0.164339
H41   H     H_    0.099534 0.983324 0.500179 0.183558
H42   H     H_    0.077205 0.054714 0.511784 0.210380
H43   H     H_    0.576690 0.444926 0.511350 0.210609
H44   H     H_    0.599358 0.516184 0.499345 0.183266
H45   H     H_    0.945506 0.967171 0.370962 0.172545
H46   H     H_    0.931707 0.041131 0.363795 0.165648
H47   H     H_    0.431292 0.458666 0.363423 0.165656
H48   H     H_    0.445296 0.532605 0.370475 0.172704
C57   C     C_3   0.055542 0.011555 0.513006 -0.370688
C58   C     C_3   0.555325 0.488171 0.512464 -0.369434
C59   C     C_3   0.068222 0.998904 0.622940 0.360313
C60   C     C_3   0.568275 0.501112 0.622444 0.360913
C61   C     C_3   0.891324 0.998857 0.464140 0.399174
C62   C     C_3   0.391310 0.501139 0.464002 0.399189
C63   C     C_3   0.953258 0.004691 0.419267 -0.419295
C64   C     C_3   0.453024 0.495126 0.418868 -0.420238
C65   C     C_R   0.296948 0.729597 0.901445 -0.126755
C66   C     C_R   0.295930 0.270231 0.900761 -0.131217
C67   C     C_R   0.795612 0.229872 0.900644 -0.131890
C68   C     C_R   0.796938 0.770418 0.901406 -0.126940
H49   H     H_    0.275483 0.747116 0.823533 0.143904
H50   H     H_    0.274184 0.252608 0.822827 0.145198
H51   H     H_    0.773753 0.247543 0.822713 0.145333
H52   H     H_    0.775459 0.752894 0.823494 0.143992
C69   C     C_R   0.745905 0.184783 0.900360 -0.160622
C70   C     C_R   0.746525 0.815168 0.900949 -0.160314
C71   C     C_R   0.246516 0.684862 0.900981 -0.160303
C72   C     C_R   0.246094 0.315262 0.900472 -0.160563
H53   H     H_    0.688245 0.169369 0.822374 0.122587
H54   H     H_    0.688805 0.830504 0.822905 0.122133
H55   H     H_    0.188800 0.669533 0.822935 0.122116
H56   H     H_    0.188454 0.330697 0.822480 0.122564
C73   C     C_R   0.762846 0.165595 0.999188 0.133919
C74   C     C_R   0.762998 0.834154 0.999652 0.133960
C75   C     C_R   0.262976 0.665876 0.999679 0.133965
C76   C     C_R   0.262912 0.334378 0.999289 0.133914
C77   C     C_R   0.843258 0.183578 0.098012 -0.158728
C78   C     C_R   0.843435 0.816254 0.098620 -0.159317
C79   C     C_R   0.343403 0.683773 0.098654 -0.159317
C80   C     C_R   0.343301 0.316375 0.098138 -0.158693
H57   H     H_    0.862435 0.167095 0.175823 0.113483
H58   H     H_    0.862254 0.832571 0.176399 0.113085
H59   H     H_    0.362208 0.667460 0.176431 0.113076
H60   H     H_    0.362378 0.332790 0.175959 0.113476
C81   C     C_R   0.393845 0.728597 0.099200 -0.150430
C82   C     C_R   0.393207 0.271296 0.098514 -0.150444
C83   C     C_R   0.893048 0.228715 0.098384 -0.150553
C84   C     C_R   0.893861 0.771416 0.099161 -0.150423
H61   H     H_    0.449161 0.745331 0.177288 0.116315
H62   H     H_    0.448507 0.254535 0.176575 0.116638
H63   H     H_    0.948381 0.245451 0.176438 0.116611
H64   H     H_    0.949182 0.754677 0.177248 0.116296
C85   C     C_R   0.364346 0.755236 0.000718 0.126501
C86   C     C_R   0.363184 0.244515 0.999974 0.126839
C87   C     C_R   0.862889 0.255560 0.999860 0.127018
C88   C     C_R   0.864332 0.744769 0.000679 0.126547
C89   C     C_R   0.383215 0.949830 0.458011 -0.121785
C90   C     C_R   0.382771 0.050054 0.457716 -0.118237
C91   C     C_R   0.882745 0.449976 0.457684 -0.117913
C92   C     C_R   0.883294 0.550199 0.458053 -0.121701
H65   H     H_    0.383449 0.910016 0.490886 0.207930
H66   H     H_    0.382513 0.089861 0.490289 0.208638
H67   H     H_    0.882429 0.410169 0.490219 0.208766
H68   H     H_    0.883586 0.590014 0.490964 0.207960
C93   C     C_R   0.386165 0.949871 0.366684 -0.218446
C94   C     C_R   0.385821 0.050020 0.366443 -0.219833
C95   C     C_R   0.885767 0.450010 0.366391 -0.220051
C96   C     C_R   0.886197 0.550159 0.366697 -0.218555
H69   H     H_    0.388872 0.910349 0.334176 0.125518
H70   H     H_    0.388256 0.089539 0.333722 0.125748
H71   H     H_    0.888150 0.410492 0.333627 0.125754
H72   H     H_    0.888923 0.589682 0.334206 0.125509
C97   C     C_R   0.399038 0.999958 0.329162 0.161660
C98   C     C_R   0.899018 0.500068 0.329135 0.161644
C99   C     C_R   0.392221 0.999954 0.511465 0.204404
C100  C     C_R   0.892271 0.500070 0.511482 0.204467
N33   N     N_R   0.205505 0.897283 0.705687 0.201379
O1    O     O_R   0.169912 0.865127 0.743952 -0.470873
O2    O     O_R   0.228272 0.876587 0.642681 -0.386462
N34   N     N_R   0.202363 0.100384 0.691214 0.207122
O3    O     O_R   0.230975 0.116776 0.631129 -0.374897
O4    O     O_R   0.170419 0.137171 0.726533 -0.471757
N35   N     N_R   0.702629 0.399770 0.689917 0.207485
O5    O     O_R   0.669740 0.362773 0.723675 -0.471966
O6    O     O_R   0.732015 0.383736 0.630436 -0.373448
N36   N     N_R   0.705631 0.602716 0.705043 0.201455
O7    O     O_R   0.728802 0.623279 0.642328 -0.385577
O8    O     O_R   0.669960 0.635019 0.743013 -0.471202
F1    F     F_    0.417947 0.098207 0.661168 -0.695414
F2    F     F_    0.417073 0.901870 0.661009 -0.698094
F3    F     F_    0.917101 0.598141 0.661026 -0.697815
F4    F     F_    0.918188 0.401779 0.661223 -0.695008

loop_
_geom_bond_atom_site_label_1
_geom_bond_atom_site_label_2
_geom_bond_distance
_ccdc_geom_bond_type
C40   N32   1.335816 A    
H43   C58   1.109461 S    
C39   H23   1.077575 S    
N19   Ni3   1.840718 S    
N13   N14   1.392819 A    
C6    H6    1.080104 S    
N11   N12   1.348449 A    
N18   Ni2   1.840777 S    
C3    N3    1.337081 A    
C4    H4    1.076872 S    
C1    C17   1.380412 A    
C36   N28   1.335086 A    
N17   N18   1.346520 A    
C51   C55   1.540187 S    
C65   C85   1.403736 A    
N33   O1    1.302395 A    
C67   C69   1.384403 A    
C7    H7    1.080105 S    
C76   C80   1.402923 A    
N4    N7    1.413015 A    
C65   C71   1.384604 A    
N12   Ni7   1.852115 S    
C1    H1    1.077036 S    
C32   H16   1.078645 S    
C15   N35   1.432125 S    
C8    H8    1.080159 S    
C55   H39   1.112458 S    
C50   C59   1.560278 S    
C66   C72   1.384548 A    
C3    H3    1.076623 S    
C81   H61   1.080731 S    
C55   C62   1.548432 S    
C26   N18   1.334611 A    
C5    C18   1.378050 A    
C13   C23   1.406060 A    
N16   Ni3   1.860942 S    
C52   H28   1.107254 S    
N1    N6    1.413018 A    
C89   C99   1.405093 A    
C91   C95   1.384102 A    
C54   H34   1.112853 S    
H42   C57   1.109708 S    
C53   H37   1.108939 S    
C90   C94   1.384078 A    
N32   Ni3   1.905800 S    
N3    N8    1.413018 A    
C50   C54   1.539982 S    
C89   C93   1.383855 A    
C30   N22   1.325983 A    
N3    Ni3   1.840979 S    
C82   H62   1.080609 S    
C90   H66   1.075750 S    
C27   F3    1.354141 S    
C19   C88   1.464369 S    
N2    Ni2   1.841042 S    
C42   C100  1.472674 S    
C26   F2    1.354147 S    
C20   C87   1.464084 S    
C38   N30   1.335301 A    
C25   F1    1.354002 S    
C90   C99   1.405175 A    
C70   H54   1.080672 S    
C40   C47   1.391439 A    
C37   N29   1.335800 A    
C10   N10   1.334898 A    
C73   C77   1.402835 A    
C96   H72   1.080897 S    
C39   N31   1.335415 A    
C83   C87   1.402012 A    
C36   H20   1.077698 S    
C84   C88   1.401728 A    
C95   C98   1.399216 A    
C66   H50   1.080370 S    
C77   H57   1.080535 S    
C92   C96   1.383814 A    
C71   C75   1.401005 A    
C78   H58   1.080524 S    
C58   C60   1.547774 S    
C11   C22   1.386634 A    
C92   H68   1.075754 S    
C79   C81   1.385969 A    
N5    Ni5   1.875731 S    
C7    N7    1.335245 A    
C15   C24   1.412423 A    
C66   C86   1.403345 A    
C68   C70   1.384601 A    
N19   N20   1.346520 A    
C8    N8    1.335674 A    
N26   N29   1.379742 A    
C49   C59   1.559251 S    
C84   H64   1.080729 S    
C61   C63   1.553541 S    
C2    H2    1.076633 S    
C81   C85   1.401713 A    
C7    C20   1.379889 A    
C34   N26   1.334983 A    
C56   H36   1.113354 S    
C8    C19   1.378067 A    
C33   N25   1.335139 A    
C57   C59   1.547806 S    
C45   C73   1.463927 S    
C32   C44   1.373796 A    
C6    C17   1.379671 A    
C91   H67   1.075750 S    
N25   Ni6   1.827008 S    
N33   O2    1.300887 A    
N2    N5    1.413015 A    
C9    H9    1.078179 S    
C93   C97   1.399224 A    
N7    Ni7   1.875731 S    
N10   Ni5   1.852115 S    
C51   H31   1.113045 S    
N27   Ni8   1.827008 S    
C28   F4    1.353963 S    
C27   C42   1.386288 A    
C67   H51   1.080261 S    
N9    Ni6   1.852176 S    
C40   H24   1.077784 S    
C12   H12   1.078186 S    
C38   C45   1.390809 A    
C1    N1    1.335466 A    
N15   Ni4   1.860775 S    
N11   Ni8   1.852176 S    
C38   H22   1.077590 S    
N14   Ni1   1.860942 S    
C78   C84   1.385965 A    
N35   O5    1.300499 A    
C52   C60   1.559047 S    
C30   H14   1.080663 S    
N31   Ni4   1.905621 S    
C15   N15   1.332334 A    
C14   C23   1.412382 A    
N24   Ni8   1.876676 S    
N30   Ni1   1.905800 S    
C11   N11   1.334878 A    
C16   C24   1.405973 A    
C11   H11   1.078092 S    
C51   C60   1.560063 S    
C2    C18   1.378837 A    
C28   N20   1.334808 A    
C51   H27   1.089811 S    
C16   N36   1.427126 S    
N8    Ni8   1.875556 S    
N28   N31   1.379742 A    
C50   H30   1.113337 S    
H46   C63   1.114253 S    
C71   H55   1.080673 S    
N15   N16   1.392819 A    
C31   H15   1.080690 S    
C95   H71   1.080960 S    
C83   H63   1.080543 S    
N35   O6    1.300623 A    
H41   C57   1.114091 S    
C80   H60   1.080603 S    
C70   C74   1.401017 A    
C23   C59   1.492570 S    
C36   C48   1.388987 A    
C12   N12   1.335133 A    
N17   Ni1   1.840718 S    
N9    N10   1.348449 A    
C5    N5    1.335701 A    
C50   H26   1.089835 S    
N34   O3    1.301003 A    
N36   O8    1.302343 A    
C28   C42   1.386384 A    
C57   C63   1.520128 S    
C53   C61   1.548568 S    
C44   C62   1.456080 S    
C68   C88   1.403720 A    
C72   H56   1.080626 S    
C56   C62   1.548587 S    
H47   C64   1.114242 S    
C31   N23   1.326050 A    
C10   H10   1.078091 S    
C37   H21   1.077787 S    
C53   H33   1.113400 S    
C34   H18   1.077469 S    
C6    N6    1.335259 A    
C62   C64   1.553530 S    
C10   C21   1.386653 A    
C4    N4    1.335222 A    
C52   C56   1.524745 S    
C94   C97   1.399225 A    
H44   C58   1.113945 S    
C22   C98   1.460679 S    
C2    N2    1.337122 A    
C27   N19   1.334573 A    
H45   C63   1.114169 S    
C4    C20   1.380521 A    
C49   H25   1.107185 S    
C29   N21   1.317430 A    
N23   Ni7   1.876847 S    
C37   C46   1.391383 A    
N1    Ni1   1.840979 S    
C52   H32   1.112116 S    
C26   C41   1.386296 A    
C35   C47   1.388550 A    
C13   N33   1.427042 S    
C14   N34   1.432301 S    
N20   Ni4   1.840777 S    
C25   N17   1.334793 A    
C34   C46   1.388563 A    
C79   H59   1.080518 S    
N22   Ni6   1.876676 S    
C33   C45   1.389033 A    
C65   H49   1.080328 S    
C39   C48   1.390892 A    
C68   H52   1.080332 S    
N21   Ni5   1.876847 S    
C49   H29   1.112209 S    
C82   C86   1.402054 A    
C67   C87   1.403267 A    
N6    Ni6   1.875556 S    
C93   H69   1.080902 S    
C5    H5    1.080162 S    
C91   C100  1.405189 A    
C12   C22   1.386819 A    
C55   H35   1.112878 S    
C56   H40   1.108893 S    
C41   C99   1.472669 S    
C69   C73   1.401200 A    
N23   N24   1.392819 A    
H48   C64   1.114177 S    
N25   N30   1.379739 A    
C35   N27   1.334945 A    
C30   C43   1.377224 A    
C48   C76   1.464071 S    
C75   C79   1.403374 A    
C58   C64   1.519992 S    
C89   H65   1.075759 S    
N27   N32   1.379739 A    
N29   Ni2   1.905621 S    
C3    C19   1.378883 A    
C54   C61   1.548102 S    
N26   Ni5   1.826948 S    
C47   C75   1.464401 S    
C32   N24   1.317254 A    
C29   H13   1.078648 S    
C13   N13   1.323744 A    
N21   N22   1.392819 A    
C29   C43   1.373813 A    
C9    C21   1.386800 A    
N4    Ni4   1.841042 S    
C96   C98   1.399217 A    
C72   C76   1.401304 A    
C80   C82   1.385757 A    
C92   C100  1.405096 A    
C14   N14   1.332777 A    
C25   C41   1.386365 A    
C17   C86   1.464141 S    
C16   N16   1.323306 A    
C43   C61   1.456237 S    
C49   C53   1.525018 S    
C54   H38   1.112464 S    
C24   C60   1.491893 S    
C94   H70   1.080955 S    
C21   C97   1.460702 S    
C74   C78   1.403354 A    
N28   Ni7   1.826948 S    
C33   H17   1.077705 S    
N13   Ni2   1.860775 S    
C77   C83   1.385739 A    
C18   C85   1.464387 S    
C31   C44   1.377182 A    
C35   H19   1.077492 S    
N36   O7    1.300800 A    
C46   C74   1.464380 S    
C69   H53   1.080576 S    
N34   O4    1.301067 A    
C9    N9    1.335113 A    
