data_mof_unit_26665.cif
_audit_creation_date              2013-03-05T16:14:03-0500
_audit_creation_method            fapswitch 2.2
_symmetry_space_group_name_H-M    P1
_symmetry_Int_Tables_number       1
_space_group_crystal_system       triclinic
_cell_length_a                    8.286804
_cell_length_b                    17.372813
_cell_length_c                    22.855357
_cell_angle_alpha                 99.726005
_cell_angle_beta                  89.658502
_cell_angle_gamma                 98.215583
_cell_volume                      3209.24086758

loop_
_atom_site_label
_atom_site_type_symbol
_atom_site_description
_atom_site_fract_x
_atom_site_fract_y
_atom_site_fract_z
_atom_type_partial_charge
P1    P     P_3+3 0.055640 0.433080 0.366120 0.517682
O1    O     O_2   0.889310 0.456460 0.358460 -0.333372
O2    O     O_3   0.129890 0.457280 0.429550 -0.404596
O3    O     O_3   0.674650 0.600620 0.400940 -0.365033
O4    O     O_2   0.791660 0.547259 0.296185 -0.350793
O5    O     O_3   0.025031 0.330226 0.345516 -0.541265
O6    O     O_3   0.720937 0.689492 0.308671 -0.551329
H1    H     H_    0.550248 0.729792 0.369934 0.084389
C1    C     C_3   0.669646 0.822684 0.326359 -0.355056
H2    H     H_    0.760419 0.841325 0.363514 0.221362
H3    H     H_    0.733411 0.829014 0.284128 0.215935
P2    P     P_3+3 0.671420 0.681950 0.554390 0.477411
P3    P     P_3+3 0.136731 0.743344 0.441505 0.454894
O7    O     O_2   0.849130 0.693580 0.537840 -0.371733
O8    O     O_3   0.093680 0.641380 0.431770 -0.397977
O9    O     O_2   0.976097 0.775957 0.459571 -0.383988
O10   O     O_3   0.673720 0.706595 0.631834 -0.559592
O11   O     O_3   0.180638 0.770966 0.372155 -0.552755
C2    C     C_3   0.126671 0.706829 0.327160 0.450749
H4    H     H_    0.004673 0.676604 0.336476 0.186976
H5    H     H_    0.215029 0.663905 0.322487 0.034534
C3    C     C_3   0.112840 0.736234 0.268710 -0.870107
H6    H     H_    0.033337 0.783179 0.273795 0.253523
H7    H     H_    0.235120 0.760175 0.254299 0.253046
C4    C     C_3   0.247128 0.706941 0.615583 0.410571
H8    H     H_    0.355267 0.678759 0.600839 0.110696
H9    H     H_    0.164127 0.705217 0.577388 0.096094
C5    C     C_3   0.304313 0.792234 0.644048 -0.926601
H10   H     H_    0.376578 0.793855 0.685131 0.279340
H11   H     H_    0.382730 0.823531 0.613546 0.218947
H12   H     H_    0.197423 0.823450 0.655473 0.262195
Ba1   Ba    Ba6+2 0.857050 0.537370 0.474190 1.562981
C6    C     C_3   0.969507 0.293839 0.393210 0.375082
H13   H     H_    0.843538 0.305053 0.402628 0.093327
H14   H     H_    0.048070 0.316085 0.433361 0.099443
C7    C     C_3   0.974450 0.205082 0.376318 -0.422075
H15   H     H_    0.951014 0.176230 0.415805 0.173891
H16   H     H_    0.098277 0.195283 0.360540 0.219745
C8    C     C_3   0.725919 0.646371 0.657075 0.407868
H17   H     H_    0.838314 0.628598 0.635950 0.110475
H18   H     H_    0.628312 0.594696 0.652373 0.107134
C9    C     C_3   0.762742 0.677534 0.722684 -0.918539
H19   H     H_    0.854230 0.731699 0.727801 0.280556
H20   H     H_    0.812997 0.633266 0.744064 0.223492
H21   H     H_    0.649436 0.691797 0.745576 0.257790
P4    P     P_3+3 0.134070 0.566990 0.633890 0.476222
O12   O     O_2   0.300380 0.543560 0.641570 -0.365891
O13   O     O_3   0.059830 0.542790 0.570460 -0.395049
O14   O     O_3   0.515070 0.399440 0.599070 -0.381239
O15   O     O_3   0.162277 0.669046 0.657812 -0.555963
P5    P     P_3+3 0.063467 0.256593 0.565867 0.475512
O16   O     O_3   0.612780 0.404640 0.465950 -0.381581
O17   O     O_3   0.096040 0.358680 0.568240 -0.421348
O18   O     O_2   0.208202 0.221349 0.533930 -0.355661
O19   O     O_3   0.069791 0.235054 0.638055 -0.520782
Ba2   Ba    Ba6+2 0.332790 0.462700 0.525820 1.542448
P6    P     P_3+3 0.658288 0.594696 0.324064 0.457040
C10   C     C_3   0.597721 0.736277 0.325046 0.330145
H22   H     H_    0.496456 0.719415 0.291612 0.088028
O20   O     O_3   0.576930 0.595420 0.534060 -0.399139
C11   C     C_3   0.457260 0.342165 0.342753 0.379602
H23   H     H_    0.343046 0.355642 0.365020 0.085579
H24   H     H_    0.547439 0.396972 0.348630 0.107173
C12   C     C_3   0.415564 0.313812 0.276831 -0.492830
H25   H     H_    0.342894 0.253961 0.270578 0.236638
H26   H     H_    0.339982 0.353995 0.260776 0.200227
P7    P     P_3+3 0.524118 0.305698 0.443585 0.434363
O21   O     O_2   0.340570 0.306450 0.462190 -0.376659
O22   O     O_3   0.520493 0.282557 0.366005 -0.588274
H27   H     H_    0.058010 0.686697 0.234196 0.263947
C13   C     C_3   0.115432 0.305521 0.677775 0.410969
H28   H     H_    0.232501 0.334069 0.664480 0.186533
H29   H     H_    0.026291 0.347056 0.677669 0.069939
C14   C     C_3   0.129022 0.288963 0.740733 -0.822151
H30   H     H_    0.165589 0.345405 0.771479 0.241307
H31   H     H_    0.010459 0.259758 0.754436 0.272261
H32   H     H_    0.221639 0.249994 0.744258 0.261182
P8    P     P_3+3 0.539972 0.412978 0.676799 0.419035
C15   C     C_3   0.539836 0.259800 0.659514 0.658795
O23   O     O_2   0.398137 0.455581 0.703202 -0.420761
O24   O     O_3   0.495867 0.321895 0.701905 -0.539493
H33   H     H_    0.504040 0.264053 0.613487 0.122033
H34   H     H_    0.495461 0.130776 0.642482 0.242033
C16   C     C_3   0.451453 0.180823 0.672089 -0.871214
H35   H     H_    0.319230 0.175904 0.662847 0.274048
H36   H     H_    0.471467 0.174909 0.719056 0.262355
H37   H     H_    0.059017 0.300862 0.031291 0.171975
H38   H     H_    0.969891 0.297514 0.929700 0.171510
C17   C     C_R   0.340711 0.519985 0.332566 -0.547647
C18   C     C_R   0.100254 0.566489 0.943668 -0.058583
C19   C     C_R   0.053848 0.563200 0.883578 0.527883
O25   O     O_2   0.067025 0.623997 0.862646 -0.580872
N1    N     N_R   0.990934 0.492015 0.848676 -0.165671
C20   C     C_R   0.972993 0.423139 0.872773 0.514257
O26   O     O_2   0.911896 0.360958 0.842769 -0.604105
C21   C     C_R   0.024796 0.423992 0.931897 -0.047923
C22   C     C_R   0.086690 0.496302 0.967727 -0.012219
C23   C     C_R   0.159129 0.638451 0.980438 -0.112921
C24   C     C_R   0.202088 0.640792 0.039913 -0.116479
C25   C     C_R   0.190032 0.571120 0.064477 -0.052765
C26   C     C_R   0.134085 0.498503 0.027995 -0.013288
C27   C     C_R   0.015872 0.354164 0.956127 -0.112139
C28   C     C_R   0.067387 0.356079 0.014664 -0.100347
C29   C     C_R   0.125860 0.428080 0.051480 -0.075145
C30   C     C_R   0.175506 0.431271 0.111229 0.621121
N2    N     N_R   0.220647 0.503276 0.148164 -0.153581
C31   C     C_R   0.231220 0.572631 0.124780 0.550366
C32   C     C_2   0.782208 0.466669 0.769356 -0.171539
C33   C     C_3   0.730250 0.476570 0.707809 0.193543
C34   C     C_1   0.012210 0.514239 0.686014 0.312952
C35   C     C_2   0.060062 0.517231 0.742219 -0.221864
C36   C     C_2   0.940157 0.490252 0.787199 0.119030
C37   C     C_R   0.415333 0.542541 0.233684 -0.242860
C38   C     C_R   0.455345 0.548760 0.293884 0.201607
C39   C     C_R   0.187272 0.481278 0.312028 0.143404
C40   C     C_R   0.145044 0.474222 0.250633 0.252904
C41   C     C_R   0.259618 0.506758 0.211115 0.017129
O27   O     O_2   0.178975 0.369898 0.130272 -0.563249
O28   O     O_2   0.275864 0.635970 0.156558 -0.614486
C42   C     C_2   0.870057 0.475237 0.665744 -0.504320
H39   H     H_    0.245166 0.697609 0.066654 0.168939
H40   H     H_    0.505580 0.565567 0.204215 0.185269
H41   H     H_    0.170874 0.693512 0.963465 0.171676
H42   H     H_    0.185030 0.540151 0.756206 0.183675
H43   H     H_    0.690817 0.449304 0.800689 0.163824
H44   H     H_    0.374128 0.524969 0.378894 0.191087
H45   H     H_    0.854120 0.443953 0.620364 0.177791
C43   C     C_2   0.430389 0.723552 0.491454 -0.482618
C44   C     C_3   0.304567 0.779689 0.496784 0.203057
C45   C     C_2   0.383240 0.861577 0.491165 -0.231432
C46   C     C_2   0.545944 0.882565 0.500485 0.066411
C47   C     C_2   0.645607 0.822614 0.515111 -0.213426
C48   C     C_1   0.575847 0.749317 0.516278 0.320711
C49   C     C_R   0.798783 0.134653 0.528201 0.224512
C50   C     C_R   0.866000 0.214052 0.529465 0.142498
C51   C     C_R   0.622794 0.238151 0.480886 0.305548
C52   C     C_R   0.555174 0.159359 0.478620 -0.274713
C53   C     C_R   0.640258 0.107431 0.503141 -0.048645
C54   C     C_2   0.629239 0.962183 0.494664 -0.090079
C55   C     C_2   0.554786 0.027025 0.504699 -0.118499
C56   C     C_R   0.774339 0.265553 0.508461 -0.561342
H46   H     H_    0.426098 0.022252 0.514851 0.160359
H47   H     H_    0.772989 0.840823 0.527853 0.181762
H48   H     H_    0.757377 0.967399 0.483590 0.166678
H49   H     H_    0.306330 0.902447 0.479552 0.157130
H50   H     H_    0.436166 0.138482 0.457870 0.173279
H51   H     H_    0.399653 0.662537 0.469907 0.174672
H52   H     H_    0.823893 0.327234 0.511650 0.181542
C57   C     C_3   0.848202 0.165951 0.328068 -0.796297
H53   H     H_    0.869681 0.192711 0.287374 0.288643
H54   H     H_    0.857526 0.102043 0.316757 0.239176
H55   H     H_    0.723313 0.172422 0.344057 0.259262
C58   C     C_3   0.538695 0.876783 0.334296 -0.932313
H56   H     H_    0.455007 0.863571 0.295036 0.273286
H57   H     H_    0.467517 0.869150 0.374573 0.290267
H58   H     H_    0.597031 0.939226 0.339053 0.264040
C59   C     C_3   0.568273 0.311973 0.239522 -0.627900
H59   H     H_    0.533316 0.289366 0.192266 0.243793
H60   H     H_    0.635717 0.372611 0.242971 0.277864
H61   H     H_    0.648127 0.272825 0.254756 0.268615
C60   C     C_3   0.722099 0.260136 0.663962 -0.878661
H62   H     H_    0.782039 0.305547 0.639351 0.193328
H63   H     H_    0.763073 0.274272 0.711177 0.273211
H64   H     H_    0.756713 0.202266 0.644321 0.266063
N3    N     N_R   0.989733 0.432850 0.228179 0.262388
O29   O     O_R   0.902407 0.463403 0.193469 -0.406466
O30   O     O_R   0.949914 0.359164 0.233238 -0.371226
N4    N     N_R   0.884048 0.084981 0.557296 0.243841
O31   O     O_R   0.026359 0.068960 0.538971 -0.389453
O32   O     O_R   0.818838 0.054885 0.601814 -0.391502

loop_
_geom_bond_atom_site_label_1
_geom_bond_atom_site_label_2
_geom_bond_distance
_ccdc_geom_bond_type
C17   C39   1.394767 A    
N3    O29   1.301398 A    
C21   C27   1.408773 A    
C37   C41   1.409946 A    
C2    H4    1.107531 S    
C43   C44   1.517258 S    
C15   H33   1.111901 S    
C60   H62   1.104585 S    
C42   H45   1.085909 S    
O8    Ba1   2.758042 S    
C8    H18   1.110247 S    
O14   P8    1.761602 S    
C4    C5    1.523412 S    
P7    O22   1.750095 S    
C59   H59   1.110223 S    
C14   H31   1.108328 S    
P3    O11   1.753622 S    
H34   C16   1.111646 S    
C5    H10   1.110876 S    
C2    H5    1.109870 S    
C55   H46   1.084544 S    
O11   C2    1.405347 S    
C57   H54   1.110323 S    
C15   C16   1.531349 S    
P8    O23   1.543599 D    
C7    C57   1.526427 S    
N2    C31   1.389938 Am   
C39   C40   1.428977 A    
C6    C7    1.531369 S    
C32   C33   1.517847 S    
O1    Ba1   2.808258 S    
P1    O1    1.510751 D    
O10   C8    1.396728 S    
C11   H24   1.112513 S    
C4    O15   1.390538 S    
Ba1   O16   2.823809 S    
C28   C29   1.408366 A    
C56   H52   1.081855 S    
H1    C10   1.114250 S    
C34   C35   1.337057 D    
P5    C50   1.838192 S    
C37   H40   1.082802 S    
C35   C36   1.510432 S    
C47   C48   1.325623 D    
C14   H32   1.105238 S    
O3    P6    1.747548 S    
C32   H43   1.085651 S    
C58   H57   1.106940 S    
C1    H2    1.112168 S    
C18   C22   1.410131 A    
P5    O19   1.755029 S    
C11   H23   1.107684 S    
C24   H39   1.083218 S    
C4    H8    1.105606 S    
C47   H47   1.084556 S    
N4    O32   1.301194 A    
C1    C58   1.524917 S    
C59   H60   1.110195 S    
P2    Ba1   3.398558 S    
C45   H49   1.084349 S    
Ba1   O13   2.757302 S    
N3    O30   1.299944 A    
C27   C28   1.400336 A    
C9    H20   1.106608 S    
C15   C60   1.513518 S    
C31   O28   1.221480 D    
C29   C30   1.418352 A    
C60   H63   1.109532 S    
C8    C9    1.522730 S    
C17   H44   1.082118 S    
C23   H41   1.083172 S    
P4    O13   1.545217 S    
C14   H30   1.109914 S    
P7    O21   1.578160 D    
C52   H50   1.083639 S    
C2    C3    1.519169 S    
C16   H35   1.105619 S    
C57   H55   1.110013 S    
C34   C42   1.316715 D    
C8    H17   1.105626 S    
C15   O24   1.410738 S    
C10   H22   1.111602 S    
Ba2   O21   2.864036 S    
P1    Ba1   3.373924 S    
C32   C36   1.357951 D    
P5    O17   1.747026 S    
C9    H21   1.110673 S    
C12   H26   1.108393 S    
C12   C59   1.522832 S    
C11   C12   1.529342 S    
C51   C56   1.392166 A    
C19   N1    1.387404 Am   
O2    Ba2   2.757907 S    
C24   C25   1.408769 A    
C22   C26   1.427376 A    
C21   C22   1.408927 A    
C6    H13   1.102385 S    
C20   O26   1.221113 D    
N1    C20   1.388542 Am   
P4    O12   1.511033 D    
C18   C23   1.408124 A    
C58   H58   1.110505 S    
C20   C21   1.417333 A    
C1    H3    1.111795 S    
O3    Ba1   2.724204 S    
O16   P7    1.761365 S    
C53   C55   1.479176 S    
H37   C28   1.083175 S    
N4    O31   1.300834 A    
O12   Ba2   2.808544 S    
P2    O7    1.512195 D    
C26   C29   1.409681 A    
P2    C48   1.836663 S    
P3    O8    1.732565 S    
N2    C41   1.465792 S    
C3    H7    1.109109 S    
C40   N3    1.433620 S    
C9    H19   1.110815 S    
Ba1   O20   2.905650 S    
C46   C47   1.498442 S    
C19   O25   1.222102 D    
C60   H64   1.105870 S    
C3    H27   1.110158 S    
C13   H29   1.104217 S    
C37   C38   1.399876 A    
C30   N2    1.389471 Am   
O17   Ba2   2.758758 S    
C11   O22   1.404897 S    
O13   Ba2   2.913026 S    
C17   C38   1.391960 A    
C1    C10   1.529325 S    
C25   C31   1.416884 A    
O6    C10   1.404671 S    
C35   H42   1.084555 S    
C5    H12   1.110653 S    
O7    Ba1   2.863778 S    
C51   C52   1.395554 A    
C49   C53   1.420321 A    
C13   C14   1.522161 S    
H38   C27   1.083207 S    
C54   C55   1.346067 D    
C43   H51   1.085799 S    
C49   C50   1.407459 A    
C59   H61   1.110436 S    
C4    H9    1.108366 S    
O14   Ba2   2.723697 S    
C52   C53   1.407963 A    
P4    O15   1.747192 S    
O5    C6    1.394020 S    
O4    P6    1.543107 D    
P5    O18   1.547479 D    
C12   H25   1.111782 S    
P4    C34   1.835448 S    
C45   C46   1.353853 D    
C44   C45   1.503667 S    
C13   H28   1.090572 S    
C43   C48   1.320357 D    
P2    O10   1.748891 S    
P8    O24   1.762294 S    
C18   C19   1.418040 A    
P6    C38   1.839898 S    
C7    H16   1.112082 S    
C25   C26   1.408457 A    
C6    H14   1.109362 S    
C5    H11   1.107067 S    
C40   C41   1.430241 A    
P7    C51   1.842027 S    
P8    C33   1.860117 S    
C49   N4    1.435224 S    
O2    Ba1   2.912189 S    
C30   O27   1.221807 D    
O6    P6    1.747764 S    
C46   C54   1.481740 S    
N1    C36   1.463233 S    
P2    O20   1.587692 S    
Ba2   O20   2.823041 S    
C50   C56   1.397001 A    
C7    H15   1.107405 S    
C23   C24   1.399665 A    
P3    O9    1.547065 D    
P4    Ba2   3.374528 S    
P1    O5    1.751160 S    
P3    C44   1.851946 S    
C3    H6    1.110563 S    
C16   H36   1.111124 S    
P1    C39   1.868707 S    
P1    O2    1.545247 S    
C58   H56   1.109571 S    
C57   H53   1.110541 S    
Ba1   Ba2   4.544419 S    
O19   C13   1.400768 S    
O16   Ba2   2.904806 S    
C33   C42   1.501320 S    
C54   H48   1.084826 S    
