data_mof_unit_17482.cif
_audit_creation_date              2012-10-26T20:37:58-0400
_audit_creation_method            fapswitch 2.2
_symmetry_space_group_name_H-M    P1
_symmetry_Int_Tables_number       1
_space_group_crystal_system       triclinic
_cell_length_a                    9.83902
_cell_length_b                    11.033295
_cell_length_c                    13.006862
_cell_angle_alpha                 89.658031
_cell_angle_beta                  75.872996
_cell_angle_gamma                 110.921488
_cell_volume                      1272.22823213

loop_
_atom_site_label
_atom_site_type_symbol
_atom_type_description
_atom_site_fract_x
_atom_site_fract_y
_atom_site_fract_z
_atom_type_partial_charge
C1    C     C_R   0.439691 0.253981 0.507727 0.560380
C2    C     C_R   0.703378 0.565279 0.002575 -0.012519
C3    C     C_R   0.313863 0.438976 0.887966 -0.133714
C4    C     C_R   0.686136 0.561030 0.112033 -0.133721
C5    C     C_R   0.585724 0.531402 0.854554 -0.143853
C6    C     C_R   0.414274 0.468582 0.145446 -0.143860
C7    C     C_R   0.573176 0.523932 0.963786 0.024864
C8    C     C_R   0.426820 0.476057 0.036215 0.024862
C9    C     C_2   0.405666 0.114612 0.512310 -0.134851
C10   C     C_2   0.594333 0.885388 0.487694 -0.134845
C11   C     C_2   0.517009 0.069621 0.497419 -0.169450
C12   C     C_R   0.560309 0.746019 0.492274 0.560385
C13   C     C_2   0.482990 0.930379 0.502589 -0.169460
C14   C     C_R   0.141135 0.390162 0.067937 0.027236
C15   C     C_R   0.092555 0.476781 0.131647 -0.105292
C16   C     C_R   0.945150 0.435433 0.196590 -0.109944
C17   C     C_R   0.844477 0.308261 0.197493 -0.089767
C18   C     C_R   0.891385 0.221994 0.133175 -0.118845
C19   C     C_R   0.039122 0.262744 0.068279 -0.101390
C20   C     C_R   0.858860 0.609865 0.932059 0.027234
C21   C     C_R   0.960819 0.737325 0.931670 -0.101377
C22   C     C_R   0.108542 0.778127 0.866736 -0.118837
C23   C     C_2   0.082952 0.512259 0.492043 -0.023464
C24   C     C_R   0.155489 0.691867 0.802432 -0.089772
C25   C     C_R   0.054871 0.564648 0.803389 -0.109945
C26   C     C_R   0.907480 0.523251 0.868368 -0.105295
C27   C     C_2   0.917048 0.487738 0.507954 -0.023458
C28   C     C_R   0.473273 0.494576 0.702629 0.549113
C29   C     C_R   0.526727 0.505423 0.297371 0.549106
C30   C     C_R   0.542658 0.511815 0.183160 -0.022978
C31   C     C_R   0.457341 0.488180 0.816840 -0.022970
C32   C     C_R   0.296619 0.434720 0.997426 -0.012516
Cu1   Cu    Cu3+1 0.647370 0.522180 0.481340 0.916257
Cu2   Cu    Cu3+1 0.352630 0.477820 0.518660 0.916251
H1    H     H_    0.304619 0.427828 0.202076 0.143221
H2    H     H_    0.165086 0.589398 0.432195 0.145985
H3    H     H_    0.949604 0.630005 0.398729 0.192346
H4    H     H_    0.050397 0.370002 0.601277 0.192349
H5    H     H_    0.168858 0.576090 0.130944 0.105494
H6    H     H_    0.909011 0.502426 0.245709 0.135885
H7    H     H_    0.730174 0.276787 0.247749 0.129748
H8    H     H_    0.813291 0.123593 0.133562 0.105997
H9    H     H_    0.074219 0.195122 0.018671 0.100671
H10   H     H_    0.925689 0.804946 0.981262 0.100678
H11   H     H_    0.186593 0.876564 0.866306 0.105992
H12   H     H_    0.695380 0.572146 0.797925 0.143229
H13   H     H_    0.269778 0.723384 0.752140 0.129727
H14   H     H_    0.091041 0.497663 0.754278 0.135903
H15   H     H_    0.831217 0.423914 0.869105 0.105493
H16   H     H_    0.785794 0.595126 0.141583 0.129039
H17   H     H_    0.214206 0.404899 0.858415 0.129031
H18   H     H_    0.365820 0.864322 0.518681 0.155240
H19   H     H_    0.634178 0.135677 0.481329 0.155251
H20   H     H_    0.711267 0.951733 0.471834 0.103700
H21   H     H_    0.288732 0.048267 0.528167 0.103696
H22   H     H_    0.834913 0.410596 0.567800 0.145984
N1    N     N_2   0.131210 0.444490 0.546730 -0.361773
N2    N     N_2   0.868790 0.555510 0.453270 -0.361768
O1    O     O_R   0.578710 0.332530 0.490040 -0.499843
O2    O     O_R   0.421290 0.667470 0.509960 -0.499847
O3    O     O_R   0.329810 0.295070 0.521560 -0.488059
O4    O     O_R   0.670190 0.704930 0.478440 -0.488057
O5    O     O_R   0.604230 0.515670 0.637800 -0.497406
O6    O     O_R   0.395770 0.484330 0.362200 -0.497404
O7    O     O_R   0.355330 0.478200 0.669330 -0.512033
O8    O     O_R   0.644670 0.521800 0.330670 -0.512034

loop_
_geom_bond_atom_site_label_1
_geom_bond_atom_site_label_2
_ccdc_geom_bond_type
Cu2   N1    S    
C2    C4    A    
C24   C25   A    
C29   C30   S    
C9    H21   S    
C23   C27   S    
C21   H10   S    
C9    C11   D    
C5    H12   S    
H3    N2    S    
C11   H19   S    
Cu1   O5    S    
Cu2   O6    S    
C17   C18   A    
C29   O6    A    
C1    C9    S    
C7    C8    A    
Cu1   O1    S    
C21   C22   A    
C20   C21   A    
C3    C31   A    
Cu2   O2    S    
C11   C13   S    
C25   H14   S    
C15   H5    S    
Cu1   N2    S    
C8    C32   A    
C20   C26   A    
C16   H6    S    
C10   C12   S    
Cu2   O7    S    
C6    C30   A    
C19   H9    S    
Cu1   O8    S    
Cu1   Cu2   S    
C22   C24   A    
C1    O1    A    
C2    C7    A    
C3    C32   A    
C10   H20   S    
C17   H7    S    
C16   C17   A    
C13   H18   S    
C2    C20   S    
C15   C16   A    
H4    N1    S    
C28   O5    A    
C22   H11   S    
C12   O4    A    
C6    H1    S    
C23   N1    D    
C23   H2    S    
Cu2   O3    S    
C26   H15   S    
C4    H16   S    
C12   O2    A    
C5    C7    A    
C3    H17   S    
C14   C15   A    
C18   C19   A    
C6    C8    A    
C18   H8    S    
C25   C26   A    
C27   H22   S    
C24   H13   S    
C28   O7    A    
C14   C19   A    
C27   N2    D    
C28   C31   S    
C4    C30   A    
C29   O8    A    
C14   C32   S    
Cu1   O4    S    
C5    C31   A    
C10   C13   D    
C1    O3    A    
