data_mof_unit_36128.cif
_audit_creation_date              2012-12-11T20:00:11-0500
_audit_creation_method            fapswitch 2.2
_symmetry_space_group_name_H-M    P1
_symmetry_Int_Tables_number       1
_space_group_crystal_system       triclinic
_cell_length_a                    8.425677
_cell_length_b                    16.175691
_cell_length_c                    27.007481
_cell_angle_alpha                 72.205842
_cell_angle_beta                  95.660352
_cell_angle_gamma                 95.51479
_cell_volume                      3479.23883533

loop_
_atom_site_label
_atom_site_type_symbol
_atom_type_description
_atom_site_fract_x
_atom_site_fract_y
_atom_site_fract_z
_atom_type_partial_charge
Ba1   Ba    Ba6+2 0.337820 0.939830 0.518500 1.651997
Ba2   Ba    Ba6+2 0.851970 0.060110 0.481480 1.680006
C1    C     C_3   0.123546 0.536482 0.689421 0.478207
C2    C     C_R   0.472087 0.410368 0.192235 0.579055
C3    C     C_2   0.302853 0.285124 0.281469 -0.132262
C4    C     C_3   0.437081 0.592708 0.602808 0.309623
C5    C     C_3   0.282400 0.245987 0.339357 -0.079410
C6    C     C_1   0.478661 0.143905 0.341012 0.026811
C7    C     C_2   0.532414 0.196700 0.296310 -0.099408
C8    C     C_2   0.434344 0.268709 0.261500 0.206071
C9    C     C_R   0.562102 0.420180 0.107065 -0.080382
C10   C     C_R   0.578604 0.329843 0.124906 -0.026882
C11   C     C_R   0.636065 0.290357 0.091258 -0.071219
C12   C     C_3   0.075240 0.620355 0.648721 0.997989
C13   C     C_R   0.510141 0.460577 0.141291 -0.021598
C14   C     C_2   0.349687 0.158218 0.360232 -0.214700
C15   C     C_2   0.899913 0.896561 0.650433 -0.220173
C16   C     C_3   0.506824 0.517678 0.646158 -0.435621
C17   C     C_R   0.712722 0.482178 0.972333 0.038650
C18   C     C_R   0.596980 0.609310 0.983561 -0.026450
C19   C     C_R   0.675286 0.570882 0.952516 -0.001386
C20   C     C_R   0.798318 0.448522 0.941096 -0.096631
C21   C     C_R   0.840992 0.498988 0.891694 -0.060433
C22   C     C_R   0.799217 0.585285 0.870709 -0.024181
C23   C     C_3   0.151753 0.063377 0.655366 0.727059
C24   C     C_R   0.715205 0.621150 0.900997 -0.080124
C25   C     C_R   0.669471 0.706892 0.879451 -0.083023
C26   C     C_R   0.710736 0.756381 0.828587 0.603901
C27   C     C_R   0.839217 0.636232 0.819949 0.592502
C28   C     C_3   0.667417 0.942400 0.329298 0.652481
C29   C     C_2   0.993461 0.790502 0.735060 -0.024287
C30   C     C_3   0.041678 0.849292 0.681765 -0.056795
C31   C     C_1   0.749747 0.876986 0.663693 0.044753
C32   C     C_2   0.710362 0.814833 0.706415 -0.130043
C33   C     C_2   0.837940 0.773968 0.747088 0.237484
C34   C     C_3   0.266713 0.036362 0.704360 -0.370018
C35   C     C_R   0.664316 0.430293 0.022500 0.022309
C36   C     C_R   0.599770 0.470477 0.055235 0.039147
C37   C     C_R   0.574771 0.560819 0.036998 0.039553
C38   C     C_R   0.678726 0.339245 0.041464 -0.102172
C39   C     C_R   0.501794 0.551180 0.124451 -0.090731
C40   C     C_3   0.651057 0.000098 0.272134 0.353158
C41   C     C_R   0.540688 0.693978 0.959556 0.404184
C42   C     C_R   0.578480 0.740921 0.908318 -0.111251
C43   C     C_R   0.535640 0.600129 0.073923 -0.059771
C44   C     C_2   0.377229 0.262368 0.491132 -0.293826
C45   C     C_3   0.621207 0.400162 0.372885 0.447912
C46   C     C_R   0.742294 0.784596 0.449970 -0.197956
C47   C     C_2   0.204286 0.336144 0.529039 -0.084600
C48   C     C_2   0.236111 0.263188 0.519118 0.074042
C49   C     C_2   0.497505 0.324392 0.487717 -0.017119
C50   C     C_3   0.481697 0.397195 0.511540 -0.111148
C51   C     C_3   0.306583 0.418537 0.509032 -0.047417
C52   C     C_3   0.574039 0.118664 0.598723 0.331561
C53   C     C_2   0.600851 0.475627 0.496211 0.418855
C54   C     C_2   0.553552 0.555922 0.469430 -0.041040
C55   C     C_R   0.818807 0.625998 0.442912 0.214536
C56   C     C_3   0.668328 0.477594 0.327007 0.292310
C57   C     C_R   0.666704 0.633871 0.457338 -0.036072
C58   C     C_R   0.937138 0.693211 0.437808 -0.200338
C59   C     C_R   0.900820 0.772092 0.442998 -0.041527
C60   C     C_R   0.630616 0.713355 0.464361 -0.013254
C61   C     C_3   0.574360 0.194901 0.620679 -0.396891
C62   C     C_3   0.144175 0.897409 0.340293 0.651675
C63   C     C_3   0.034768 0.838873 0.313948 0.208470
C64   C     C_3   0.483896 0.957374 0.208236 0.296457
C65   C     C_3   0.521434 0.026671 0.156935 -0.182705
C66   C     C_3   0.509610 0.987179 0.112018 -0.542165
C67   C     C_3   0.110246 0.395797 0.369935 0.315987
C68   C     C_3   0.119139 0.038090 0.280829 0.335742
C69   C     C_3   0.160838 0.088220 0.225416 -0.197165
C70   C     C_3   0.049713 0.161340 0.200411 -0.505067
C71   C     C_3   0.081769 0.794833 0.242496 0.286380
C72   C     C_3   0.186681 0.739341 0.224321 -0.168957
C73   C     C_3   0.143941 0.744415 0.167300 -0.502680
C74   C     C_3   0.888858 0.668632 0.579584 0.223339
C75   C     C_3   0.804330 0.740106 0.592426 -0.193546
C76   C     C_3   0.828725 0.830976 0.551468 -0.306496
C77   C     C_3   0.967089 0.125118 0.691234 0.224622
C78   C     C_3   0.182630 0.471524 0.327664 -0.418965
C79   C     C_3   0.006577 0.416874 0.750726 0.327050
C80   C     C_3   0.882262 0.367234 0.723159 -0.193626
C81   C     C_3   0.860588 0.271552 0.754621 -0.522298
C82   C     C_3   0.758105 0.622142 0.302457 0.152320
C83   C     C_3   0.465161 0.810148 0.982907 0.127618
C84   C     C_3   0.784941 0.438116 0.566106 0.178634
C85   C     C_3   0.524736 0.807307 0.332937 0.194716
C86   C     C_R   0.536708 0.280673 0.175852 0.577449
H1    H     H_    0.168021 0.642572 0.620564 -0.379882
H2    H     H_    0.237749 0.550179 0.710730 -0.051201
H3    H     H_    0.478709 0.792653 0.371931 0.054785
H4    H     H_    0.960289 0.792739 0.342831 0.036176
H5    H     H_    0.949954 0.878557 0.283832 0.013511
H6    H     H_    0.140149 0.488350 0.668621 -0.163535
H7    H     H_    0.161961 0.014100 0.635240 -0.018478
H8    H     H_    0.296285 0.090593 0.721574 0.092507
H9    H     H_    0.212766 0.979284 0.733814 0.086953
H10   H     H_    0.379885 0.017705 0.694425 0.109675
H11   H     H_    0.631148 0.536774 0.658315 0.184254
H12   H     H_    0.585970 0.342827 0.358681 -0.096424
H13   H     H_    0.683072 0.068482 0.270825 0.008566
H14   H     H_    0.517006 0.417741 0.388933 -0.099848
H15   H     H_    0.765305 0.459612 0.307872 0.051301
H16   H     H_    0.561571 0.492396 0.299001 0.034067
H17   H     H_    0.208437 0.360621 0.396231 -0.054060
H18   H     H_    0.044409 0.423017 0.394263 0.117109
H19   H     H_    0.260022 0.515604 0.345779 0.088458
H20   H     H_    0.086446 0.508761 0.301818 0.131061
H21   H     H_    0.317892 0.569508 0.588750 0.074332
H22   H     H_    0.256250 0.447025 0.304065 0.138714
H23   H     H_    0.653651 0.194098 0.287133 0.119596
H24   H     H_    0.742348 0.983762 0.250120 -0.090571
H25   H     H_    0.649250 0.220914 0.103415 0.102042
H26   H     H_    0.087629 0.762949 0.764207 0.087703
H27   H     H_    0.906889 0.469595 0.869733 0.108049
H28   H     H_    0.837912 0.383455 0.954338 0.060302
H29   H     H_    0.719260 0.303140 0.018122 0.062195
H30   H     H_    0.222672 0.333269 0.258167 0.112544
H31   H     H_    0.470127 0.585173 0.150591 0.109318
H32   H     H_    0.429923 0.647987 0.618608 0.077289
H33   H     H_    0.531129 0.803810 0.890044 0.119168
H34   H     H_    0.585933 0.799603 0.714755 0.119509
H35   H     H_    0.452272 0.103926 0.583030 -0.004818
H36   H     H_    0.538075 0.669621 0.065680 0.109508
H37   H     H_    0.292447 0.108063 0.391255 0.080252
H38   H     H_    0.927852 0.953760 0.618321 0.088394
H39   H     H_    0.110150 0.335406 0.553871 0.091569
H40   H     H_    0.055596 0.684090 0.429044 0.095822
H41   H     H_    0.389406 0.205956 0.478412 0.053776
H42   H     H_    0.712279 0.847457 0.451009 0.061559
H43   H     H_    0.436053 0.499490 0.680667 0.071616
H44   H     H_    0.427891 0.566539 0.458989 0.035422
H45   H     H_    0.506920 0.459725 0.632305 0.110168
H46   H     H_    0.656454 0.136719 0.566923 0.085313
H47   H     H_    0.785685 0.960251 0.345867 0.004040
H48   H     H_    0.359463 0.930009 0.203753 0.063450
H49   H     H_    0.561432 0.901834 0.216628 0.013753
H50   H     H_    0.434966 0.077902 0.147935 0.154090
H51   H     H_    0.644087 0.057269 0.160582 0.128633
H52   H     H_    0.597048 0.936722 0.119645 0.135851
H53   H     H_    0.536447 0.038919 0.075362 0.145955
H54   H     H_    0.387050 0.957355 0.106964 0.134179
H55   H     H_    0.139715 0.082145 0.305460 0.065291
H56   H     H_    0.990245 0.017528 0.279732 -0.015273
H57   H     H_    0.515796 0.174363 0.657985 0.134706
H58   H     H_    0.285753 0.116582 0.226402 0.191727
H59   H     H_    0.150718 0.042967 0.201313 0.115524
H60   H     H_    0.924412 0.134123 0.196798 0.146649
H61   H     H_    0.086575 0.198198 0.160876 0.145598
H62   H     H_    0.055617 0.206832 0.224189 0.151429
H63   H     H_    0.095592 0.863472 0.217207 0.040601
H64   H     H_    0.954612 0.769920 0.238987 0.015314
H65   H     H_    0.314381 0.762167 0.229081 0.099915
H66   H     H_    0.170978 0.670453 0.248825 0.125382
H67   H     H_    0.017307 0.720567 0.161766 0.133536
H68   H     H_    0.508922 0.248159 0.593259 0.060933
H69   H     H_    0.221857 0.703172 0.155486 0.150689
H70   H     H_    0.162364 0.812574 0.141991 0.125037
H71   H     H_    0.810039 0.640278 0.553401 0.080730
H72   H     H_    0.993275 0.692725 0.555812 0.064609
H73   H     H_    0.683211 0.715735 0.601885 0.132716
H74   H     H_    0.839829 0.746161 0.630931 0.086020
H75   H     H_    0.895377 0.821268 0.522541 0.087482
H76   H     H_    0.901174 0.878798 0.565868 0.109131
H77   H     H_    0.734837 0.871285 0.529142 0.161196
H78   H     H_    0.988563 0.191639 0.664059 0.048083
H79   H     H_    0.699026 0.219733 0.627859 0.089308
H80   H     H_    0.040330 0.117196 0.728619 0.004493
H81   H     H_    0.840698 0.117556 0.700869 0.079955
H82   H     H_    0.973789 0.405273 0.791268 0.074069
H83   H     H_    0.127136 0.391685 0.753847 -0.007365
H84   H     H_    0.765471 0.396637 0.717829 0.137109
H85   H     H_    0.920354 0.372191 0.684060 0.094305
H86   H     H_    0.975732 0.240554 0.760452 0.126752
H87   H     H_    0.770948 0.237453 0.733360 0.132811
H88   H     H_    0.817055 0.265050 0.793229 0.141866
H89   H     H_    0.651526 0.641250 0.274845 0.022706
H90   H     H_    0.242406 0.858393 0.362654 0.043472
H91   H     H_    0.857118 0.609659 0.281893 0.029354
H92   H     H_    0.799124 0.677819 0.317355 0.092347
H93   H     H_    0.418515 0.856587 0.946043 0.054690
H94   H     H_    0.596031 0.824237 0.990231 0.009507
H95   H     H_    0.405501 0.820911 0.015033 0.068597
H96   H     H_    0.729986 0.371540 0.583067 0.022206
H97   H     H_    0.737975 0.484386 0.583074 0.085125
H98   H     H_    0.915173 0.436686 0.577216 0.068535
H99   H     H_    0.538798 0.744228 0.326229 0.037798
H100  H     H_    0.436200 0.841722 0.302551 0.123808
N1    N     N_R   0.480812 0.320424 0.209058 -0.415985
N2    N     N_R   0.795717 0.721249 0.799351 -0.430827
O1    O     O_2   0.431310 0.922990 0.623550 -0.483470
O2    O     O_2   0.824523 0.301990 0.508375 -0.458830
O3    O     O_3   0.751859 0.382404 0.410232 -0.557279
O4    O     O_3   0.663280 0.983100 0.563360 -0.510546
O5    O     O_3   0.016420 0.932050 0.462720 -0.452383
O6    O     O_2   0.959730 0.164640 0.549160 -0.446077
O7    O     O_3   0.200926 0.146348 0.623664 -0.687696
O8    O     O_2   0.955714 0.192743 0.328067 -0.494194
O9    O     O_3   0.000766 0.343769 0.346948 -0.575732
O10   O     O_2   0.549146 0.202237 0.190284 -0.630534
O11   O     O_2   0.911268 0.604425 0.793931 -0.546006
O12   O     O_3   0.061174 0.929658 0.373006 -0.669453
O13   O     O_2   0.432943 0.447462 0.221804 -0.643586
O14   O     O_2   0.672640 0.831373 0.810655 -0.599416
O15   O     O_3   0.126250 0.812630 0.574830 -0.492490
O16   O     O_2   0.319072 0.772883 0.664689 -0.497088
O17   O     O_3   0.624920 0.047061 0.639301 -0.607409
O18   O     O_3   0.058616 0.680523 0.675261 -0.612274
O19   O     O_2   0.229950 0.835370 0.450810 -0.475766
O20   O     O_3   0.517580 0.797570 0.545130 -0.499273
O21   O     O_2   0.312226 0.691342 0.500116 -0.495675
O22   O     O_3   0.492808 0.994389 0.249767 -0.616965
O23   O     O_3   0.538681 0.615667 0.562284 -0.637652
O24   O     O_3   0.217297 0.967103 0.301456 -0.639676
O25   O     O_3   0.130352 0.789740 0.294775 -0.690878
O26   O     O_3   0.925708 0.600773 0.624876 -0.692145
O27   O     O_3   0.991269 0.060284 0.668160 -0.663227
O28   O     O_3   0.003821 0.507145 0.725311 -0.596815
O29   O     O_3   0.719742 0.549567 0.345118 -0.637502
O30   O     O_3   0.425827 0.723339 0.982509 -0.643555
O31   O     O_3   0.761983 0.465290 0.511281 -0.630333
O32   O     O_3   0.675501 0.854054 0.331125 -0.722820
O33   O     O_2   0.758370 0.077020 0.376420 -0.486777
O34   O     O_3   0.526390 0.016840 0.436620 -0.472896
O35   O     O_3   0.063420 0.187310 0.425160 -0.457300
O36   O     O_3   0.546491 0.952414 0.359763 -0.631278
O37   O     O_3   0.173250 0.067890 0.537260 -0.494804
O38   O     O_3   0.672100 0.202370 0.454860 -0.487221
P1    P     P_3+3 0.610630 0.953360 0.619150 1.010126
P2    P     P_3+3 0.057260 0.861390 0.437850 0.975494
P3    P     P_3+3 0.490957 0.712800 0.514200 0.943525
P4    P     P_3+3 0.579040 0.046590 0.380840 1.001888
P5    P     P_3+3 0.686875 0.303700 0.465985 1.012167
P6    P     P_3+3 0.141589 0.786404 0.645270 0.963549
P7    P     P_3+3 0.145594 0.159248 0.557319 0.950540
P8    P     P_3+3 0.074523 0.241489 0.358633 0.983553

loop_
_geom_bond_atom_site_label_1
_geom_bond_atom_site_label_2
_ccdc_geom_bond_type
C7    H23   S    
C63   H4    S    
C69   H59   S    
C53   C54   D    
C74   H71   S    
C76   H76   S    
C83   H94   S    
C81   H87   S    
C82   H91   S    
C71   C72   S    
C28   O36   S    
C23   O27   S    
C41   O30   S    
C86   O10   D    
C52   H35   S    
C44   H41   S    
C79   C80   S    
O7    P7    S    
Ba2   O38   S    
O2    P5    D    
C28   O32   S    
C30   P6    S    
C75   C76   S    
O33   P4    D    
C10   C11   A    
C64   H49   S    
C78   H19   S    
C68   H55   S    
O21   P3    D    
C28   H47   S    
C1    H2    S    
C62   O24   S    
O15   P6    S    
C17   C19   A    
C83   O30   S    
C22   C24   A    
C61   H68   S    
C63   O25   S    
C35   C38   A    
C85   H3    S    
O34   P4    S    
C36   C37   A    
C32   C33   S    
C78   H20   S    
C15   H38   S    
C77   O27   S    
C52   C61   S    
C52   O17   S    
C52   H46   S    
C42   H33   S    
C72   H66   S    
C16   H45   S    
Ba1   Ba2   S    
O3    P5    S    
C82   H92   S    
C65   H50   S    
C40   H24   S    
C22   C27   A    
Ba2   O33   S    
C11   C38   A    
C17   C35   A    
C5    P8    S    
C9    C13   A    
Ba1   P2    S    
C6    C7    D    
C76   H77   S    
O20   P3    S    
C66   H54   S    
C68   C69   S    
C84   O31   S    
C77   H80   S    
C65   H51   S    
C7    C8    S    
C29   H26   S    
O23   P3    S    
C50   C53   S    
Ba2   P4    S    
C37   C43   A    
C73   H69   S    
C61   H79   S    
C64   C65   S    
C76   H75   S    
C32   H34   S    
C45   H14   S    
C81   H88   S    
C71   H63   S    
C84   H96   S    
O4    P1    S    
C46   H42   S    
C16   H43   S    
C82   H89   S    
C15   C31   D    
Ba2   O35   S    
C31   P1    S    
C25   C42   A    
C4    H32   S    
C19   C24   A    
Ba2   O37   S    
C31   C32   D    
O36   P4    S    
C43   H36   S    
C75   H73   S    
C86   N1    Am   
C47   H39   S    
C4    C16   S    
C80   H84   S    
C8    N1    S    
C27   O11   D    
C72   C73   S    
C10   C86   A    
Ba1   O19   S    
C49   C50   S    
C26   O14   D    
C85   O32   S    
C58   H40   S    
C17   C20   A    
C23   O7    S    
C74   C75   S    
C13   C39   A    
C3    C5    S    
C18   C37   A    
C67   H17   S    
O17   P1    S    
C2    O13   D    
C85   H99   S    
C70   H60   S    
C44   C49   D    
C80   C81   S    
C45   H12   S    
C65   C66   S    
O5    P2    S    
C26   N2    Am   
C58   C59   A    
Ba2   O4    S    
C68   O24   S    
C9    C36   A    
C41   C42   A    
C12   H1    S    
C35   C36   A    
C82   O29   S    
C73   H67   S    
C84   H98   S    
C62   H90   S    
C56   O29   S    
C74   O26   S    
C46   C60   A    
C29   C30   S    
C80   H85   S    
O1    P1    D    
Ba2   O34   S    
C59   P2    S    
C24   C25   A    
C12   O26   S    
C66   H53   S    
C79   H82   S    
C39   H31   S    
O38   P5    S    
C54   H44   S    
C1    C12   S    
C64   H48   S    
Ba1   O1    S    
C73   H70   S    
C34   H9    S    
C5    C14   S    
C47   C48   D    
C33   N2    S    
C70   H62   S    
Ba1   O34   S    
C71   H64   S    
C4    H21   S    
C29   C33   D    
C66   H52   S    
C56   H16   S    
C16   H11   S    
C64   O22   S    
C40   H13   S    
O18   P6    S    
C18   C41   A    
Ba1   O15   S    
C50   C51   S    
C14   H37   S    
C75   H74   S    
C62   O12   S    
C53   O31   S    
C74   H72   S    
C57   C60   A    
C83   H93   S    
C21   C22   A    
Ba1   O5    S    
Ba1   O20   S    
C27   N2    Am   
O35   P8    S    
C2    N1    Am   
C45   O3    S    
C71   O25   S    
C55   C58   A    
C60   P3    S    
C67   H18   S    
C23   H7    S    
C85   H100  S    
Ba2   O5    S    
O6    P7    D    
C40   O22   S    
O37   P7    S    
C44   C48   S    
C68   H56   S    
C54   C57   S    
O12   P2    S    
C3    H30   S    
C49   P5    S    
C62   C63   S    
C77   H81   S    
C2    C13   A    
Ba1   O4    S    
C3    C8    D    
O8    P8    D    
O9    P8    S    
C45   C56   S    
C6    P4    S    
Ba1   O37   S    
C46   C59   A    
C4    O23   S    
O16   P6    D    
C1    O28   S    
C47   C51   S    
C79   O28   S    
C20   H28   S    
C63   H5    S    
C38   H29   S    
C1    H6    S    
Ba2   O6    S    
O19   P2    D    
C79   H83   S    
C77   H78   S    
C48   P7    S    
C55   C57   A    
C12   O18   S    
C23   C34   S    
C21   H27   S    
Ba1   P1    S    
C69   C70   S    
C69   H58   S    
C18   C19   A    
C72   H65   S    
C84   H97   S    
C6    C14   D    
C70   H61   S    
C81   H86   S    
C78   H22   S    
C25   C26   A    
C67   O9    S    
C15   C30   S    
C39   C43   A    
C20   C21   A    
C28   C40   S    
C67   C78   S    
C34   H10   S    
C56   H15   S    
C61   H57   S    
C11   H25   S    
C83   H95   S    
C9    C10   A    
C34   H8    S    
