data_mof_unit_24646.cif
_audit_creation_date              2012-12-10T18:48:23-0500
_audit_creation_method            fapswitch 2.2
_symmetry_space_group_name_H-M    P1
_symmetry_Int_Tables_number       1
_space_group_crystal_system       triclinic
_cell_length_a                    10.629896
_cell_length_b                    10.083521
_cell_length_c                    11.488047
_cell_angle_alpha                 90.315093
_cell_angle_beta                  93.116181
_cell_angle_gamma                 90.242405
_cell_volume                      1229.51476605

loop_
_atom_site_label
_atom_site_type_symbol
_atom_type_description
_atom_site_fract_x
_atom_site_fract_y
_atom_site_fract_z
_atom_type_partial_charge
C1    C     C_R   0.260839 0.499413 0.500303 0.837098
C2    C     C_R   0.940703 0.589239 0.572408 -0.215050
C3    C     C_R   0.930906 0.404461 0.434492 -0.181179
C4    C     C_R   0.069714 0.587395 0.574002 -0.210303
C5    C     C_R   0.872138 0.498912 0.501802 0.000244
C6    C     C_R   0.128303 0.497115 0.502793 0.000561
C7    C     C_R   0.563901 0.070705 0.587248 0.091858
C8    C     C_R   0.418382 0.929029 0.427720 0.140882
C9    C     C_R   0.438533 0.068379 0.412031 0.114208
C10   C     C_R   0.582140 0.930626 0.572703 0.095979
C11   C     C_3   0.592932 0.126146 0.710005 -0.343687
C12   C     C_R   0.739272 0.500036 0.500690 0.825749
C13   C     C_3   0.715881 0.207342 0.729415 -0.295736
C14   C     C_3   0.744628 0.237274 0.858723 -0.932065
C15   C     C_3   0.302074 0.864473 0.369572 -0.380560
C16   C     C_3   0.193067 0.861614 0.452721 -0.305826
C17   C     C_3   0.123055 0.992913 0.460910 -0.911499
C18   C     C_3   0.424782 0.117792 0.287255 -0.354530
C19   C     C_3   0.300880 0.190666 0.256001 -0.321862
C20   C     C_3   0.282977 0.212221 0.124747 -0.916762
C21   C     C_3   0.705872 0.873703 0.622427 -0.369173
C22   C     C_3   0.697677 0.794476 0.736228 -0.276895
C23   C     C_R   0.500010 0.499852 0.282609 0.896790
C24   C     C_3   0.804909 0.828105 0.825630 -0.968620
C25   C     C_R   0.499398 0.500407 0.717358 0.885101
C26   C     C_1   0.500330 0.500218 0.161929 -0.196397
C27   C     C_1   0.498830 0.501695 0.838014 -0.205242
C28   C     C_1   0.500025 0.501545 0.059444 -0.020833
C29   C     C_1   0.499083 0.502297 0.940501 -0.019673
C30   C     C_R   0.060020 0.403681 0.434886 -0.198536
H1    H     H_    0.105925 0.332272 0.381174 0.131887
H2    H     H_    0.509752 0.178416 0.740524 0.216212
H3    H     H_    0.599528 0.042552 0.772207 0.186003
H4    H     H_    0.188870 0.074826 0.487128 0.276741
H5    H     H_    0.072419 0.015617 0.376400 0.251217
H6    H     H_    0.051814 0.984656 0.527772 0.247401
H7    H     H_    0.123875 0.785142 0.420817 0.223708
H8    H     H_    0.229125 0.834790 0.542000 0.240862
H9    H     H_    0.269013 0.913850 0.287888 0.178796
H10   H     H_    0.324197 0.763312 0.340842 0.221022
H11   H     H_    0.366118 0.263195 0.091279 0.277894
H12   H     H_    0.895230 0.658914 0.627405 0.148454
H13   H     H_    0.269735 0.115473 0.078895 0.259701
H14   H     H_    0.198183 0.273934 0.105492 0.251657
H15   H     H_    0.219497 0.132942 0.283421 0.213393
H16   H     H_    0.298300 0.287543 0.300479 0.252801
H17   H     H_    0.509006 0.175201 0.265936 0.219538
H18   H     H_    0.431024 0.031858 0.226714 0.164352
H19   H     H_    0.799656 0.933155 0.852888 0.273666
H20   H     H_    0.797406 0.764833 0.903791 0.263036
H21   H     H_    0.897714 0.810440 0.788558 0.262061
H22   H     H_    0.606551 0.811966 0.776651 0.227958
H23   H     H_    0.877064 0.333553 0.380598 0.146332
H24   H     H_    0.706267 0.687463 0.717028 0.235592
H25   H     H_    0.752154 0.818324 0.554290 0.205329
H26   H     H_    0.774748 0.955014 0.637067 0.179952
H27   H     H_    0.123541 0.655712 0.630402 0.140006
H28   H     H_    0.664683 0.289993 0.895867 0.275077
H29   H     H_    0.761910 0.144842 0.908588 0.258491
H30   H     H_    0.829967 0.301038 0.869415 0.255277
H31   H     H_    0.797649 0.155606 0.695035 0.201677
H32   H     H_    0.709197 0.303182 0.685554 0.264298
N1    N     N_R   0.500000 0.857200 0.500000 -0.125792
N2    N     N_R   0.500000 0.142800 0.500000 -0.121949
O1    O     O_R   0.316770 0.614620 0.499990 -0.638829
O2    O     O_R   0.683230 0.385380 0.500010 -0.631713
O3    O     O_R   0.683230 0.614620 0.500010 -0.626956
O4    O     O_R   0.316770 0.385380 0.499990 -0.621494
O5    O     O_R   0.500020 0.614670 0.334450 -0.620080
O6    O     O_R   0.499980 0.385330 0.665550 -0.617083
O7    O     O_R   0.499980 0.614670 0.665550 -0.622446
O8    O     O_R   0.500020 0.385330 0.334450 -0.622999
Zn1   Zn    Zn3+2 0.500000 0.653120 0.500000 0.913980
Zn2   Zn    Zn3+2 0.500000 0.346880 0.500000 0.920928

loop_
_geom_bond_atom_site_label_1
_geom_bond_atom_site_label_2
_ccdc_geom_bond_type
C4    H27   S    
O6    Zn2   S    
C7    C10   A    
C2    C4    A    
C19   H15   S    
O5    Zn1   S    
O3    Zn1   S    
C17   H6    S    
C3    C30   A    
C9    N2    A    
C11   C13   S    
C23   O5    A    
C26   C28   T    
C10   N1    A    
C16   H7    S    
C18   H17   S    
C1    O4    A    
C24   H21   S    
C20   H11   S    
C19   H16   S    
C13   H31   S    
C22   H24   S    
C25   O6    A    
C21   C22   S    
C7    C11   S    
C14   H29   S    
C3    H23   S    
C21   H26   S    
C15   H9    S    
C16   C17   S    
C12   O2    A    
C2    H12   S    
C25   O7    A    
C24   H19   S    
C4    C6    A    
C28   C29   S    
C6    C30   A    
C11   H2    S    
C8    C15   S    
C10   C21   S    
C24   H20   S    
C30   H1    S    
C14   H28   S    
C12   O3    A    
C22   C24   S    
C15   H10   S    
C2    C5    A    
C25   C27   S    
C17   H4    S    
C22   H22   S    
C8    N1    A    
O4    Zn2   S    
C15   C16   S    
O2    Zn2   S    
C9    C18   S    
C11   H3    S    
C20   H13   S    
O1    Zn1   S    
C27   C29   T    
C5    C12   S    
O8    Zn2   S    
C18   C19   S    
C23   C26   S    
C14   H30   S    
O7    Zn1   S    
N2    Zn2   S    
C23   O8    A    
C21   H25   S    
C7    N2    A    
C17   H5    S    
C19   C20   S    
C20   H14   S    
C13   C14   S    
N1    Zn1   S    
C1    O1    A    
C13   H32   S    
C1    C6    S    
C16   H8    S    
C8    C9    A    
C3    C5    A    
C18   H18   S    
