data_mof_unit_36478.cif
_audit_creation_date              2013-03-05T16:22:59-0500
_audit_creation_method            fapswitch 2.2
_symmetry_space_group_name_H-M    P1
_symmetry_Int_Tables_number       1
_space_group_crystal_system       triclinic
_cell_length_a                    23.078362
_cell_length_b                    10.594936
_cell_length_c                    9.928897
_cell_angle_alpha                 90.239655
_cell_angle_beta                  89.736086
_cell_angle_gamma                 90.588395
_cell_volume                      2427.57749135

loop_
_atom_site_label
_atom_site_type_symbol
_atom_site_description
_atom_site_fract_x
_atom_site_fract_y
_atom_site_fract_z
_atom_type_partial_charge
O1    O     O_R   0.500000 0.313960 0.616610 -0.551942
O2    O     O_R   0.500000 0.686040 0.383390 -0.543564
O3    O     O_R   0.500030 0.313950 0.383350 -0.604601
O4    O     O_R   0.499970 0.686050 0.616650 -0.599455
C1    C     C_R   0.498843 0.258679 0.500364 0.944771
C2    C     C_R   0.500797 0.741259 0.499710 0.981465
O5    O     O_R   0.416140 0.499970 0.616650 -0.615663
O6    O     O_R   0.583860 0.500030 0.383350 -0.590804
O7    O     O_R   0.416170 0.499960 0.383400 -0.548523
O8    O     O_R   0.583830 0.500040 0.616600 -0.567517
C3    C     C_R   0.388899 0.498983 0.500873 0.929940
C4    C     C_R   0.610595 0.496633 0.499904 0.949258
Zn1   Zn    Zn3+2 0.499980 0.500010 0.655740 1.106933
Zn2   Zn    Zn3+2 0.500020 0.499990 0.344260 1.123131
C5    C     C_R   0.871636 0.481500 0.657807 0.625777
C6    C     C_R   0.121116 0.323285 0.548993 0.640381
N1    N     N_R   0.847189 0.389260 0.579847 -0.351367
N2    N     N_R   0.144714 0.439001 0.577831 -0.347360
C7    C     C_R   0.878199 0.289752 0.532130 0.643583
C8    C     C_R   0.112490 0.533312 0.633366 0.633618
C9    C     C_R   0.938438 0.284913 0.553929 -0.143933
C10   C     C_R   0.053523 0.513265 0.662373 -0.143647
C11   C     C_R   0.965757 0.391039 0.614371 -0.045576
C12   C     C_R   0.026660 0.402173 0.612321 -0.051535
C13   C     C_R   0.932095 0.488389 0.672330 -0.141068
C14   C     C_R   0.060623 0.304531 0.556080 -0.142228
C15   C     C_R   0.972432 0.182474 0.508732 0.224059
C16   C     C_R   0.020356 0.603283 0.733627 0.234452
C17   C     C_R   0.033182 0.192608 0.508848 0.230318
C18   C     C_R   0.959877 0.590891 0.738463 0.228224
O9    O     O_2   0.837106 0.568459 0.715647 -0.425871
O10   O     O_2   0.156405 0.228323 0.512409 -0.431442
O11   O     O_2   0.851011 0.200318 0.458053 -0.435156
O12   O     O_2   0.137239 0.647509 0.655079 -0.434389
C19   C     C_R   0.241219 0.492160 0.658398 -0.057895
C20   C     C_R   0.745315 0.331695 0.599737 -0.038544
H1    H     H_    0.223742 0.501065 0.759413 0.219833
H2    H     H_    0.756651 0.255217 0.666359 0.213429
C21   C     C_R   0.299837 0.509920 0.637482 -0.140649
C22   C     C_R   0.687691 0.361785 0.581640 -0.158434
H3    H     H_    0.325742 0.535761 0.723972 0.237289
H4    H     H_    0.654941 0.304621 0.631015 0.234058
C23   C     C_R   0.324881 0.492420 0.509370 -0.197549
C24   C     C_R   0.672138 0.465712 0.503219 -0.193800
C25   C     C_R   0.288328 0.464997 0.398471 0.213472
C26   C     C_R   0.715116 0.535069 0.433131 0.200739
C27   C     C_R   0.227945 0.451640 0.419365 0.275164
C28   C     C_R   0.773848 0.504217 0.451422 0.254684
C29   C     C_R   0.205043 0.461876 0.551043 0.102707
C30   C     C_R   0.788410 0.404642 0.538726 0.107289
C31   C     C_3   0.499866 0.039576 0.628275 0.000429
C32   C     C_3   0.499287 0.960161 0.372045 0.001469
C33   C     C_3   0.547814 0.961899 0.561170 0.283257
C34   C     C_3   0.451443 0.038173 0.439517 0.292641
C35   C     C_3   0.501243 0.875273 0.497904 -0.176725
C36   C     C_3   0.498151 0.124534 0.502617 -0.168077
C37   C     C_3   0.453348 0.954106 0.564578 -0.075873
C38   C     C_3   0.545950 0.045687 0.435867 -0.079894
C39   C     C_3   0.497771 0.387204 0.045975 0.169106
C40   C     C_3   0.502171 0.612382 0.953486 0.164406
C41   C     C_3   0.543878 0.440334 0.951095 0.166835
C42   C     C_3   0.456164 0.559719 0.047933 0.157319
N3    N     N_3   0.499960 0.500030 0.863290 -0.224278
N4    N     N_3   0.500040 0.499970 0.136710 -0.220739
C43   C     C_3   0.453948 0.447066 0.952170 0.149519
C44   C     C_3   0.546009 0.552814 0.046928 0.128749
N5    N     N_R   0.945919 0.066645 0.463851 0.270686
O13   O     O_R   0.914944 0.999379 0.547188 -0.218065
O14   O     O_R   0.956145 0.023559 0.343255 -0.218471
N6    N     N_R   0.047738 0.704418 0.807133 0.271753
O15   O     O_R   0.083964 0.679241 0.903170 -0.244627
O16   O     O_R   0.033865 0.821082 0.784345 -0.219616
N7    N     N_R   0.592306 0.370015 0.894752 0.262672
O17   O     O_R   0.645171 0.395835 0.930963 -0.289095
O18   O     O_R   0.582363 0.272118 0.819040 -0.327555
N8    N     N_R   0.407197 0.632984 0.096924 0.293199
O19   O     O_R   0.367676 0.666067 0.011424 -0.265270
O20   O     O_R   0.411457 0.695489 0.209205 -0.292641
N9    N     N_R   0.493317 0.259245 0.097033 0.232092
O21   O     O_R   0.533383 0.177980 0.068513 -0.398284
O22   O     O_R   0.444749 0.220412 0.149635 -0.294049
N10   N     N_R   0.506710 0.740780 0.903241 0.230239
O23   O     O_R   0.466743 0.821964 0.932818 -0.394167
O24   O     O_R   0.556170 0.781191 0.857049 -0.296124
N11   N     N_R   0.403091 0.383121 0.896936 0.261474
O25   O     O_R   0.351570 0.410675 0.940472 -0.269049
O26   O     O_R   0.409332 0.289781 0.813124 -0.341293
N12   N     N_R   0.596323 0.620821 0.098231 0.271511
O27   O     O_R   0.640960 0.636718 0.019586 -0.203007
O28   O     O_R   0.588962 0.699698 0.196908 -0.319542
N13   N     N_R   0.066198 0.089414 0.456551 0.272545
O29   O     O_R   0.067841 0.983546 0.522238 -0.227564
O30   O     O_R   0.086651 0.094508 0.334331 -0.210325
N14   N     N_R   0.927405 0.683175 0.811789 0.271636
O31   O     O_R   0.923475 0.675913 0.942244 -0.227103
O32   O     O_R   0.908241 0.782560 0.750484 -0.195771
N15   N     N_R   0.311338 0.452856 0.265091 0.248126
O33   O     O_R   0.342687 0.355574 0.234271 -0.228871
O34   O     O_R   0.290403 0.521644 0.169048 -0.237209
N16   N     N_R   0.699944 0.637907 0.347338 0.253175
O35   O     O_R   0.669965 0.731200 0.395115 -0.285430
O36   O     O_R   0.723413 0.648050 0.228448 -0.213706
N17   N     N_R   0.190042 0.425460 0.307937 0.245827
O37   O     O_R   0.202019 0.335678 0.222739 -0.214072
O38   O     O_R   0.142096 0.487655 0.294541 -0.301934
N18   N     N_R   0.818985 0.579120 0.390076 0.242125
O39   O     O_R   0.818377 0.701598 0.400213 -0.203196
O40   O     O_R   0.863178 0.524941 0.333162 -0.306676
N19   N     N_R   0.601743 0.925351 0.625236 0.262778
O41   O     O_R   0.635907 0.011633 0.675438 -0.284228
O42   O     O_R   0.617636 0.808076 0.626039 -0.278037
N20   N     N_R   0.397386 0.080447 0.380452 0.263774
O43   O     O_R   0.375400 0.020121 0.278137 -0.229414
O44   O     O_R   0.365659 0.161052 0.445850 -0.335336
N21   N     N_3   0.499927 0.082650 0.767845 -0.276996
H5    H     H_    0.525263 0.020826 0.823354 0.288257
H6    H     H_    0.457812 0.073709 0.805537 0.256540
N22   N     N_3   0.499004 0.915482 0.232983 -0.285733
H7    H     H_    0.478645 0.983216 0.174455 0.290460
H8    H     H_    0.541899 0.912940 0.199568 0.255983
N23   N     N_3   0.401786 0.902147 0.630003 -0.375779
H9    H     H_    0.378856 0.977509 0.671525 0.260273
H10   H     H_    0.415274 0.846103 0.709779 0.252401
N24   N     N_3   0.597622 0.097091 0.370473 -0.387470
H11   H     H_    0.620435 0.021379 0.329319 0.264947
H12   H     H_    0.584280 0.153012 0.290500 0.253018

loop_
_geom_bond_atom_site_label_1
_geom_bond_atom_site_label_2
_geom_bond_distance
_ccdc_geom_bond_type
N3    C43   1.484771 S    
C15   C17   1.405019 A    
N7    O17   1.299614 A    
C1    C36   1.421447 S    
C43   N11   1.457326 S    
C2    C35   1.419991 S    
N20   O44   1.300357 A    
N15   O33   1.300003 A    
C27   C29   1.412120 A    
N11   O25   1.298904 A    
O5    C3    1.312712 A    
C39   N4    1.493963 S    
C40   N3    1.487223 S    
O1    C1    1.292377 A    
N8    O20   1.297911 A    
C19   H1    1.083413 S    
C12   C14   1.415687 A    
N19   O42   1.299200 A    
C44   N12   1.453306 S    
C5    C13   1.404493 A    
N18   O39   1.301339 A    
N21   H5    1.043340 S    
C40   C42   1.516941 S    
C31   C36   1.542404 S    
C25   C27   1.413699 A    
O4    Zn1   2.010525 S    
C41   N3    1.487713 S    
N22   H7    1.042305 S    
C42   N4    1.493008 S    
C40   N10   1.453511 S    
C41   C44   1.522421 S    
C28   N18   1.437754 S    
C24   C26   1.411013 A    
N21   H6    1.043438 S    
C19   C29   1.391398 A    
C11   C12   1.409327 A    
C3    C23   1.480380 S    
N6    O15   1.301311 A    
C31   C37   1.534276 S    
C32   C35   1.543786 S    
C8    O12   1.349565 S    
C28   C30   1.412430 A    
C9    C15   1.415978 A    
C40   C44   1.519637 S    
C10   C16   1.414352 A    
N7    O18   1.297589 A    
C42   N8    1.458099 S    
O2    C2    1.292595 A    
N20   O43   1.300244 A    
N15   O34   1.300473 A    
C32   C34   1.535712 S    
C34   C36   1.540405 S    
N11   O26   1.298527 A    
C6    C14   1.409604 A    
C32   C38   1.537476 S    
C26   C28   1.410289 A    
C39   C41   1.522976 S    
C27   N17   1.437874 S    
N5    O13   1.301005 A    
C20   C22   1.383438 A    
N8    O19   1.300606 A    
C21   H3    1.081308 S    
C7    O11   1.348601 S    
C39   N9    1.451879 S    
N13   O29   1.300823 A    
N9    O22   1.298216 A    
C21   C23   1.407080 A    
C41   N7    1.457727 S    
C31   N21   1.457178 S    
N5    O14   1.301100 A    
N4    C44   1.488923 S    
C19   C21   1.378830 A    
O7    Zn2   1.971996 S    
N13   O30   1.301178 A    
C23   C25   1.417513 A    
Zn1   N3    2.060740 S    
C22   C24   1.401919 A    
O6    C4    1.314762 A    
Zn2   N4    2.060739 S    
N16   O36   1.300900 A    
C34   N20   1.456473 S    
N17   O38   1.301285 A    
N14   O32   1.300874 A    
O7    C3    1.322827 A    
N23   H9    1.044724 S    
O3    Zn2   2.010525 S    
O8    C4    1.311060 A    
O4    C2    1.302258 A    
N12   O28   1.296803 A    
N10   O24   1.297443 A    
C35   C37   1.537932 S    
C10   C12   1.414079 A    
O1    Zn1   2.007521 S    
C33   C35   1.540529 S    
C20   H2    1.083044 S    
C17   N13   1.433288 S    
C20   C30   1.391403 A    
N24   H12   1.042243 S    
C33   N19   1.456995 S    
C13   C18   1.416075 A    
C5    N1    1.363420 A    
C26   N16   1.433068 S    
O6    Zn2   1.975180 S    
C42   C43   1.523463 S    
C7    C9    1.409439 A    
C16   N6    1.436649 S    
C8    C10   1.403913 A    
O3    C1    1.303287 A    
O8    Zn1   1.971998 S    
N1    C30   1.429552 S    
C33   C38   1.532408 S    
C5    O9    1.349122 S    
C6    O10   1.348527 S    
C38   N24   1.456964 S    
C9    C11   1.416060 A    
C16   C18   1.401207 A    
C18   N14   1.432369 S    
C25   N15   1.430342 S    
N19   O41   1.300296 A    
C39   C43   1.522952 S    
N18   O40   1.301173 A    
C22   H4    1.080772 S    
N16   O35   1.299167 A    
N1    C7    1.362471 A    
C36   C38   1.536738 S    
N2    C8    1.364704 A    
C11   C13   1.416301 A    
N14   O31   1.300577 A    
O2    Zn2   2.007520 S    
N22   H8    1.043175 S    
N23   H10   1.042537 S    
C15   N5    1.435794 S    
C37   N23   1.457221 S    
N9    O21   1.299386 A    
O5    Zn1   1.975178 S    
N12   O27   1.299800 A    
C14   C17   1.417674 A    
C6    N2    1.366178 A    
N10   O23   1.299435 A    
N17   O37   1.301295 A    
C4    C24   1.461433 S    
N6    O16   1.301016 A    
C31   C33   1.533967 S    
N2    C29   1.434622 S    
N24   H11   1.044783 S    
C34   C37   1.532203 S    
C32   N22   1.457770 S    
