data_mof_unit_5230.cif
_audit_creation_date              2012-12-10T16:48:48-0500
_audit_creation_method            fapswitch 2.2
_symmetry_space_group_name_H-M    P1
_symmetry_Int_Tables_number       1
_space_group_crystal_system       triclinic
_cell_length_a                    17.203079
_cell_length_b                    8.687514
_cell_length_c                    7.442558
_cell_angle_alpha                 102.889336
_cell_angle_beta                  90.590777
_cell_angle_gamma                 92.94994
_cell_volume                      1082.56994981

loop_
_atom_site_label
_atom_site_type_symbol
_atom_type_description
_atom_site_fract_x
_atom_site_fract_y
_atom_site_fract_z
_atom_type_partial_charge
C1    C     C_R   0.497650 0.199742 0.453659 0.889568
C2    C     C_R   0.502350 0.800257 0.546341 0.889568
C3    C     C_2   0.496510 0.031929 0.427482 -0.360325
C4    C     C_2   0.503490 0.968071 0.572518 -0.360325
C5    C     C_R   0.350850 0.497117 0.524721 0.816004
C6    C     C_R   0.649149 0.502884 0.475279 0.816005
C7    C     C_R   0.266117 0.480788 0.535792 -0.100841
C8    C     C_R   0.733882 0.519213 0.464208 -0.100841
C9    C     C_R   0.221961 0.420611 0.373245 -0.217245
C10   C     C_R   0.778039 0.579391 0.626756 -0.217246
C11   C     C_R   0.141359 0.406408 0.377247 0.394376
C12   C     C_R   0.858641 0.593595 0.622753 0.394376
C13   C     C_R   0.103837 0.455740 0.545802 0.062679
C14   C     C_R   0.896163 0.544264 0.454198 0.062679
C15   C     C_R   0.147769 0.507978 0.709718 -0.129104
C16   C     C_R   0.852231 0.492025 0.290282 -0.129104
C17   C     C_R   0.228765 0.520697 0.704973 -0.188023
C18   C     C_R   0.771235 0.479305 0.295027 -0.188023
C19   C     C_2   0.019259 0.461524 0.553522 -0.098138
C20   C     C_2   0.980741 0.538480 0.446479 -0.098138
Cu1   Cu    Cu3+1 0.508700 0.517250 0.683000 0.960380
Cu2   Cu    Cu3+1 0.491300 0.482750 0.317000 0.960380
H1    H     H_    0.249995 0.383398 0.242146 0.185568
H2    H     H_    0.750005 0.616603 0.757854 0.185568
H3    H     H_    0.738124 0.435224 0.167736 0.170703
H4    H     H_    0.261876 0.564777 0.832264 0.170703
H5    H     H_    0.011020 0.589263 0.344094 0.194812
H6    H     H_    0.988980 0.410741 0.655907 0.194812
H7    H     H_    0.119217 0.544054 0.840359 0.199403
H8    H     H_    0.880783 0.455949 0.159642 0.199403
H9    H     H_    0.489923 0.960561 0.287613 0.180325
H10   H     H_    0.510077 0.039439 0.712387 0.180325
H11   H     H_    0.439049 0.378714 0.957939 0.227087
H12   H     H_    0.560951 0.621286 0.042061 0.227087
N1    N     N_2   0.478180 0.456750 0.041980 -0.217812
N2    N     N_2   0.521820 0.543250 0.958020 -0.217812
O1    O     O_R   0.505650 0.286040 0.618880 -0.583306
O2    O     O_R   0.494350 0.713960 0.381120 -0.583306
O3    O     O_R   0.490960 0.256910 0.309800 -0.585263
O4    O     O_R   0.509040 0.743090 0.690200 -0.585263
O5    O     O_R   0.394600 0.516230 0.672450 -0.590623
O6    O     O_R   0.605400 0.483770 0.327550 -0.590623
O7    O     O_R   0.379910 0.487100 0.363380 -0.586011
O8    O     O_R   0.620090 0.512900 0.636620 -0.586010
Cl1   Cl    Cl    0.909895 0.678885 0.830636 -0.624215
Cl2   Cl    Cl    0.090105 0.321119 0.169364 -0.624215

loop_
_geom_bond_atom_site_label_1
_geom_bond_atom_site_label_2
_ccdc_geom_bond_type
C2    C4    S    
C5    O5    A    
C15   C17   A    
C19   H6    S    
C20   H5    S    
C2    O4    A    
Cu1   O8    S    
C11   C13   A    
C2    O2    A    
Cu2   O7    S    
C1    O1    A    
C5    O7    A    
Cu1   N2    S    
Cu2   O6    S    
Cu1   Cu2   S    
C3    H9    S    
Cu2   N1    S    
C9    C11   A    
C4    H10   S    
Cu1   O4    S    
C10   C12   A    
Cu1   O5    S    
C17   H4    S    
C6    C8    S    
C8    C10   A    
H11   N1    S    
C12   C14   A    
C15   H7    S    
H12   N2    S    
C13   C15   A    
C18   H3    S    
C14   C16   A    
Cu2   O3    S    
C16   H8    S    
C3    C4    D    
Cu2   O2    S    
C14   C20   S    
Cu1   O1    S    
C7    C9    A    
C6    O6    A    
C1    C3    S    
C5    C7    S    
C1    O3    A    
C9    H1    S    
C13   C19   S    
C6    O8    A    
C10   H2    S    
C16   C18   A    
C8    C18   A    
C19   C20   D    
C12   Cl1   S    
C11   Cl2   S    
N1    N2    D    
C7    C17   A    
