data_mof_unit_56801.cif
_audit_creation_date              2012-12-10T17:10:24-0500
_audit_creation_method            fapswitch 2.2
_symmetry_space_group_name_H-M    P1
_symmetry_Int_Tables_number       1
_space_group_crystal_system       triclinic
_cell_length_a                    10.768241
_cell_length_b                    13.005752
_cell_length_c                    11.633801
_cell_angle_alpha                 99.730588
_cell_angle_beta                  95.907507
_cell_angle_gamma                 90.324536
_cell_volume                      1596.89275248

loop_
_atom_site_label
_atom_site_type_symbol
_atom_type_description
_atom_site_fract_x
_atom_site_fract_y
_atom_site_fract_z
_atom_type_partial_charge
C1    C     C_R   0.498281 0.298931 0.478662 0.807887
C2    C     C_R   0.501721 0.701069 0.521338 0.807861
C3    C     C_R   0.502537 0.814362 0.533725 -0.052509
C4    C     C_R   0.497468 0.185638 0.466275 -0.052511
C5    C     C_R   0.488065 0.015338 0.343356 -0.206443
C6    C     C_R   0.511943 0.984662 0.656645 -0.206436
C7    C     C_R   0.488952 0.123400 0.354579 -0.200357
C8    C     C_R   0.511054 0.876600 0.645422 -0.200356
C9    C     C_R   0.505192 0.139200 0.566809 -0.252630
C10   C     C_R   0.494816 0.860801 0.433192 -0.252655
C11   C     C_R   0.504327 0.031203 0.556306 0.172410
C12   C     C_R   0.495682 0.968798 0.443695 0.172412
C13   C     C_R   0.397282 0.390697 0.017456 -0.308650
C14   C     C_R   0.602695 0.609311 0.982546 -0.308660
C15   C     C_R   0.405044 0.402676 0.140524 0.080224
C16   C     C_R   0.594931 0.597333 0.859477 0.080186
C17   C     C_R   0.542322 0.548905 0.159564 0.059618
C18   C     C_R   0.457682 0.451092 0.840436 0.059588
C19   C     C_R   0.536731 0.540155 0.035957 0.060690
C20   C     C_R   0.463265 0.459845 0.964043 0.060666
C21   C     C_R   0.261840 0.511999 0.498516 0.810773
C22   C     C_R   0.738165 0.488015 0.501484 0.810745
C23   C     C_R   0.136917 0.623082 0.694275 -0.148738
C24   C     C_R   0.863076 0.376944 0.305765 -0.148770
C25   C     C_R   0.090701 0.642037 0.802920 -0.188406
C26   C     C_R   0.909317 0.357919 0.197141 -0.188425
C27   C     C_R   0.985211 0.587234 0.821566 -0.002627
C28   C     C_R   0.014829 0.412676 0.178470 -0.002607
C29   C     C_R   0.920552 0.518243 0.727666 -0.040639
C30   C     C_R   0.079486 0.481702 0.272335 -0.040634
C31   C     C_R   0.953538 0.515362 0.611369 0.016943
C32   C     C_R   0.046474 0.484657 0.388635 0.016948
C33   C     C_R   0.072473 0.555072 0.599180 0.072116
C34   C     C_R   0.927526 0.444969 0.400830 0.072135
C35   C     C_R   0.874982 0.473773 0.507359 -0.207290
C36   C     C_R   0.125023 0.526268 0.492642 -0.207303
Cu1   Cu    Cu3+1 0.509250 0.507730 0.615930 0.948563
Cu2   Cu    Cu3+1 0.490750 0.492270 0.384070 0.948553
H1    H     H_    0.340333 0.327665 0.964578 0.154113
H2    H     H_    0.659627 0.672350 0.035424 0.154069
H3    H     H_    0.221968 0.663928 0.684076 0.149309
H4    H     H_    0.778001 0.336141 0.315976 0.149350
H5    H     H_    0.141061 0.695663 0.874121 0.150358
H6    H     H_    0.858953 0.304289 0.125966 0.150369
H7    H     H_    0.488188 0.813141 0.346662 0.156754
H8    H     H_    0.511822 0.186860 0.653340 0.156759
H9    H     H_    0.517060 0.841884 0.724080 0.154324
H10   H     H_    0.482944 0.158116 0.275920 0.154328
H11   H     H_    0.481427 0.968314 0.256557 0.137233
H12   H     H_    0.518581 0.031687 0.743443 0.137235
H13   H     H_    0.400288 0.390152 0.784434 0.124668
H14   H     H_    0.599721 0.609843 0.215566 0.124660
H15   H     H_    0.646388 0.650985 0.819417 0.124007
H16   H     H_    0.353570 0.349032 0.180585 0.123991
N1    N     N_R   0.523180 0.519350 0.790130 -0.181205
N2    N     N_R   0.476820 0.480650 0.209870 -0.181197
O1    O     O_R   0.506570 0.354460 0.582000 -0.582794
O2    O     O_R   0.493430 0.645540 0.418000 -0.582801
O3    O     O_R   0.490940 0.341410 0.386200 -0.604427
O4    O     O_R   0.509060 0.658590 0.613800 -0.604428
O5    O     O_R   0.327470 0.506520 0.597900 -0.577883
O6    O     O_R   0.672530 0.493480 0.402100 -0.577909
O7    O     O_R   0.311840 0.493460 0.402100 -0.580252
O8    O     O_R   0.688160 0.506540 0.597900 -0.580221
C37   C     C_1   0.054414 0.397465 0.061968 0.235374
N3    N     N_1   0.085911 0.384880 0.968571 -0.301103
C38   C     C_1   0.945627 0.602380 0.938066 0.235401
N4    N     N_1   0.914131 0.614913 0.031463 -0.301073
C39   C     C_1   0.841832 0.436696 0.755150 0.302262
N5    N     N_1   0.779562 0.371475 0.777422 -0.281615
C40   C     C_1   0.158232 0.563199 0.244780 0.302281
N6    N     N_1   0.220523 0.628371 0.222416 -0.281610

loop_
_geom_bond_atom_site_label_1
_geom_bond_atom_site_label_2
_ccdc_geom_bond_type
Cu1   O5    S    
C11   C12   A    
C31   C33   A    
C33   C36   A    
Cu1   Cu2   S    
C14   C16   A    
C1    O1    A    
C22   O6    A    
Cu2   N2    S    
C24   H4    S    
C21   O5    A    
C19   C20   A    
C23   H3    S    
C13   C15   A    
C1    C4    S    
C7    H10   S    
C25   H5    S    
C10   H7    S    
C2    O2    A    
C30   C40   S    
C8    H9    S    
C26   H6    S    
C9    H8    S    
C29   C31   A    
C3    C10   A    
C15   N2    A    
C30   C32   A    
C22   C35   S    
C9    C11   A    
C17   N2    A    
C5    H11   S    
C10   C12   A    
C18   N1    A    
C31   C35   A    
C4    C7    A    
C32   C36   A    
C17   H14   S    
C28   C30   A    
C17   C19   A    
C14   H2    S    
C24   C26   A    
C18   H13   S    
C2    C3    S    
C18   C20   A    
C1    O3    A    
C3    C8    A    
C39   N5    T    
C34   C35   A    
C2    O4    A    
C16   N1    A    
Cu1   O4    S    
C13   H1    S    
C37   N3    T    
C28   C37   S    
C22   O8    A    
Cu2   O3    S    
Cu1   N1    S    
C15   H16   S    
C40   N6    T    
C23   C25   A    
C27   C38   S    
C27   C29   A    
C5    C12   A    
C5    C7    A    
Cu2   O7    S    
C6    C11   A    
C21   C36   S    
C29   C39   S    
C16   H15   S    
C6    C8    A    
C6    H12   S    
C13   C20   A    
Cu2   O6    S    
C4    C9    A    
Cu2   O2    S    
Cu1   O1    S    
C26   C28   A    
C14   C19   A    
C24   C34   A    
C38   N4    T    
C21   O7    A    
Cu1   O8    S    
C23   C33   A    
C25   C27   A    
C32   C34   A    
