data_mof_unit_50624.cif
_audit_creation_date              2012-12-10T19:46:00-0500
_audit_creation_method            fapswitch 2.2
_symmetry_space_group_name_H-M    P1
_symmetry_Int_Tables_number       1
_space_group_crystal_system       triclinic
_cell_length_a                    10.431811
_cell_length_b                    14.935564
_cell_length_c                    14.162694
_cell_angle_alpha                 90.335334
_cell_angle_beta                  103.900525
_cell_angle_gamma                 90.163757
_cell_volume                      2141.93851058

loop_
_atom_site_label
_atom_site_type_symbol
_atom_type_description
_atom_site_fract_x
_atom_site_fract_y
_atom_site_fract_z
_atom_type_partial_charge
C1    C     C_R   0.501588 0.327725 0.499991 0.862505
C2    C     C_R   0.446715 0.429434 0.785512 0.019912
C3    C     C_R   0.599925 0.544100 0.123275 -0.289878
C4    C     C_R   0.446532 0.427630 0.884691 -0.285975
C5    C     C_R   0.500704 0.499370 0.053513 0.140784
C6    C     C_R   0.500473 0.499559 0.946702 0.140677
C7    C     C_R   0.255528 0.502189 0.459416 0.897010
C8    C     C_R   0.744153 0.500819 0.540627 0.895507
C9    C     C_2   0.112640 0.517934 0.437886 -0.071224
C10   C     C_2   0.887357 0.512259 0.563381 -0.061305
C11   C     C_2   0.070772 0.570075 0.502533 -0.216740
C12   C     C_R   0.502045 0.672382 0.500668 0.868058
C13   C     C_2   0.933030 0.570496 0.506805 -0.224218
C14   C     C_R   0.465811 0.090681 0.563044 -0.203138
C15   C     C_R   0.473851 0.909124 0.423169 -0.208950
C16   C     C_R   0.453077 0.182404 0.561299 -0.207829
C17   C     C_R   0.461034 0.817333 0.420388 -0.205962
C18   C     C_R   0.513805 0.232174 0.501411 -0.047516
C19   C     C_R   0.514622 0.768188 0.503666 -0.049575
C20   C     C_R   0.589195 0.191006 0.444270 -0.237897
C21   C     C_R   0.583170 0.810314 0.589552 -0.235922
C22   C     C_R   0.605580 0.098528 0.446560 0.110977
C23   C     C_R   0.543289 0.048661 0.507861 0.087537
C24   C     C_R   0.599183 0.902963 0.593356 0.112729
C25   C     C_3   0.981095 0.455704 0.639115 -0.424000
C26   C     C_3   0.913298 0.387576 0.692248 -0.328664
C27   C     C_3   0.014674 0.327987 0.758610 -0.911761
C28   C     C_3   0.013564 0.471826 0.354681 -0.409807
C29   C     C_3   0.073808 0.420181 0.282108 -0.354454
C30   C     C_3   0.966935 0.372425 0.205643 -0.896400
C31   C     C_3   0.685471 0.056309 0.381234 -0.433577
C32   C     C_3   0.816041 0.016952 0.439278 -0.349066
C33   C     C_3   0.900642 0.983974 0.372048 -0.879456
C34   C     C_R   0.544014 0.952033 0.508052 0.087766
C35   C     C_3   0.669766 0.946312 0.689393 -0.434634
C36   C     C_3   0.801610 0.989486 0.684811 -0.344876
C37   C     C_3   0.874888 0.025812 0.784113 -0.884961
C38   C     C_R   0.401762 0.454368 0.087621 -0.278244
C39   C     C_R   0.553922 0.571801 0.904814 -0.281672
C40   C     C_R   0.404027 0.454850 0.187242 0.012838
C41   C     C_R   0.553239 0.570473 0.805435 0.012284
C42   C     C_R   0.597273 0.543979 0.222051 0.024836
H1    H     H_    0.865577 0.609753 0.452168 0.158503
H2    H     H_    0.624942 0.770620 0.653315 0.139938
H3    H     H_    0.321803 0.419729 0.037921 0.131697
H4    H     H_    0.594515 0.629845 0.947843 0.131317
H5    H     H_    0.328801 0.418860 0.212447 0.116012
H6    H     H_    0.595063 0.626237 0.774520 0.119954
H7    H     H_    0.673849 0.578789 0.274632 0.115836
H8    H     H_    0.404495 0.373885 0.738906 0.123951
H9    H     H_    0.071484 0.289253 0.715313 0.257506
H10   H     H_    0.084046 0.369246 0.813817 0.261958
H11   H     H_    0.963194 0.280122 0.796773 0.255783
H12   H     H_    0.140339 0.602729 0.562501 0.173939
H13   H     H_    0.856338 0.423354 0.737694 0.244872
H14   H     H_    0.844893 0.344308 0.638489 0.217684
H15   H     H_    0.047156 0.418201 0.602026 0.222272
H16   H     H_    0.043477 0.501326 0.693789 0.215806
H17   H     H_    0.914014 0.322795 0.240694 0.262846
H18   H     H_    0.894905 0.421559 0.164983 0.267039
H19   H     H_    0.013022 0.336668 0.153337 0.248597
H20   H     H_    0.125888 0.467908 0.244247 0.235767
H21   H     H_    0.144692 0.369403 0.320851 0.222090
H22   H     H_    0.953080 0.424649 0.386614 0.220608
H23   H     H_    0.680442 0.578118 0.102374 0.130775
H24   H     H_    0.946338 0.523575 0.313787 0.210080
H25   H     H_    0.847058 0.931416 0.321844 0.261927
H26   H     H_    0.925947 0.040364 0.328933 0.259437
H27   H     H_    0.993682 0.955010 0.416121 0.249430
H28   H     H_    0.872376 0.068823 0.489146 0.218981
H29   H     H_    0.796166 0.959331 0.482728 0.228587
H30   H     H_    0.626659 0.003888 0.334196 0.201430
H31   H     H_    0.708472 0.107380 0.330766 0.200343
H32   H     H_    0.814200 0.077064 0.810150 0.263698
H33   H     H_    0.897671 0.970712 0.837821 0.258786
H34   H     H_    0.405939 0.369451 0.912386 0.132343
H35   H     H_    0.969093 0.057437 0.778191 0.247189
H36   H     H_    0.864865 0.939130 0.660003 0.218404
H37   H     H_    0.784199 0.046139 0.633196 0.229753
H38   H     H_    0.605294 0.996774 0.712119 0.201502
H39   H     H_    0.689806 0.895317 0.748006 0.197384
H40   H     H_    0.413177 0.051992 0.606311 0.135762
H41   H     H_    0.426501 0.947196 0.359458 0.138001
H42   H     H_    0.393508 0.214309 0.604789 0.141582
H43   H     H_    0.406741 0.784918 0.354090 0.155059
H44   H     H_    0.636446 0.231402 0.398850 0.147908
N1    N     N_R   0.500000 0.499980 0.252470 -0.085770
N2    N     N_R   0.500000 0.500020 0.747530 -0.088129
O1    O     O_R   0.500010 0.369070 0.579480 -0.624792
O2    O     O_R   0.499990 0.630930 0.420520 -0.616870
O3    O     O_R   0.500010 0.369060 0.420520 -0.617147
O4    O     O_R   0.499990 0.630940 0.579480 -0.626826
O5    O     O_R   0.317810 0.500010 0.549800 -0.616821
O6    O     O_R   0.682190 0.499990 0.450200 -0.623676
O7    O     O_R   0.317810 0.500000 0.390840 -0.617621
O8    O     O_R   0.682190 0.500000 0.609160 -0.613413
Zn1   Zn    Zn3+2 0.500000 0.500010 0.606140 0.920281
Zn2   Zn    Zn3+2 0.500000 0.499990 0.393860 0.922731

loop_
_geom_bond_atom_site_label_1
_geom_bond_atom_site_label_2
_ccdc_geom_bond_type
C40   H5    S    
C37   H32   S    
C29   H21   S    
C3    C42   A    
C28   H24   S    
C35   C36   S    
C8    O8    A    
C26   H13   S    
C35   H39   S    
O7    Zn2   S    
C39   C41   A    
C26   C27   S    
C17   H43   S    
C40   N1    A    
C12   O2    A    
C36   C37   S    
C19   C21   A    
C5    C6    S    
C31   H31   S    
O6    Zn2   S    
C35   H38   S    
C16   H42   S    
C15   C17   A    
C38   H3    S    
C2    H8    S    
C30   H18   S    
C2    N2    A    
C15   C34   A    
N2    Zn1   S    
C33   H27   S    
N1    Zn2   S    
C37   H33   S    
C1    O3    A    
C5    C38   A    
C30   H17   S    
C3    H23   S    
C25   H15   S    
C27   H9    S    
O4    Zn1   S    
C32   H29   S    
C7    O5    A    
C24   C35   S    
C22   C31   S    
C8    O6    A    
C4    C6    A    
C32   H28   S    
C25   C26   S    
C37   H35   S    
C10   C13   D    
C24   C34   A    
C20   H44   S    
C14   C23   A    
C2    C4    A    
C29   C30   S    
C21   H2    S    
C31   C32   S    
C23   C34   S    
O8    Zn1   S    
C1    C18   S    
C9    C11   D    
C11   H12   S    
C39   H4    S    
C28   H22   S    
C10   C25   S    
C16   C18   A    
C31   H30   S    
C20   C22   A    
C14   C16   A    
C21   C24   A    
C25   H16   S    
C14   H40   S    
O5    Zn1   S    
C13   H1    S    
C27   H10   S    
C33   H25   S    
C7    C9    S    
C41   N2    A    
C29   H20   S    
C28   C29   S    
C1    O1    A    
C6    C39   A    
C12   O4    A    
C3    C5    A    
C36   H37   S    
C26   H14   S    
C15   H41   S    
C27   H11   S    
C7    O7    A    
C32   C33   S    
C36   H36   S    
C38   C40   A    
C11   C13   S    
C12   C19   S    
C17   C19   A    
C41   H6    S    
C18   C20   A    
O3    Zn2   S    
C4    H34   S    
C42   H7    S    
C33   H26   S    
C8    C10   S    
C30   H19   S    
O1    Zn1   S    
C22   C23   A    
C42   N1    A    
O2    Zn2   S    
C9    C28   S    
