data_mof_unit_44732.cif
_audit_creation_date              2012-12-11T15:26:01-0500
_audit_creation_method            fapswitch 2.2
_symmetry_space_group_name_H-M    P1
_symmetry_Int_Tables_number       1
_space_group_crystal_system       triclinic
_cell_length_a                    24.775329
_cell_length_b                    17.155264
_cell_length_c                    15.62381
_cell_angle_alpha                 90.508118
_cell_angle_beta                  50.2077
_cell_angle_gamma                 90.731415
_cell_volume                      5101.97538424

loop_
_atom_site_label
_atom_site_type_symbol
_atom_type_description
_atom_site_fract_x
_atom_site_fract_y
_atom_site_fract_z
_atom_type_partial_charge
C1    C     C_R   0.352435 0.143259 0.754400 -0.095508
C2    C     C_2   0.303872 0.852414 0.984155 -0.193172
C3    C     C_2   0.361508 0.260489 0.845008 -0.195182
C4    C     C_2   0.696701 0.851385 0.015697 -0.195893
C5    C     C_2   0.138122 0.762049 0.160074 -0.205048
C6    C     C_2   0.804006 0.351902 0.983786 -0.198164
C7    C     C_2   0.862223 0.761247 0.843321 -0.204788
C8    C     C_2   0.196687 0.351661 0.015607 -0.199504
C9    C     C_2   0.691478 0.301140 0.141277 -0.110461
C10   C     C_2   0.234102 0.852389 0.045134 -0.104301
C11   C     C_2   0.309289 0.299503 0.860802 -0.111594
C12   C     C_R   0.667546 0.894588 0.196798 -0.034294
C13   C     C_2   0.766430 0.851060 0.956664 -0.102230
C14   C     C_2   0.191457 0.801467 0.141984 -0.105306
C15   C     C_2   0.734242 0.352289 0.044788 -0.101108
C16   C     C_2   0.809513 0.799901 0.860134 -0.107526
C17   C     C_2   0.266384 0.351189 0.956687 -0.099099
C18   C     C_R   0.616364 0.095645 0.591547 0.395695
C19   C     C_R   0.405561 0.861054 0.406989 0.442256
C20   C     C_R   0.384668 0.101101 0.409298 0.435766
C21   C     C_R   0.592206 0.860187 0.592787 0.464261
C22   C     C_R   0.116833 0.596455 0.590787 0.384449
C23   C     C_R   0.647876 0.143949 0.246642 -0.089584
C24   C     C_R   0.905570 0.359844 0.408114 0.442232
C25   C     C_R   0.884962 0.602037 0.409169 0.381573
C26   C     C_R   0.092804 0.360661 0.592724 0.462253
C27   C     C_R   0.689483 0.099636 0.408019 0.396082
C28   C     C_R   0.331445 0.860198 0.591897 0.456862
C29   C     C_R   0.311492 0.100947 0.592850 0.415505
C30   C     C_R   0.666968 0.859884 0.407641 0.469053
C31   C     C_R   0.190491 0.594591 0.407405 0.383108
C32   C     C_R   0.830924 0.360871 0.592943 0.449674
C33   C     C_R   0.811464 0.601079 0.592503 0.383625
C34   C     C_R   0.332298 0.893838 0.803166 -0.034329
C35   C     C_R   0.167199 0.360128 0.407570 0.465945
C36   C     C_R   0.557658 0.143489 0.246379 -0.176214
C37   C     C_R   0.421043 0.894657 0.804699 -0.083668
C38   C     C_R   0.442691 0.143443 0.754785 -0.169784
C39   C     C_R   0.578850 0.893803 0.195205 -0.103102
C40   C     C_R   0.057494 0.643827 0.247090 -0.168474
C41   C     C_R   0.921177 0.394338 0.804463 -0.086880
C42   C     C_R   0.942991 0.643786 0.753993 -0.165163
C43   C     C_R   0.078897 0.394048 0.195084 -0.097838
C44   C     C_R   0.385654 0.186317 0.784611 0.120420
C45   C     C_R   0.853143 0.643948 0.752805 -0.150937
C46   C     C_R   0.649029 0.875812 0.132805 0.074526
C47   C     C_R   0.614816 0.186810 0.217251 0.126399
C48   C     C_R   0.350911 0.876004 0.866990 0.072273
C49   C     C_R   0.886338 0.686995 0.782997 0.159549
C50   C     C_R   0.149060 0.376083 0.132682 0.087380
C51   C     C_R   0.114325 0.687438 0.218930 0.160441
C52   C     C_R   0.851051 0.375622 0.866706 0.086473
C53   C     C_R   0.686369 0.109123 0.499851 -0.135524
C54   C     C_R   0.353692 0.816004 0.498606 -0.207198
C55   C     C_R   0.316895 0.115691 0.501625 -0.185664
C56   C     C_R   0.167567 0.394712 0.196728 -0.056318
C57   C     C_R   0.644900 0.818219 0.500856 -0.242973
C58   C     C_R   0.187084 0.607686 0.498343 -0.077816
C59   C     C_R   0.853136 0.315704 0.500623 -0.199264
C60   C     C_R   0.817330 0.616940 0.501660 -0.085840
C61   C     C_R   0.145465 0.318738 0.500713 -0.237010
C62   C     C_R   0.258410 0.237347 0.550602 -0.235916
C63   C     C_R   0.699810 0.690504 0.453026 -0.246116
C64   C     C_R   0.811944 0.144566 0.401582 -0.228996
C65   C     C_R   0.276259 0.698596 0.594603 -0.246718
C66   C     C_R   0.755211 0.736153 0.555705 -0.188810
C67   C     C_R   0.147321 0.644529 0.248425 -0.146668
C68   C     C_R   0.198772 0.190414 0.454950 -0.247453
C69   C     C_R   0.310320 0.652310 0.394704 -0.181102
C70   C     C_R   0.771775 0.202216 0.600865 -0.252816
C71   C     C_R   0.714123 0.786704 0.553539 -0.069411
C72   C     C_R   0.241708 0.139549 0.454582 -0.068323
C73   C     C_R   0.351602 0.706628 0.395102 -0.137332
C74   C     C_R   0.729171 0.148822 0.601700 -0.132501
C75   C     C_R   0.217010 0.288031 0.549261 -0.052480
C76   C     C_R   0.742885 0.639967 0.452839 -0.083038
C77   C     C_R   0.852448 0.201435 0.400845 -0.114604
C78   C     C_R   0.832375 0.393581 0.802988 -0.057741
C79   C     C_R   0.234379 0.644056 0.594825 -0.141264
C80   C     C_R   0.686158 0.763471 0.503266 0.201774
C81   C     C_R   0.270470 0.163707 0.503363 0.159624
C82   C     C_R   0.327842 0.739174 0.496219 0.189592
C83   C     C_R   0.744128 0.128514 0.501148 0.200252
C84   C     C_R   0.186963 0.264095 0.502525 0.200173
C85   C     C_R   0.769633 0.663536 0.504953 0.210204
C86   C     C_R   0.826318 0.238789 0.500691 0.188680
C87   C     C_R   0.245861 0.629047 0.495762 0.183431
C88   C     C_2   0.638716 0.261280 0.158125 -0.195564
H1    H     H_    0.305754 0.158292 0.767013 0.153561
H2    H     H_    0.446868 0.901225 0.839455 0.127336
H3    H     H_    0.479848 0.160920 0.765976 0.136837
H4    H     H_    0.552744 0.898572 0.160858 0.131178
H5    H     H_    0.020652 0.661430 0.236107 0.139908
H6    H     H_    0.947142 0.400564 0.839030 0.125034
H7    H     H_    0.980113 0.661409 0.765154 0.135416
H8    H     H_    0.052883 0.399144 0.160624 0.125520
H9    H     H_    0.282423 0.255994 0.586048 0.129078
H10   H     H_    0.678157 0.673790 0.413312 0.140390
H11   H     H_    0.832305 0.118986 0.323105 0.176970
H12   H     H_    0.720274 0.901562 0.167229 0.165731
H13   H     H_    0.264499 0.712333 0.672557 0.167735
H14   H     H_    0.777756 0.754537 0.593581 0.122481
H15   H     H_    0.175540 0.173244 0.417839 0.139750
H16   H     H_    0.326572 0.636856 0.314477 0.206758
H17   H     H_    0.757900 0.218667 0.679536 0.172723
H18   H     H_    0.705170 0.844343 0.589221 0.144594
H19   H     H_    0.252447 0.082332 0.417135 0.145514
H20   H     H_    0.398494 0.726405 0.315567 0.197292
H21   H     H_    0.682248 0.130566 0.682030 0.201655
H22   H     H_    0.209201 0.346154 0.583072 0.140687
H23   H     H_    0.694506 0.159750 0.234455 0.116356
H24   H     H_    0.755451 0.583569 0.412667 0.146825
H25   H     H_    0.901567 0.218141 0.321718 0.188658
H26   H     H_    0.190446 0.620104 0.673999 0.201046
H27   H     H_    0.209941 0.877398 0.013466 0.135330
H28   H     H_    0.711706 0.284757 0.182950 0.125227
H29   H     H_    0.790212 0.876619 0.989364 0.135896
H30   H     H_    0.289834 0.282766 0.817661 0.129327
H31   H     H_    0.710145 0.377722 0.013251 0.132988
H32   H     H_    0.212143 0.784821 0.182870 0.134253
H33   H     H_    0.290179 0.376852 0.989312 0.134011
H34   H     H_    0.279517 0.899224 0.832829 0.164848
H35   H     H_    0.789821 0.783146 0.817363 0.133466
H36   H     H_    0.327260 0.826617 0.016874 0.149379
H37   H     H_    0.619247 0.277865 0.115252 0.145467
H38   H     H_    0.673769 0.825075 0.981772 0.149356
H39   H     H_    0.380335 0.277617 0.889086 0.146183
H40   H     H_    0.827320 0.325674 0.016381 0.145320
H41   H     H_    0.118236 0.778893 0.117908 0.144373
H42   H     H_    0.173734 0.325241 0.981775 0.147294
H43   H     H_    0.881248 0.778448 0.887087 0.144793
H44   H     H_    0.545129 0.052651 0.737493 0.310186
H45   H     H_    0.807168 0.659840 0.763782 0.125339
H46   H     H_    0.438845 0.909876 0.271516 0.314792
H47   H     H_    0.450951 0.060732 0.261033 0.302601
H48   H     H_    0.560312 0.904759 0.730003 0.310774
H49   H     H_    0.045709 0.555995 0.738271 0.310162
H50   H     H_    0.939030 0.405624 0.271069 0.313286
H51   H     H_    0.950736 0.561156 0.261123 0.306851
H52   H     H_    0.060708 0.405912 0.729747 0.309231
H53   H     H_    0.770834 0.139103 0.271438 0.292104
H54   H     H_    0.233188 0.835240 0.692783 0.319723
H55   H     H_    0.210487 0.104776 0.704157 0.326978
H56   H     H_    0.220290 0.401718 0.167168 0.157545
H57   H     H_    0.750519 0.801716 0.295587 0.321481
H58   H     H_    0.235823 0.549398 0.262794 0.327526
H59   H     H_    0.731712 0.342316 0.691239 0.321237
H60   H     H_    0.759131 0.557181 0.738681 0.322116
H61   H     H_    0.250662 0.301924 0.295366 0.324938
H62   H     H_    0.193259 0.660795 0.238449 0.119113
H63   H     H_    0.779597 0.398736 0.832596 0.158466
H64   H     H_    0.520721 0.161031 0.235565 0.143255
N1    N     N_R   0.388930 0.078160 0.705470 -0.037334
N2    N     N_R   0.419500 0.922160 0.443350 -0.138330
N3    N     N_R   0.419500 0.077840 0.443350 -0.137024
N4    N     N_R   0.580500 0.922160 0.556650 -0.140433
N5    N     N_R   0.080500 0.577840 0.556650 -0.121062
N6    N     N_R   0.919500 0.422160 0.443350 -0.132059
N7    N     N_R   0.919500 0.577840 0.443350 -0.124432
N8    N     N_R   0.080500 0.422160 0.556650 -0.136611
N9    N     N_R   0.626210 0.077590 0.443410 -0.093277
N10   N     N_R   0.373790 0.922410 0.556590 -0.090644
N11   N     N_R   0.373790 0.077590 0.556590 -0.093827
N12   N     N_R   0.611070 0.921840 0.294530 -0.051829
N13   N     N_R   0.626210 0.922410 0.443410 -0.087419
N14   N     N_R   0.126210 0.577590 0.443410 -0.119980
N15   N     N_R   0.873790 0.422410 0.556590 -0.096684
N16   N     N_R   0.873790 0.577590 0.556590 -0.123684
N17   N     N_R   0.126210 0.422410 0.443410 -0.095984
N18   N     N_R   0.554800 0.077270 0.294580 -0.056819
N19   N     N_R   0.445200 0.922730 0.705420 -0.066899
N20   N     N_R   0.445200 0.077270 0.705420 -0.057699
N21   N     N_R   0.554800 0.922730 0.294580 -0.064786
N22   N     N_R   0.054800 0.577270 0.294580 -0.048482
N23   N     N_R   0.611070 0.078160 0.294530 -0.036884
N24   N     N_R   0.945200 0.422730 0.705420 -0.060804
N25   N     N_R   0.945200 0.577270 0.705420 -0.049376
N26   N     N_R   0.054800 0.422730 0.294580 -0.058987
N27   N     N_R   0.388930 0.921840 0.705470 -0.052069
N28   N     N_R   0.888930 0.578160 0.705470 -0.048941
N29   N     N_R   0.111070 0.421840 0.294530 -0.053219
N30   N     N_R   0.111070 0.578160 0.294530 -0.050712
N31   N     N_R   0.888930 0.421840 0.705470 -0.052170
N32   N     N_R   0.580500 0.077840 0.556650 -0.128886
Ni1   Ni    Ni4+2 0.382710 0.000000 0.629850 0.267562
Ni2   Ni    Ni4+2 0.617290 0.000000 0.370150 0.272373
Ni3   Ni    Ni4+2 0.882710 0.500000 0.629850 0.220516
Ni4   Ni    Ni4+2 0.117290 0.500000 0.370150 0.224575
Ni5   Ni    Ni4+2 0.513020 0.000000 0.629850 0.184056
Ni6   Ni    Ni4+2 0.486980 0.000000 0.370150 0.179053
Ni7   Ni    Ni4+2 0.013020 0.500000 0.629850 0.186956
Ni8   Ni    Ni4+2 0.986980 0.500000 0.370150 0.184635
O1    O     O_3   0.592688 0.075878 0.695708 -0.788754
O2    O     O_3   0.268702 0.854381 0.698390 -0.775672
O3    O     O_3   0.250517 0.091327 0.700999 -0.756015
O4    O     O_3   0.728018 0.850499 0.299895 -0.761533
O5    O     O_3   0.250298 0.572701 0.303690 -0.766413
O6    O     O_3   0.767281 0.357528 0.698610 -0.784477
O7    O     O_3   0.748656 0.587562 0.697253 -0.733864
O8    O     O_3   0.228114 0.350689 0.299712 -0.768253
O9    O     O_3   0.425365 0.856390 0.302597 -0.775345
O10   O     O_3   0.406187 0.089658 0.304339 -0.753686
O11   O     O_3   0.570429 0.851612 0.698041 -0.747114
O12   O     O_3   0.092843 0.580440 0.696125 -0.788845
O13   O     O_3   0.926243 0.352511 0.303386 -0.775795
O14   O     O_3   0.906306 0.590733 0.304301 -0.758052
O15   O     O_3   0.071761 0.352750 0.697601 -0.753418
O16   O     O_3   0.748955 0.086889 0.300586 -0.745305

loop_
_geom_bond_atom_site_label_1
_geom_bond_atom_site_label_2
_ccdc_geom_bond_type
N24   N31   A    
C43   N26   A    
C65   C79   A    
C20   N3    A    
C64   C77   A    
C29   N11   A    
C26   O15   S    
C68   H15   S    
C65   H13   S    
C74   C83   A    
C39   N21   A    
C58   C87   S    
N22   N30   A    
C74   H21   S    
C79   C87   A    
C28   N10   A    
C4    C46   S    
C21   C57   A    
C88   H37   S    
C37   H2    S    
N14   Ni4   S    
C31   C58   A    
N3    Ni6   S    
C26   C61   A    
C78   N31   A    
C63   H10   S    
N12   Ni2   S    
C9    C88   D    
C24   N6    A    
C75   C84   A    
C23   N23   A    
C63   C76   A    
C33   O7    S    
C42   N25   A    
C6    H40   S    
C30   C57   A    
N21   Ni6   S    
C19   O9    S    
N7    N16   A    
N19   Ni5   S    
C36   C47   A    
C27   O16   S    
C4    C13   D    
C66   H14   S    
N25   Ni7   S    
H57   O4    S    
C32   O6    S    
C18   C53   A    
C6    C15   D    
N29   Ni4   S    
C64   H11   S    
C30   O4    S    
C41   H6    S    
C70   C74   A    
C28   O2    S    
N8    N17   A    
C72   H19   S    
C69   C73   A    
C25   C60   A    
C18   N32   A    
C55   C81   S    
C40   H5    S    
C41   C52   A    
C7    H43   S    
C72   C81   A    
C45   N28   A    
C68   C72   A    
C63   C80   A    
N4    Ni5   S    
C5    H41   S    
C42   C49   A    
N2    Ni6   S    
N15   Ni3   S    
C34   H34   S    
N16   Ni3   S    
C67   H62   S    
C57   C80   S    
N19   N27   A    
C34   N27   A    
C66   C85   A    
C20   C55   A    
C77   H25   S    
C71   C80   A    
H50   O13   S    
N2    N10   A    
C35   O8    S    
H47   O10   S    
N18   N23   A    
C3    C44   S    
C12   H12   S    
C23   C47   A    
C42   H7    S    
C68   C84   A    
C7    C49   S    
C54   C82   S    
C12   C46   A    
C53   C83   S    
C10   C14   S    
C28   C54   A    
C25   N7    A    
C36   H64   S    
N24   Ni7   S    
C51   C67   A    
C29   C55   A    
C2    C48   S    
C29   O3    S    
C38   H3    S    
C61   C84   S    
C50   C56   A    
H51   O14   S    
N5    Ni7   S    
C64   C83   A    
C38   C44   A    
N9    Ni2   S    
N28   Ni3   S    
N31   Ni3   S    
C12   N12   A    
C62   H9    S    
N26   Ni8   S    
C71   H18   S    
C1    C44   A    
C66   C71   A    
C31   N14   A    
C45   C49   A    
N6    Ni8   S    
C76   H24   S    
N25   N28   A    
H55   O3    S    
C43   H8    S    
H54   O2    S    
N12   N21   A    
C35   C61   A    
N30   Ni4   S    
C37   C48   A    
C1    N1    A    
C5    C14   D    
C39   C46   A    
C19   C54   A    
C17   H33   S    
C7    C16   D    
C22   N5    A    
C62   C81   A    
C77   C86   A    
C33   C60   A    
C14   H32   S    
C8    H42   S    
H44   O1    S    
C35   N17   A    
N6    N15   A    
C79   H26   S    
C33   N16   A    
C34   C48   A    
C22   O12   S    
C21   O11   S    
C70   C86   A    
H52   O15   S    
C8    C50   S    
C39   H4    S    
C31   O5    S    
C78   H63   S    
H46   O9    S    
C26   N8    A    
C69   H16   S    
C11   C17   S    
C75   H22   S    
C1    H1    S    
C24   O13   S    
C9    H28   S    
C36   N18   A    
N7    Ni8   S    
C16   H35   S    
N13   Ni2   S    
N8    Ni7   S    
C43   C50   A    
C73   H20   S    
C70   H17   S    
C69   C87   A    
N5    N14   A    
C22   C58   A    
N10   Ni1   S    
C13   H29   S    
C60   C85   S    
C27   C53   A    
H60   O7    S    
C38   N20   A    
N27   Ni1   S    
H49   O12   S    
C2    H36   S    
N20   Ni5   S    
C40   C51   A    
C23   H23   S    
N18   Ni6   S    
C45   H45   S    
C8    C17   D    
C4    H38   S    
N11   Ni1   S    
N3    N11   A    
C47   C88   S    
H58   O5    S    
C13   C16   S    
C59   C86   S    
C20   O10   S    
C27   N9    A    
N23   Ni2   S    
C40   N22   A    
C65   C82   A    
N1    Ni1   S    
N4    N13   A    
N9    N32   A    
C24   C59   A    
N1    N20   A    
C21   N4    A    
C15   H31   S    
C73   C82   A    
C3    H39   S    
H53   O16   S    
C9    C15   S    
C62   C75   A    
C37   N19   A    
N26   N29   A    
C3    C11   D    
H61   O8    S    
C41   N24   A    
C56   H56   S    
C52   C78   A    
N17   Ni4   S    
C56   N29   A    
C32   N15   A    
C19   N2    A    
N32   Ni5   S    
C5    C51   S    
H59   O6    S    
C30   N13   A    
C32   C59   A    
C6    C52   S    
C11   H30   S    
C76   C85   A    
H48   O11   S    
C10   H27   S    
C25   O14   S    
C67   N30   A    
N22   Ni8   S    
C18   O1    S    
C2    C10   D    
