data_mof_unit_25004.cif
_audit_creation_date              2012-12-10T17:02:03-0500
_audit_creation_method            fapswitch 2.2
_symmetry_space_group_name_H-M    P1
_symmetry_Int_Tables_number       1
_space_group_crystal_system       triclinic
_cell_length_a                    10.817576
_cell_length_b                    11.048233
_cell_length_c                    9.874502
_cell_angle_alpha                 111.684221
_cell_angle_beta                  98.966877
_cell_angle_gamma                 90.048262
_cell_volume                      1081.03823029

loop_
_atom_site_label
_atom_site_type_symbol
_atom_type_description
_atom_site_fract_x
_atom_site_fract_y
_atom_site_fract_z
_atom_type_partial_charge
C1    C     C_R   0.491344 0.253900 0.440243 0.861474
C2    C     C_R   0.081401 0.613756 0.615561 0.052872
C3    C     C_R   0.128327 0.511113 0.502685 -0.118619
C4    C     C_R   0.045200 0.415161 0.388000 0.161469
C5    C     C_R   0.917611 0.419598 0.389433 -0.205940
C6    C     C_R   0.870697 0.515800 0.502097 -0.140820
C7    C     C_2   0.487494 0.114117 0.406521 -0.375389
C8    C     C_2   0.504662 0.069659 0.516234 -0.152273
C9    C     C_2   0.515227 0.885869 0.593493 -0.369733
C10   C     C_2   0.500553 0.930330 0.483779 -0.146768
C11   C     C_2   0.506847 0.512423 0.082079 0.014590
C12   C     C_R   0.262517 0.503817 0.501352 0.802509
C13   C     C_2   0.490423 0.490363 0.918571 0.009372
C14   C     C_R   0.509453 0.746101 0.559758 0.842712
C15   C     C_R   0.737251 0.505980 0.500914 0.796231
C16   C     C_R   0.160307 0.715964 0.727923 -0.187347
C17   C     C_R   0.111700 0.811076 0.841408 -0.187346
C18   C     C_R   0.982465 0.812662 0.840978 0.067521
C19   C     C_R   0.902928 0.719298 0.723336 -0.213028
C20   C     C_R   0.950739 0.616007 0.614169 0.083692
Cu1   Cu    Cu3+1 0.521920 0.521810 0.644910 0.933895
Cu2   Cu    Cu3+1 0.478080 0.478190 0.355090 0.935530
H1    H     H_    0.470697 0.047220 0.291602 0.145798
H2    H     H_    0.420493 0.416790 0.841743 0.142309
H3    H     H_    0.573990 0.588769 0.159506 0.137813
H4    H     H_    0.260077 0.724657 0.730605 0.165110
H5    H     H_    0.175170 0.884847 0.928649 0.131551
H6    H     H_    0.803341 0.727463 0.719724 0.138322
H7    H     H_    0.853604 0.345308 0.303322 0.159406
H8    H     H_    0.484700 0.863655 0.368694 0.178501
H9    H     H_    0.521389 0.136332 0.631321 0.178519
H10   H     H_    0.531210 0.952758 0.708419 0.141236
N1    N     N_2   0.445130 0.445430 0.137370 -0.133193
N2    N     N_2   0.554930 0.554500 0.862630 -0.142725
O1    O     O_R   0.511700 0.332330 0.577400 -0.577507
O2    O     O_R   0.474680 0.295500 0.332650 -0.581616
O3    O     O_R   0.338160 0.518420 0.622400 -0.593206
O4    O     O_R   0.301140 0.481590 0.377650 -0.562850
O5    O     O_R   0.525320 0.704500 0.667350 -0.591703
O6    O     O_R   0.488300 0.667670 0.422600 -0.581440
O7    O     O_R   0.698860 0.518410 0.622350 -0.573405
O8    O     O_R   0.661840 0.481580 0.377600 -0.583529
C21   C     C_3   0.089492 0.305311 0.264107 -0.833231
H11   H     H_    0.012108 0.232490 0.194866 0.239486
H12   H     H_    0.126694 0.345068 0.189590 0.243672
H13   H     H_    0.162431 0.253342 0.309474 0.221371
C22   C     C_3   0.647702 0.657335 0.958461 -0.517048
H14   H     H_    0.691180 0.700813 0.891496 0.226824
H15   H     H_    0.602876 0.736210 0.038970 0.162418
H16   H     H_    0.723182 0.617374 0.016759 0.171784
C23   C     C_3   0.358758 0.336817 0.040372 -0.558615
H17   H     H_    0.320003 0.288807 0.106468 0.226402
H18   H     H_    0.279281 0.371764 0.981680 0.170366
H19   H     H_    0.408175 0.262800 0.960165 0.161090
C24   C     C_R   0.929551 0.906304 0.966425 0.100029
C25   C     C_R   0.983039 0.925873 0.112863 -0.155889
C26   C     C_R   0.925797 0.002872 0.230803 -0.134721
C27   C     C_R   0.815340 0.061830 0.204029 -0.127799
C28   C     C_R   0.762864 0.045485 0.059397 -0.146489
C29   C     C_R   0.819405 0.968131 0.941029 -0.169684
H20   H     H_    0.066764 0.878247 0.135695 0.128883
H21   H     H_    0.966684 0.016144 0.342990 0.138323
H22   H     H_    0.770854 0.120836 0.295416 0.131624
H23   H     H_    0.677747 0.091953 0.038864 0.134247
H24   H     H_    0.776570 0.955689 0.829649 0.124958

loop_
_geom_bond_atom_site_label_1
_geom_bond_atom_site_label_2
_ccdc_geom_bond_type
C9    C14   S    
C23   H17   S    
Cu1   O1    S    
C4    C21   S    
C2    C16   A    
N1    C23   S    
C6    C20   A    
C9    C10   D    
C10   H8    S    
C15   O8    A    
C19   C20   A    
Cu1   O5    S    
C11   N1    D    
C24   C25   A    
C23   H19   S    
Cu2   O6    S    
C17   C18   A    
C26   C27   A    
C28   C29   A    
C22   H15   S    
Cu1   Cu2   S    
C16   H4    S    
C19   H6    S    
C11   C13   S    
C1    O1    A    
C28   H23   S    
Cu2   O8    S    
C18   C24   S    
C24   C29   A    
Cu1   O7    S    
C13   H2    S    
C29   H24   S    
C2    C3    A    
C22   H16   S    
C5    H7    S    
C21   H11   S    
C12   O4    A    
C5    C6    A    
C14   O5    A    
C21   H13   S    
C7    H1    S    
C27   C28   A    
C11   H3    S    
C14   O6    A    
C3    C4    A    
C17   H5    S    
C27   H22   S    
C7    C8    D    
Cu1   O3    S    
C25   C26   A    
C15   O7    A    
C8    C10   S    
C18   C19   A    
C12   O3    A    
C3    C12   S    
Cu2   N1    S    
C25   H20   S    
C4    C5    A    
C13   N2    D    
N2    C22   S    
C9    H10   S    
C26   H21   S    
C6    C15   S    
C1    C7    S    
C8    H9    S    
C2    C20   A    
C21   H12   S    
Cu1   N2    S    
Cu2   O2    S    
C22   H14   S    
C1    O2    A    
C16   C17   A    
C23   H18   S    
Cu2   O4    S    
