data_mof_unit_15760.cif
_audit_creation_date              2013-03-05T15:45:34-0500
_audit_creation_method            fapswitch 2.2
_symmetry_space_group_name_H-M    P1
_symmetry_Int_Tables_number       1
_space_group_crystal_system       triclinic
_cell_length_a                    27.519596
_cell_length_b                    10.677478
_cell_length_c                    9.987272
_cell_angle_alpha                 91.608316
_cell_angle_beta                  90.600966
_cell_angle_gamma                 89.858379
_cell_volume                      2933.33438759

loop_
_atom_site_label
_atom_site_type_symbol
_atom_site_description
_atom_site_fract_x
_atom_site_fract_y
_atom_site_fract_z
_atom_type_partial_charge
O1    O     O_R   0.499990 0.319060 0.613040 -0.602172
O2    O     O_R   0.500010 0.319100 0.386900 -0.599989
C1    C     C_R   0.499554 0.262399 0.497546 0.930098
O3    O     O_R   0.428750 0.500000 0.613050 -0.574779
O4    O     O_R   0.428760 0.500040 0.386920 -0.615125
C2    C     C_R   0.405531 0.498645 0.499171 0.918804
Zn1   Zn    Zn3+2 0.499990 0.499970 0.650990 1.031666
Zn2   Zn    Zn3+2 0.500010 0.500030 0.349010 0.996300
O5    O     O_R   0.499990 0.680900 0.613100 -0.624903
O6    O     O_R   0.500010 0.680940 0.386960 -0.616000
O7    O     O_R   0.571240 0.499960 0.613080 -0.589414
O8    O     O_R   0.571250 0.500000 0.386950 -0.612056
C3    C     C_R   0.503819 0.736964 0.502273 0.953205
C4    C     C_R   0.594379 0.499424 0.500626 0.928151
C5    C     C_R   0.177618 0.368617 0.456398 0.554045
O9    O     O_2   0.203839 0.272466 0.504510 -0.511486
N1    N     N_R   0.199466 0.481079 0.435030 -0.358832
C6    C     C_R   0.174670 0.578416 0.379907 0.526933
C7    C     C_R   0.280808 0.492295 0.345353 -0.088539
C8    C     C_R   0.330637 0.494379 0.362964 -0.171518
C9    C     C_R   0.320907 0.493571 0.605774 -0.031973
C10   C     C_R   0.270427 0.494153 0.585515 -0.153866
C11   C     C_R   0.250655 0.491819 0.456010 0.300201
C12   C     C_R   0.101494 0.453419 0.376478 -0.055467
C13   C     C_R   0.128227 0.352384 0.426316 -0.100291
C14   C     C_R   0.106067 0.235299 0.434200 -0.181935
C15   C     C_R   0.125269 0.565823 0.347981 -0.018075
C16   C     C_R   0.351851 0.494729 0.492181 -0.058907
H1    H     H_    0.246195 0.492496 0.670358 0.141592
H2    H     H_    0.127803 0.153158 0.454905 0.242144
C17   C     C_R   0.647835 0.489130 0.498365 -0.118544
C18   C     C_R   0.976080 0.331377 0.403883 0.083726
C19   C     C_R   0.973461 0.549276 0.328673 0.063132
C20   C     C_R   0.949392 0.441406 0.375400 0.075283
C21   C     C_R   0.951752 0.232940 0.465017 -0.177691
C22   C     C_R   0.901495 0.231703 0.479259 -0.048079
C23   C     C_R   0.874333 0.341365 0.452492 -0.044101
C24   C     C_R   0.898830 0.446752 0.402209 -0.050179
C25   C     C_R   0.873135 0.559572 0.382858 -0.030587
C26   C     C_R   0.823493 0.564878 0.408370 0.637994
N2    N     N_R   0.800409 0.462985 0.456041 -0.323074
C27   C     C_R   0.824388 0.354072 0.482130 0.672344
C28   C     C_R   0.718415 0.432477 0.364816 -0.057829
C29   C     C_R   0.668525 0.443065 0.379286 -0.229578
C30   C     C_R   0.678248 0.524512 0.608176 -0.167866
C31   C     C_R   0.729272 0.514913 0.595733 0.414749
C32   C     C_R   0.749018 0.468930 0.473277 0.154922
O10   O     O_2   0.799796 0.261143 0.539605 -0.477367
C33   C     C_R   0.027240 0.328995 0.386464 -0.066676
C34   C     C_R   0.050866 0.442593 0.356744 0.012334
C35   C     C_R   0.024337 0.546118 0.308875 0.065653
C36   C     C_R   0.056866 0.220302 0.402603 0.354415
H3    H     H_    0.645387 0.414613 0.295336 0.192525
H4    H     H_    0.971632 0.155489 0.505093 0.193486
O11   O     O_2   0.197852 0.686638 0.355915 -0.518624
C37   C     C_R   0.100107 0.658840 0.279780 -0.161990
H5    H     H_    0.352497 0.494894 0.273461 0.181990
H6    H     H_    0.265459 0.489421 0.244985 0.148090
H7    H     H_    0.119527 0.738617 0.242270 0.211126
C38   C     C_R   0.947081 0.662263 0.321029 -0.100512
C39   C     C_R   0.897636 0.666352 0.343370 -0.095582
O12   O     O_2   0.798215 0.671002 0.386172 -0.515790
C40   C     C_R   0.050727 0.644752 0.249590 -0.042957
H8    H     H_    0.964442 0.750898 0.304424 0.192335
H9    H     H_    0.878998 0.755282 0.334249 0.218106
C41   C     C_2   0.523510 0.930084 0.400506 -0.207645
C42   C     C_2   0.516681 0.865757 0.510196 -0.227464
H10   H     H_    0.523965 0.886793 0.300711 0.176265
H11   H     H_    0.520150 0.910472 0.609106 0.180591
C43   C     C_2   0.529257 0.063444 0.417407 -0.140110
C44   C     C_2   0.495203 0.130140 0.487047 0.212562
C45   C     C_2   0.525923 0.576955 0.927760 -0.055522
N3    N     N_2   0.500520 0.501330 0.852150 -0.178763
H12   H     H_    0.549716 0.642924 0.880348 0.161635
H13   H     H_    0.475899 0.443397 0.895414 0.193047
C46   C     C_2   0.523882 0.581253 0.078172 -0.103344
N4    N     N_2   0.500540 0.501360 0.147810 -0.190041
H14   H     H_    0.543890 0.655195 0.130905 0.156797
H15   H     H_    0.483721 0.427125 0.099438 0.176484
C47   C     C_2   0.338144 0.490400 0.746442 0.450441
H16   H     H_    0.321164 0.551092 0.821456 0.065629
O13   O     O_2   0.368203 0.413765 0.782189 -0.555887
C48   C     C_2   0.657471 0.576841 0.733734 0.541491
H17   H     H_    0.659907 0.676561 0.756510 0.063790
O14   O     O_2   0.639172 0.507770 0.814398 -0.522207
S1    S     S_3+6 0.767437 0.563545 0.733528 0.066770
O15   O     O_2   0.819984 0.530409 0.713426 -0.285224
O16   O     O_2   0.762971 0.703243 0.752328 -0.278747
O17   O     O_3   0.748242 0.495028 0.873045 -0.506498
H18   H     H_    0.766577 0.536992 0.947416 0.399916
C49   C     C_2   0.030936 0.721949 0.140254 0.440305
H19   H     H_    0.048031 0.810088 0.117285 0.137142
O18   O     O_2   0.997138 0.684632 0.069780 -0.524394
C50   C     C_2   0.575355 0.114871 0.364739 0.400084
H20   H     H_    0.595033 0.061759 0.288417 0.091422
O19   O     O_2   0.593089 0.212128 0.409461 -0.577062
S2    S     S_3+6 0.436967 0.071712 0.531882 0.052616
O20   O     O_2   0.419721 0.972854 0.432420 -0.232616
O21   O     O_2   0.439670 0.016569 0.668637 -0.303784
O22   O     O_3   0.396130 0.189195 0.534560 -0.519538
H21   H     H_    0.400532 0.231410 0.623314 0.390062
C51   C     C_2   0.736504 0.384315 0.232894 0.497646
H22   H     H_    0.710640 0.358188 0.154176 0.097959
O23   O     O_2   0.779713 0.373081 0.209084 -0.545815
C52   C     C_2   0.880229 0.111895 0.521246 0.583221
H23   H     H_    0.896637 0.062167 0.603629 0.060753
O24   O     O_2   0.846954 0.062780 0.457458 -0.464974
S3    S     S_3+6 0.039760 0.067082 0.346157 -0.006534
O25   O     O_2   0.031182 0.986141 0.464307 -0.286606
O26   O     O_2   0.994819 0.069335 0.259322 -0.292112
O27   O     O_3   0.085611 0.003765 0.256995 -0.557683
H24   H     H_    0.088773 0.057804 0.178551 0.362949

loop_
_geom_bond_atom_site_label_1
_geom_bond_atom_site_label_2
_geom_bond_distance
_ccdc_geom_bond_type
C41   H10   1.087000 S    
C10   H1    1.084322 S    
N2    C27   1.365764 A    
C7    C11   1.389082 A    
C21   C22   1.391974 A    
C12   C15   1.405883 A    
C4    C17   1.475268 S    
C45   C46   1.503249 S    
C15   C37   1.398042 A    
S2    O20   1.503304 D    
Zn1   N3    2.008585 S    
C41   C43   1.438119 S    
C30   C31   1.414157 A    
Zn1   O7    2.000886 S    
C52   O24   1.220991 D    
N1    C11   1.426438 S    
C22   C23   1.417849 A    
C43   C50   1.490375 S    
C46   H14   1.084699 S    
O4    C2    1.296813 A    
O7    C4    1.296736 A    
S1    O16   1.503052 D    
C5    C13   1.399069 A    
C5    O9    1.349949 S    
C26   O12   1.350557 S    
S3    O25   1.503043 D    
C5    N1    1.367358 A    
C23   C27   1.414385 A    
O5    C3    1.278492 A    
C29   H3    1.084519 S    
C2    C16   1.478794 S    
C7    C8    1.380820 A    
S3    O26   1.503605 D    
C43   C44   1.360776 D    
C50   O19   1.219816 D    
C41   C42   1.324534 D    
O1    Zn1   1.958030 S    
C9    C10   1.401776 A    
C21   H4    1.074781 S    
N3    H13   1.025493 S    
C30   C48   1.478420 S    
O3    Zn1   1.992873 S    
S2    O21   1.503473 D    
N1    C6    1.367355 A    
N4    H15   1.025445 S    
C7    H6    1.083344 S    
C12   C34   1.409667 A    
C25   C39   1.394532 A    
C17   C29   1.400174 A    
C18   C21   1.404928 A    
C35   C40   1.426533 A    
C12   C13   1.404046 A    
C45   H12   1.084713 S    
C49   H19   1.084521 S    
S1    O15   1.502050 D    
C45   N3    1.291694 D    
C8    C16   1.410757 A    
C13   C14   1.396907 A    
S1    O17   1.682379 S    
C38   C39   1.381572 A    
O1    C1    1.287338 A    
C18   C20   1.417984 A    
C1    C44   1.418398 S    
C28   C29   1.386064 A    
C23   C24   1.419680 A    
C14   C36   1.395616 A    
C49   O18   1.221321 D    
C44   S2    1.787133 S    
C48   H17   1.084611 S    
Zn2   O8    1.992876 S    
C33   C36   1.428535 A    
C34   C35   1.414851 A    
N2    C32   1.427555 S    
C37   C40   1.396444 A    
C50   H20   1.085700 S    
C27   O10   1.347408 S    
C46   N4    1.292069 D    
C51   O23   1.220046 D    
C6    O11   1.349848 S    
C47   O13   1.219913 D    
C26   N2    1.361142 A    
C48   O14   1.220738 D    
C9    C16   1.425993 A    
O8    C4    1.295886 A    
C14   H2    1.083879 S    
C19   C38   1.409962 A    
Zn2   N4    2.010095 S    
O3    C2    1.298437 A    
C25   C26   1.393043 A    
S2    O22   1.681985 S    
C3    C42   1.420697 S    
Zn1   O5    1.978985 S    
C31   C32   1.418092 A    
O27   H24   0.990622 S    
C22   C52   1.481130 S    
C20   C24   1.420428 A    
O2    Zn2   1.978986 S    
C6    C15   1.399042 A    
C47   H16   1.085434 S    
O6    C3    1.286184 A    
O4    Zn2   2.000883 S    
S3    O27   1.681581 S    
C19   C35   1.416195 A    
C52   H23   1.085513 S    
C37   H7    1.084391 S    
C38   H8    1.078949 S    
O2    C1    1.275036 A    
C8    H5    1.082848 S    
C28   C51   1.490843 S    
C24   C25   1.412278 A    
C9    C47   1.479348 S    
O22   H21   0.989533 S    
C19   C20   1.422513 A    
C51   H22   1.086009 S    
C18   C33   1.420481 A    
C39   H9    1.083731 S    
C36   S3    1.778305 S    
Zn2   O6    1.958029 S    
C33   C34   1.417817 A    
C17   C30   1.415995 A    
C40   C49   1.484696 S    
C10   C11   1.397522 A    
C42   H11   1.088420 S    
O17   H18   0.990772 S    
C28   C32   1.411710 A    
C31   S1    1.788557 S    
