data_mof_unit_49198.cif
_audit_creation_date              2012-12-11T17:17:04-0500
_audit_creation_method            fapswitch 2.2
_symmetry_space_group_name_H-M    P1
_symmetry_Int_Tables_number       1
_space_group_crystal_system       triclinic
_cell_length_a                    6.950489
_cell_length_b                    13.26973
_cell_length_c                    14.824716
_cell_angle_alpha                 98.68152
_cell_angle_beta                  89.607155
_cell_angle_gamma                 90.321574
_cell_volume                      1351.58811261

loop_
_atom_site_label
_atom_site_type_symbol
_atom_type_description
_atom_site_fract_x
_atom_site_fract_y
_atom_site_fract_z
_atom_type_partial_charge
O1    O     O_R   0.354890 0.151580 0.148210 -0.538799
O2    O     O_R   0.645110 0.848420 0.851790 -0.538510
O3    O     O_R   0.682370 0.152980 0.336770 -0.547341
O4    O     O_R   0.317630 0.847020 0.663230 -0.539333
O5    O     O_R   0.854980 0.348430 0.351800 -0.534547
O6    O     O_R   0.145020 0.651570 0.648200 -0.527552
C1    C     C_R   0.512922 0.128185 0.363609 0.705954
C2    C     C_R   0.487186 0.871692 0.636318 0.711098
O7    O     O_R   0.684450 0.139580 0.148000 -0.538621
O8    O     O_R   0.315550 0.860420 0.852000 -0.539408
O9    O     O_R   0.857080 0.334940 0.161680 -0.538600
O10   O     O_R   0.142920 0.665060 0.838320 -0.538876
C3    C     C_R   0.515703 0.112683 0.113979 0.722105
C4    C     C_R   0.484297 0.887315 0.886023 0.721593
O11   O     O_R   0.352790 0.165070 0.338330 -0.536077
O12   O     O_R   0.647210 0.834930 0.661670 -0.543968
O13   O     O_3   0.522170 0.314120 0.254710 -0.365883
O14   O     O_3   0.477830 0.685880 0.745290 -0.365908
V1    V     V_3+5 0.796120 0.238110 0.249130 1.451026
V2    V     V_3+5 0.203880 0.761890 0.750870 1.464891
O15   O     O_R   0.186930 0.347040 0.163240 -0.543442
O16   O     O_R   0.813070 0.652960 0.836760 -0.543315
C5    C     C_R   0.018740 0.368630 0.133718 0.766170
C6    C     C_R   0.981135 0.631602 0.866436 0.766609
O17   O     O_R   0.184850 0.360440 0.352010 -0.533327
O18   O     O_R   0.815150 0.639560 0.647990 -0.539282
C7    C     C_R   0.015721 0.387397 0.385959 0.757850
C8    C     C_R   0.984273 0.612604 0.614039 0.758820
V3    V     V_3+5 0.296410 0.261900 0.250880 1.460525
V4    V     V_3+5 0.703590 0.738100 0.749120 1.449353
O19   O     O_3   0.020490 0.185890 0.245290 -0.375417
O20   O     O_3   0.979510 0.814110 0.754710 -0.375771
C9    C     C_1   0.005001 0.466959 0.466363 -0.144300
C10   C     C_1   0.994976 0.533043 0.533634 -0.143080
C11   C     C_3   0.122313 0.576014 0.019869 0.314674
C12   C     C_3   0.877024 0.424589 0.980399 0.315110
C13   C     C_3   0.954675 0.553477 0.082639 0.142242
C14   C     C_3   0.044671 0.447130 0.917734 0.141111
C15   C     C_3   0.009689 0.439308 0.063681 -0.159051
C16   C     C_3   0.989670 0.561194 0.936647 -0.158541
C17   C     C_3   0.180368 0.462749 0.001815 -0.268114
C18   C     C_3   0.819004 0.537843 0.998520 -0.265050
H1    H     H_    0.328265 0.433297 0.006221 0.149035
H2    H     H_    0.670974 0.567360 0.994598 0.149019
C19   C     C_3   0.335201 0.985305 0.451092 -0.172168
C20   C     C_3   0.665879 0.014164 0.548764 -0.215048
C21   C     C_3   0.485982 0.903965 0.464354 0.345583
C22   C     C_3   0.515525 0.095595 0.535571 0.346982
H3    H     H_    0.201703 0.971990 0.410254 0.123442
H4    H     H_    0.799038 0.027886 0.589812 0.132396
C23   C     C_3   0.496831 0.942832 0.566559 -0.110138
C24   C     C_3   0.504035 0.056887 0.433318 -0.110320
C25   C     C_3   0.346687 0.026035 0.555121 -0.170778
C26   C     C_3   0.654438 0.973655 0.444726 -0.215268
H5    H     H_    0.223350 0.049244 0.601453 0.128227
H6    H     H_    0.777306 0.950099 0.398200 0.136554
C27   C     C_1   0.505147 0.033065 0.033610 -0.163554
C28   C     C_1   0.494852 0.966931 0.966393 -0.163206
I1    I     I_    0.871112 0.631587 0.213845 -0.545852
I2    I     I_    0.125298 0.369150 0.786216 -0.535653
N1    N     N_2   0.259737 0.658968 0.036361 -0.509892
H7    H     H_    0.346419 0.664049 0.980544 0.258252
C29   C     C_3   0.369395 0.662304 0.118813 -0.534451
H8    H     H_    0.474985 0.725987 0.123919 0.211042
H9    H     H_    0.447240 0.589560 0.119398 0.210465
H10   H     H_    0.271878 0.675702 0.178271 0.238206
N2    N     N_2   0.739670 0.341684 0.962951 -0.508960
H11   H     H_    0.654616 0.334920 0.018942 0.258272
C30   C     C_3   0.627447 0.340747 0.881459 -0.533982
H12   H     H_    0.523257 0.276361 0.875122 0.211610
H13   H     H_    0.722910 0.330387 0.821117 0.237114
H14   H     H_    0.547824 0.413343 0.883486 0.208197
N3    N     N_2   0.473502 0.796363 0.430199 -0.518414
H15   H     H_    0.585393 0.755444 0.451856 0.261200
C31   C     C_3   0.438087 0.771881 0.333885 -0.518631
H16   H     H_    0.433745 0.687715 0.315104 0.226122
H17   H     H_    0.554628 0.803253 0.294448 0.209408
H18   H     H_    0.297398 0.803353 0.316954 0.209616
N4    N     N_2   0.531827 0.202761 0.570905 -0.512595
H19   H     H_    0.637810 0.239206 0.538828 0.252722
C32   C     C_3   0.540839 0.225747 0.668804 -0.515880
H20   H     H_    0.535406 0.309659 0.688923 0.230548
H21   H     H_    0.677070 0.196341 0.693481 0.192687
H22   H     H_    0.416602 0.191181 0.700578 0.221076

loop_
_geom_bond_atom_site_label_1
_geom_bond_atom_site_label_2
_ccdc_geom_bond_type
C14   C16   S    
C29   H9    S    
O13   V3    S    
N3    H15   S    
C12   C18   S    
O4    C2    A    
V1    O19   S    
C32   H20   S    
C12   N2    S    
C15   C17   S    
C7    C9    S    
O9    V1    S    
C22   N4    S    
C11   C13   S    
C1    C24   S    
O3    C1    A    
C3    C27   S    
O12   V4    S    
C30   H13   S    
C19   C21   S    
O9    C5    A    
C13   C18   S    
N1    C29   S    
O7    C3    A    
O13   V1    S    
O5    C7    A    
O7    V1    S    
O6    C8    A    
O8    V2    S    
O3    V1    S    
O14   V4    S    
C16   C18   S    
C29   H10   S    
C8    C10   S    
C2    O12   A    
C17   H1    S    
O10   V2    S    
C30   H12   S    
C18   H2    S    
C11   C17   S    
C32   H21   S    
C24   C26   S    
O11   V3    S    
C20   C22   S    
C25   H5    S    
O17   V3    S    
C22   C25   S    
C4    C28   S    
C26   H6    S    
N2    H11   S    
C21   N3    S    
C14   C17   S    
O8    C4    A    
N4    C32   S    
C21   C23   S    
C19   C24   S    
O15   V3    S    
C20   C23   S    
N4    H19   S    
N2    C30   S    
C30   H14   S    
C31   H16   S    
C19   H3    S    
C20   C26   S    
O1    V3    S    
C9    C10   T    
C11   N1    S    
C31   H17   S    
C2    C23   S    
C13   I1    S    
C21   C26   S    
C14   I2    S    
O18   V4    S    
O15   C5    A    
O16   C6    A    
O1    C3    A    
N3    C31   S    
C32   H22   S    
V2    O20   S    
C20   H4    S    
O16   V4    S    
C12   C15   S    
O5    V1    S    
O17   C7    A    
O6    V2    S    
O10   C6    A    
O18   C8    A    
O2    V4    S    
C12   C14   S    
C11   C16   S    
V3    O19   S    
V4    O20   S    
C27   C28   T    
C5    C15   S    
C1    O11   A    
C6    C16   S    
O14   V2    S    
N1    H7    S    
O2    C4    A    
C31   H18   S    
C19   C25   S    
C29   H8    S    
O4    V2    S    
C22   C24   S    
C13   C15   S    
C23   C25   S    
