data_mof_unit_32606.cif
_audit_creation_date              2012-12-10T20:36:34-0500
_audit_creation_method            fapswitch 2.2
_symmetry_space_group_name_H-M    P1
_symmetry_Int_Tables_number       1
_space_group_crystal_system       triclinic
_cell_length_a                    10.529832
_cell_length_b                    10.672978
_cell_length_c                    9.877503
_cell_angle_alpha                 89.710971
_cell_angle_beta                  88.741842
_cell_angle_gamma                 90.283096
_cell_volume                      1109.78395143

loop_
_atom_site_label
_atom_site_type_symbol
_atom_type_description
_atom_site_fract_x
_atom_site_fract_y
_atom_site_fract_z
_atom_type_partial_charge
C1    C     C_R   0.504692 0.259930 0.500108 0.876027
C2    C     C_3   0.956268 0.600257 0.568917 -0.267960
C3    C     C_3   0.045868 0.605078 0.443473 0.226905
C4    C     C_3   0.123275 0.499397 0.504180 -0.068322
C5    C     C_R   0.532859 0.063060 0.621568 0.141826
C6    C     C_R   0.527114 0.128669 0.499703 -0.106667
C7    C     C_R   0.547448 0.065624 0.376760 -0.231964
C8    C     C_R   0.547466 0.936017 0.376338 -0.228357
C9    C     C_R   0.527234 0.871289 0.498863 -0.106172
C10   C     C_R   0.532822 0.935179 0.621051 0.130671
C11   C     C_3   0.448379 0.926182 0.744290 -0.469634
C12   C     C_R   0.257666 0.499253 0.501495 0.902067
C13   C     C_3   0.448289 0.068056 0.744910 -0.500962
C14   C     C_R   0.390801 0.476235 0.073939 0.228969
C15   C     C_R   0.603924 0.537240 0.069151 -0.152377
C16   C     C_R   0.604359 0.536597 0.925404 -0.136626
C17   C     C_R   0.390517 0.476922 0.931582 0.217218
C18   C     C_3   0.310993 0.361113 0.928774 -0.522600
C19   C     C_3   0.312057 0.360131 0.082565 -0.508146
C20   C     C_R   0.504737 0.740006 0.499549 0.874919
C21   C     C_R   0.742652 0.500725 0.498481 0.890170
C22   C     C_3   0.045527 0.399550 0.431182 -0.238907
C23   C     C_3   0.966454 0.506533 0.370910 0.221556
C24   C     C_3   0.877694 0.500719 0.495660 -0.044240
C25   C     C_3   0.955998 0.395301 0.556745 0.206611
C26   C     C_3   0.036201 0.493460 0.630764 -0.183459
H1    H     H_    0.687650 0.566799 0.120872 0.154602
H2    H     H_    0.689448 0.564432 0.869608 0.156001
H3    H     H_    0.215382 0.378840 0.887651 0.197105
H4    H     H_    0.364395 0.279455 0.125582 0.213819
H5    H     H_    0.085407 0.317700 0.376146 0.144612
H6    H     H_    0.916489 0.682323 0.623615 0.150521
H7    H     H_    0.553562 0.887730 0.280221 0.172376
H8    H     H_    0.353835 0.884565 0.723147 0.203489
N1    N     N_R   0.499140 0.499140 0.142800 -0.107919
N2    N     N_R   0.499140 0.499180 0.857150 -0.107364
O1    O     O_R   0.500020 0.316790 0.614690 -0.614445
O2    O     O_R   0.500000 0.316760 0.385350 -0.625169
O3    O     O_R   0.313960 0.499990 0.614650 -0.625506
O4    O     O_R   0.313940 0.499950 0.385310 -0.617730
O5    O     O_R   0.500000 0.683240 0.614650 -0.618628
O6    O     O_R   0.499980 0.683210 0.385310 -0.622229
O7    O     O_R   0.686060 0.500050 0.614690 -0.627244
O8    O     O_R   0.686040 0.500010 0.385350 -0.624456
Zn1   Zn    Zn3+2 0.500010 0.500020 0.653130 0.937388
Zn2   Zn    Zn3+2 0.499990 0.499980 0.346870 0.935847
C27   C     C_3   0.932206 0.515270 0.222614 -0.920969
H9    H     H_    0.019979 0.511220 0.158610 0.235634
H10   H     H_    0.869016 0.436034 0.196081 0.249096
H11   H     H_    0.884596 0.605925 0.203953 0.238729
H12   H     H_    0.497830 0.884571 0.831942 0.204712
H13   H     H_    0.353574 0.108649 0.724031 0.200813
H14   H     H_    0.497943 0.108055 0.833076 0.203355
H15   H     H_    0.362226 0.281169 0.882655 0.214404
H16   H     H_    0.217124 0.377414 0.129951 0.202131
C28   C     C_3   0.902172 0.275810 0.620603 -0.917144
H17   H     H_    0.981185 0.215234 0.653573 0.239017
H18   H     H_    0.841064 0.299411 0.709745 0.253431
H19   H     H_    0.844751 0.224734 0.545585 0.237201
H20   H     H_    0.067883 0.487568 0.736971 0.148104
C29   C     C_3   0.100401 0.724905 0.380735 -0.912932
H21   H     H_    0.021746 0.786101 0.348126 0.240622
H22   H     H_    0.157834 0.775151 0.456371 0.232127
H23   H     H_    0.161611 0.701738 0.291532 0.254380
H24   H     H_    0.553579 0.115139 0.280802 0.171673

loop_
_geom_bond_atom_site_label_1
_geom_bond_atom_site_label_2
_ccdc_geom_bond_type
C17   C18   S    
C12   O4    A    
C29   H23   S    
C20   O6    A    
C23   C24   S    
C28   H19   S    
C16   H2    S    
C6    C7    A    
C17   N2    A    
C7    H24   S    
C21   O8    A    
C4    C22   S    
C9    C10   A    
C9    C20   S    
C15   H1    S    
C27   H9    S    
C25   C28   S    
C1    O1    A    
O3    Zn1   S    
C5    C13   S    
C22   H5    S    
C12   O3    A    
C29   H22   S    
C2    C3    S    
C25   C26   S    
C7    C8    A    
C2    C26   S    
C18   H3    S    
C21   O7    A    
C27   H10   S    
C24   C25   S    
O4    Zn2   S    
O7    Zn1   S    
C14   C17   A    
C5    C6    A    
C19   H4    S    
C1    O2    A    
N2    Zn1   S    
C15   N1    A    
C28   H18   S    
C20   O5    A    
C27   H11   S    
C13   H14   S    
C8    H7    S    
C3    C29   S    
C2    C24   S    
C29   H21   S    
C4    C26   S    
O2    Zn2   S    
C23   C27   S    
C10   C11   S    
C18   H15   S    
C5    C10   A    
C15   C16   A    
C13   H13   S    
C11   C13   S    
C11   H12   S    
C28   H17   S    
C2    H6    S    
C18   C19   S    
O6    Zn2   S    
C21   C24   S    
C19   H16   S    
C14   N1    A    
O1    Zn1   S    
O5    Zn1   S    
C22   C23   S    
C3    C23   S    
C4    C12   S    
N1    Zn2   S    
C26   H20   S    
C14   C19   S    
C11   H8    S    
C16   N2    A    
C3    C4    S    
C1    C6    S    
O8    Zn2   S    
C8    C9    A    
C22   C25   S    
