data_mof_unit_39765.cif
_audit_creation_date              2012-12-11T14:51:52-0500
_audit_creation_method            fapswitch 2.2
_symmetry_space_group_name_H-M    P1
_symmetry_Int_Tables_number       1
_space_group_crystal_system       triclinic
_cell_length_a                    6.940448
_cell_length_b                    16.698778
_cell_length_c                    16.896995
_cell_angle_alpha                 101.286769
_cell_angle_beta                  90.28345
_cell_angle_gamma                 90.469348
_cell_volume                      1920.32979066

loop_
_atom_site_label
_atom_site_type_symbol
_atom_type_description
_atom_site_fract_x
_atom_site_fract_y
_atom_site_fract_z
_atom_type_partial_charge
O1    O     O_R   0.506340 0.439070 0.579550 -0.539491
O2    O     O_R   0.170010 0.404890 0.412100 -0.537887
O3    O     O_R   0.005010 0.560930 0.420450 -0.537945
C1    C     C_R   0.339230 0.382149 0.382742 0.693102
O4    O     O_R   0.176280 0.429360 0.578400 -0.541638
O5    O     O_R   0.011320 0.585570 0.587940 -0.540557
C2    C     C_R   0.343535 0.413709 0.605324 0.693233
O6    O     O_R   0.500030 0.414430 0.412060 -0.542067
O7    O     O_3   0.340950 0.551220 0.502940 -0.365167
V1    V     V_3+5 0.064020 0.490500 0.499460 1.395701
O8    O     O_R   0.681910 0.595110 0.587900 -0.537456
C3    C     C_R   0.851816 0.618039 0.616751 0.723553
O9    O     O_R   0.675640 0.570640 0.421600 -0.540837
C4    C     C_R   0.842733 0.586091 0.394511 0.697431
V2    V     V_3+5 0.564670 0.509500 0.500540 1.400808
O10   O     O_3   0.837610 0.448780 0.497060 -0.370062
C5    C     C_R   0.926517 0.863375 0.169537 -0.165945
C6    C     C_R   0.839637 0.638527 0.332608 -0.069507
C7    C     C_R   0.654923 0.692030 0.230827 -0.161237
C8    C     C_R   0.674540 0.637339 0.283271 -0.169783
C9    C     C_R   0.987040 0.695299 0.327275 -0.210747
C10   C     C_R   0.966539 0.751566 0.275355 0.082818
C11   C     C_R   0.799231 0.750090 0.226740 0.151248
C12   C     C_R   0.779902 0.805928 0.174319 -0.269723
C13   C     C_R   0.089419 0.866710 0.221535 0.467050
C14   C     C_R   0.109470 0.810230 0.272319 -0.265700
H1    H     H_    0.654395 0.802740 0.135330 0.159146
H2    H     H_    0.525520 0.689516 0.194225 0.122475
H3    H     H_    0.237703 0.812755 0.309671 0.142640
H4    H     H_    0.558196 0.594319 0.285960 0.123926
H5    H     H_    0.113596 0.697808 0.365588 0.123108
C15   C     C_3   0.707043 0.780701 0.769154 -0.216068
C16   C     C_3   0.803831 0.776114 0.685271 -0.200128
H6    H     H_    0.737729 0.796104 0.632501 0.117171
H7    H     H_    0.561925 0.805953 0.785597 0.168183
C17   C     C_3   0.866894 0.688169 0.687073 -0.117113
C18   C     C_3   0.768314 0.691487 0.769618 -0.191565
C19   C     C_3   0.959720 0.724293 0.811004 0.475064
C20   C     C_3   0.059935 0.719723 0.729005 -0.210499
C21   C     C_3   0.993488 0.807680 0.729283 0.406069
C22   C     C_3   0.899357 0.812504 0.812001 -0.153688
H8    H     H_    0.674909 0.643075 0.786079 0.114721
H9    H     H_    0.205846 0.695557 0.712258 0.127226
C23   C     C_3   0.555627 0.284465 0.274524 -0.158748
C24   C     C_3   0.493107 0.195712 0.272903 0.461622
H10   H     H_    0.698176 0.311714 0.294883 0.113215
C25   C     C_3   0.409812 0.188962 0.187749 -0.066129
C26   C     C_3   0.468539 0.278439 0.188684 -0.207649
C27   C     C_3   0.271137 0.307527 0.226524 -0.114467
C28   C     C_3   0.211802 0.217386 0.224860 -0.162994
C29   C     C_3   0.297035 0.223056 0.310758 -0.262114
C30   C     C_3   0.357114 0.312271 0.311615 -0.049890
H11   H     H_    0.539216 0.301047 0.138391 0.116726
H12   H     H_    0.177527 0.354200 0.207829 0.104994
H13   H     H_    0.069126 0.190092 0.204624 0.137953
H14   H     H_    0.232804 0.199898 0.361756 0.104856
C31   C     C_R   0.426784 0.139457 0.833290 -0.061979
C32   C     C_R   0.339459 0.361103 0.667108 -0.070624
C33   C     C_R   0.153036 0.306121 0.767373 -0.201501
C34   C     C_R   0.172929 0.360497 0.714647 -0.165974
C35   C     C_R   0.487907 0.306311 0.674486 -0.251331
C36   C     C_R   0.467477 0.250459 0.726874 0.162111
C37   C     C_R   0.298764 0.250338 0.773813 0.161234
C38   C     C_R   0.279002 0.194783 0.826574 -0.242991
C39   C     C_R   0.592119 0.139406 0.784985 -0.173605
C40   C     C_R   0.612139 0.194034 0.732514 -0.205977
H15   H     H_    0.151483 0.195966 0.863561 0.118767
H16   H     H_    0.708141 0.097224 0.788450 0.119733
H17   H     H_    0.022490 0.307192 0.802479 0.120929
H18   H     H_    0.741608 0.192668 0.696765 0.128218
H19   H     H_    0.055718 0.401956 0.710474 0.122710
H20   H     H_    0.615795 0.305320 0.637808 0.120937
O11   O     O_R   0.266070 0.085680 0.087850 -0.543452
O12   O     O_R   0.590090 0.070660 0.921580 -0.549357
O13   O     O_R   0.754780 0.914400 0.912080 -0.547707
C41   C     C_R   0.422825 0.086477 0.894730 0.682099
O14   O     O_R   0.596110 0.095130 0.087880 -0.535389
O15   O     O_R   0.760850 0.939050 0.079570 -0.533487
C42   C     C_R   0.426987 0.118218 0.117087 0.720179
O16   O     O_R   0.260010 0.061030 0.920360 -0.543122
O17   O     O_3   0.425070 0.948840 0.997010 -0.356692
V3    V     V_3+5 0.702100 0.009490 0.000550 1.437825
O18   O     O_R   0.090200 0.929250 0.078500 -0.510981
C43   C     C_R   0.923201 0.914383 0.106083 0.758860
O19   O     O_R   0.084180 0.904770 0.912200 -0.527651
C44   C     C_R   0.914317 0.881957 0.883194 0.721899
V4    V     V_3+5 0.201420 0.990350 0.999580 1.493324
O20   O     O_3   0.928580 0.051150 0.002990 -0.384656
O21   O     O_3   0.040396 0.700763 0.879690 -0.551274
C45   C     C_3   0.092608 0.617910 0.860227 -0.247028
H21   H     H_    0.209609 0.608120 0.814723 0.125379
H22   H     H_    0.966495 0.577855 0.838725 0.122667
H23   H     H_    0.148652 0.599523 0.915555 0.166911
O22   O     O_3   0.124425 0.864814 0.707831 -0.574336
C46   C     C_3   0.027637 0.936680 0.699679 0.074292
H24   H     H_    0.974497 0.969053 0.759342 0.100612
H25   H     H_    0.904497 0.923086 0.656564 0.112764
C47   C     C_3   0.168895 0.992396 0.666559 -0.269311
H26   H     H_    0.292241 0.007837 0.709082 0.196420
H27   H     H_    0.225522 0.959760 0.607695 0.193899
C48   C     C_3   0.072383 0.070833 0.654400 -0.846434
H28   H     H_    0.017985 0.105108 0.712773 0.232411
H29   H     H_    0.950300 0.056514 0.611083 0.222303
H30   H     H_    0.178335 0.109820 0.630085 0.242509
O23   O     O_3   0.612332 0.135715 0.295523 -0.585944
C49   C     C_3   0.644682 0.152141 0.380144 0.054145
H31   H     H_    0.612892 0.095371 0.402853 0.137867
H32   H     H_    0.552048 0.200643 0.415079 0.104390
C50   C     C_3   0.855259 0.175919 0.398136 -0.307109
H33   H     H_    0.947280 0.123274 0.372478 0.183592
H34   H     H_    0.892940 0.228226 0.369287 0.199161
C51   C     C_3   0.893982 0.200370 0.488722 -0.825239
H35   H     H_    0.811956 0.256123 0.514511 0.232016
H36   H     H_    0.049954 0.213653 0.499707 0.224837
H37   H     H_    0.851272 0.150160 0.519620 0.224562
O24   O     O_3   0.236616 0.922690 0.220628 -0.543484
C52   C     C_3   0.187033 0.995921 0.273059 -0.246607
H38   H     H_    0.058180 0.024054 0.250566 0.124741
H39   H     H_    0.308354 0.039612 0.275250 0.187611
H40   H     H_    0.163281 0.986384 0.335716 0.124090

loop_
_geom_bond_atom_site_label_1
_geom_bond_atom_site_label_2
_ccdc_geom_bond_type
O18   V4    S    
V4    O20   S    
C48   H28   S    
C6    C9    A    
C4    C6    S    
O2    C1    A    
C7    C8    A    
C12   H1    S    
C25   C42   S    
C1    O6    A    
C51   H36   S    
O17   V3    S    
C46   C47   S    
C8    H4    S    
O19   C44   A    
C22   C44   S    
C9    H5    S    
C19   O21   S    
C36   C37   A    
O12   C41   A    
C1    C30   S    
C31   C41   S    
C17   C18   S    
O16   V4    S    
C50   H34   S    
O5    C3    A    
C19   C20   S    
C49   H31   S    
C24   C29   S    
C32   C34   A    
V2    O10   S    
C47   H26   S    
C16   C17   S    
O24   C52   S    
C29   H14   S    
C24   C25   S    
C18   H8    S    
O11   V4    S    
O8    V2    S    
C25   C26   S    
C24   O23   S    
C11   C12   A    
O1    V2    S    
C3    C17   S    
O7    V1    S    
C2    C32   S    
C45   H23   S    
C23   C30   S    
C32   C35   A    
O14   C42   A    
C33   C34   A    
C48   H29   S    
C27   H12   S    
O9    C4    A    
O22   C46   S    
O12   V3    S    
C51   H35   S    
C23   H10   S    
C16   H6    S    
C25   C28   S    
O19   V4    S    
C26   H11   S    
C16   C21   S    
C36   C40   A    
C29   C30   S    
C5    C12   A    
C15   H7    S    
C13   O24   S    
C19   C22   S    
C52   H40   S    
C31   C39   A    
C20   C21   S    
O4    C2    A    
C20   H9    S    
C34   H19   S    
C13   C14   A    
C7    C11   A    
C38   H15   S    
C18   C19   S    
O15   V3    S    
O13   C44   A    
C45   H22   S    
O18   C43   A    
C15   C22   S    
C39   H16   S    
C28   C29   S    
O11   C42   A    
C15   C18   S    
C7    H2    S    
O17   V4    S    
O3    C4    A    
C33   H17   S    
C35   H20   S    
C21   C22   S    
C39   C40   A    
O6    V2    S    
C47   H27   S    
O9    V2    S    
C50   C51   S    
O2    V1    S    
C23   C24   S    
C31   C38   A    
C26   C27   S    
O1    C2    A    
C17   C20   S    
C41   O16   A    
C27   C30   S    
C21   O22   S    
O5    V1    S    
O8    C3    A    
C46   H25   S    
O13   V3    S    
C48   H30   S    
C47   C48   S    
O23   C49   S    
C33   C37   A    
C28   H13   S    
C5    C43   S    
C5    C13   A    
C15   C16   S    
C52   H39   S    
O7    V2    S    
O4    V1    S    
O3    V1    S    
V1    O10   S    
C52   H38   S    
C45   H21   S    
C40   H18   S    
C49   H32   S    
O14   V3    S    
V3    O20   S    
C6    C8    A    
C35   C36   A    
C37   C38   A    
O15   C43   A    
C14   H3    S    
C27   C28   S    
C10   C14   A    
C50   H33   S    
C46   H24   S    
C10   C11   A    
O21   C45   S    
C9    C10   A    
C51   H37   S    
C23   C26   S    
C49   C50   S    
