data_mof_unit_54467.cif
_audit_creation_date              2012-12-10T17:50:38-0500
_audit_creation_method            fapswitch 2.2
_symmetry_space_group_name_H-M    P1
_symmetry_Int_Tables_number       1
_space_group_crystal_system       triclinic
_cell_length_a                    15.679916
_cell_length_b                    10.632407
_cell_length_c                    9.960694
_cell_angle_alpha                 90.336251
_cell_angle_beta                  89.314531
_cell_angle_gamma                 92.674496
_cell_volume                      1658.64860734

loop_
_atom_site_label
_atom_site_type_symbol
_atom_type_description
_atom_site_fract_x
_atom_site_fract_y
_atom_site_fract_z
_atom_type_partial_charge
C1    C     C_R   0.502074 0.260895 0.499840 0.871476
C2    C     C_3   0.084480 0.532900 0.499105 0.079582
C3    C     C_3   0.973257 0.630135 0.560210 0.290318
C4    C     C_3   0.918176 0.522989 0.498213 0.075163
C5    C     C_3   0.031000 0.632261 0.433285 -0.223105
C6    C     C_3   0.974286 0.524143 0.370963 -0.162850
C7    C     C_1   0.175512 0.531418 0.499444 0.005432
C8    C     C_1   0.826920 0.514849 0.497696 0.015955
C9    C     C_R   0.643374 0.141704 0.625886 -0.183451
C10   C     C_R   0.708882 0.081040 0.688613 -0.121249
C11   C     C_R   0.708463 0.950223 0.689910 -0.095943
C12   C     C_R   0.338586 0.506925 0.500387 0.914185
C13   C     C_R   0.642765 0.879602 0.627975 -0.205724
C14   C     C_R   0.574945 0.939653 0.565874 0.095918
C15   C     C_R   0.575178 0.071530 0.564991 0.113793
C16   C     C_R   0.507747 0.128920 0.499886 -0.071346
C17   C     C_R   0.442851 0.059914 0.435133 -0.221015
C18   C     C_R   0.442952 0.931400 0.435053 -0.213598
C19   C     C_R   0.507488 0.872157 0.501110 -0.083204
C20   C     C_R   0.412349 0.307901 0.143341 -0.189044
C21   C     C_R   0.398253 0.191269 0.083576 -0.397496
C22   C     C_R   0.410878 0.178611 0.944554 0.367180
C23   C     C_R   0.502278 0.739390 0.500337 0.846506
C24   C     C_R   0.416167 0.291957 0.868703 0.462533
C25   C     C_R   0.457955 0.400761 0.929430 0.019224
C26   C     C_R   0.457031 0.404265 0.073508 0.116292
C27   C     C_R   0.541449 0.592195 0.070946 -0.097061
C28   C     C_R   0.541334 0.592282 0.928236 -0.119184
C29   C     C_R   0.662003 0.501108 0.499334 0.861529
C30   C     C_3   0.971855 0.423750 0.563967 -0.239789
C31   C     C_3   0.029521 0.425040 0.436748 -0.180800
C32   C     C_1   0.250499 0.522571 0.500309 -0.177018
C33   C     C_1   0.751313 0.507700 0.497984 -0.160694
C34   C     C_3   0.028137 0.531644 0.625349 0.287658
H1    H     H_    0.054727 0.341049 0.385916 0.167144
H2    H     H_    0.759650 0.903301 0.737876 0.186191
H3    H     H_    0.646447 0.778339 0.628104 0.155402
H4    H     H_    0.391611 0.877722 0.385900 0.149198
H5    H     H_    0.575525 0.667710 0.123891 0.149211
H6    H     H_    0.390734 0.319028 0.244680 0.221255
H7    H     H_    0.375690 0.113760 0.146140 0.158784
H8    H     H_    0.575398 0.667693 0.874778 0.144221
H9    H     H_    0.946010 0.338682 0.617486 0.175639
H10   H     H_    0.950148 0.520483 0.266622 0.178741
H11   H     H_    0.057044 0.717635 0.380575 0.176117
H12   H     H_    0.390957 0.105880 0.387568 0.135954
H13   H     H_    0.647501 0.243360 0.624384 0.146979
H14   H     H_    0.760552 0.135744 0.735206 0.151077
N1    N     N_R   0.499210 0.498800 0.142780 -0.101055
N2    N     N_R   0.499180 0.498720 0.857170 -0.096102
O1    O     O_R   0.500000 0.316780 0.614690 -0.574365
O2    O     O_R   0.499990 0.316750 0.385360 -0.634635
O3    O     O_R   0.376780 0.500000 0.614650 -0.526765
O4    O     O_R   0.376770 0.499980 0.385310 -0.644406
O5    O     O_R   0.500010 0.683250 0.614640 -0.637751
O6    O     O_R   0.500000 0.683220 0.385310 -0.619025
O7    O     O_R   0.623230 0.500020 0.614690 -0.625769
O8    O     O_R   0.623220 0.500000 0.385350 -0.600904
Zn1   Zn    Zn3+2 0.500010 0.500020 0.653130 0.985729
Zn2   Zn    Zn3+2 0.499990 0.499980 0.346870 0.948655
O9    O     O_3   0.410020 0.063877 0.875108 -0.634317
C35   C     C_3   0.401667 0.956291 0.957250 0.068074
H15   H     H_    0.337677 0.950573 0.006947 0.151711
H16   H     H_    0.453338 0.956505 0.033043 0.161987
C36   C     C_3   0.408961 0.839886 0.869489 -0.741935
H17   H     H_    0.473382 0.840462 0.822088 0.259136
H18   H     H_    0.398934 0.753968 0.931541 0.211310
H19   H     H_    0.360071 0.838514 0.789621 0.258621
O10   O     O_3   0.368629 0.305095 0.751950 -0.568684
C37   C     C_3   0.303603 0.208779 0.732492 0.150246
H20   H     H_    0.268880 0.184022 0.827697 0.152720
H21   H     H_    0.331625 0.124471 0.686425 0.200832
C38   C     C_3   0.236675 0.250689 0.636191 -0.855557
H22   H     H_    0.265888 0.268444 0.535727 0.229164
H23   H     H_    0.185855 0.175102 0.625452 0.224693
H24   H     H_    0.207078 0.335845 0.676780 0.289793
Br1   Br    Br    0.930462 0.777861 0.648069 -0.516886
Br2   Br    Br    0.069320 0.536289 0.808060 -0.490600

loop_
_geom_bond_atom_site_label_1
_geom_bond_atom_site_label_2
_ccdc_geom_bond_type
O5    Zn1   S    
C38   H22   S    
C2    C7    S    
C4    C8    S    
O3    Zn1   S    
C23   O6    A    
O4    Zn2   S    
N1    Zn2   S    
N2    Zn1   S    
C11   H2    S    
C5    C6    S    
C20   H6    S    
O7    Zn1   S    
O8    Zn2   S    
C15   C16   A    
C29   C33   S    
C18   C19   A    
C25   N2    A    
C35   H16   S    
O2    Zn2   S    
C28   N2    A    
C27   H5    S    
C16   C17   A    
C36   H18   S    
C37   H20   S    
C9    C10   A    
C13   H3    S    
C12   O3    A    
C2    C34   S    
C6    C31   S    
C6    H10   S    
C13   C14   A    
C12   C32   S    
C38   H23   S    
O10   C37   S    
C24   O10   S    
C30   C34   S    
C24   C25   A    
C4    C6    S    
C26   N1    A    
C3    C34   S    
C25   C26   A    
C5    H11   S    
O6    Zn2   S    
C2    C31   S    
C19   C23   S    
C35   H15   S    
C36   H19   S    
C37   C38   S    
C17   C18   A    
C1    C16   S    
C29   O8    A    
C1    O1    A    
C21   H7    S    
C29   O7    A    
C9    H13   S    
C10   H14   S    
C38   H24   S    
C22   C24   A    
C30   H9    S    
C2    C5    S    
O1    Zn1   S    
C3    C4    S    
C3    Br1   S    
C7    C32   T    
C35   C36   S    
C14   C19   A    
C3    C5    S    
C17   H12   S    
C23   O5    A    
C18   H4    S    
C34   Br2   S    
C22   O9    S    
C11   C13   A    
C30   C31   S    
C20   C26   A    
C28   H8    S    
C31   H1    S    
C8    C33   T    
C9    C15   A    
O9    C35   S    
C1    O2    A    
C4    C30   S    
C10   C11   A    
C20   C21   A    
C36   H17   S    
C27   C28   A    
C14   C15   A    
C37   H21   S    
C21   C22   A    
C12   O4    A    
C27   N1    A    
