data_mof_unit_19225.cif
_audit_creation_date              2012-12-10T16:50:59-0500
_audit_creation_method            fapswitch 2.2
_symmetry_space_group_name_H-M    P1
_symmetry_Int_Tables_number       1
_space_group_crystal_system       triclinic
_cell_length_a                    8.037521
_cell_length_b                    8.600533
_cell_length_c                    10.543094
_cell_angle_alpha                 91.109737
_cell_angle_beta                  88.225972
_cell_angle_gamma                 92.630832
_cell_volume                      727.577419126

loop_
_atom_site_label
_atom_site_type_symbol
_atom_type_description
_atom_site_fract_x
_atom_site_fract_y
_atom_site_fract_z
_atom_type_partial_charge
C1    C     C_R   0.543667 0.792721 0.497343 0.848244
C2    C     C_R   0.936972 0.507552 0.076688 -0.072209
C3    C     C_R   0.069333 0.598581 0.027289 -0.142237
C4    C     C_R   0.930668 0.401421 0.972712 -0.142236
C5    C     C_R   0.210420 0.612087 0.101048 -0.208224
C6    C     C_R   0.789580 0.387915 0.898952 -0.208224
C7    C     C_R   0.351841 0.536476 0.060857 0.093347
C8    C     C_R   0.648159 0.463526 0.939143 0.093347
C9    C     C_R   0.352514 0.457759 0.943715 0.088300
C10   C     C_R   0.647487 0.542243 0.056285 0.088300
C11   C     C_R   0.498427 0.553933 0.125447 -0.234045
C12   C     C_R   0.456333 0.207279 0.502657 0.848245
C13   C     C_R   0.501573 0.446069 0.874553 -0.234045
C14   C     C_2   0.566652 0.955584 0.500237 0.270116
C15   C     C_2   0.433347 0.044416 0.499763 0.270116
C16   C     C_R   0.501169 0.479183 0.738585 0.853136
C17   C     C_R   0.498831 0.520818 0.261416 0.853136
C18   C     C_R   0.202339 0.410583 0.891388 -0.189564
C19   C     C_R   0.797662 0.589419 0.108613 -0.189563
C20   C     C_R   0.063029 0.492450 0.923313 -0.072209
F1    F     F_    0.727109 0.013710 0.507017 -0.634283
F2    F     F_    0.272891 0.986290 0.492983 -0.634283
H1    H     H_    0.961664 0.283264 0.996003 0.162290
H2    H     H_    0.990960 0.617944 0.595053 0.209055
H3    H     H_    0.038336 0.716738 0.003998 0.162290
H4    H     H_    0.196658 0.327209 0.812698 0.171107
H5    H     H_    0.803343 0.672792 0.187303 0.171107
H6    H     H_    0.032806 0.549987 0.835912 0.171824
H7    H     H_    0.967195 0.450015 0.164088 0.171824
H8    H     H_    0.213167 0.693312 0.181043 0.178353
H9    H     H_    0.786834 0.306691 0.818956 0.178353
H10   H     H_    0.009040 0.382055 0.404947 0.209055
N1    N     N_2   0.950330 0.457950 0.466250 -0.168414
N2    N     N_2   0.049670 0.542050 0.533750 -0.168414
O1    O     O_R   0.389250 0.738570 0.508280 -0.563678
O2    O     O_R   0.610750 0.261430 0.491720 -0.563677
O3    O     O_R   0.678390 0.711630 0.486650 -0.582796
O4    O     O_R   0.321610 0.288370 0.513350 -0.582795
O5    O     O_R   0.355430 0.513480 0.694040 -0.620885
O6    O     O_R   0.644570 0.486520 0.305960 -0.620885
O7    O     O_R   0.644570 0.486540 0.672410 -0.621266
O8    O     O_R   0.355430 0.513460 0.327590 -0.621266
Zn1   Zn    Zn3+2 0.306940 0.517990 0.514440 0.991826
Zn2   Zn    Zn3+2 0.693060 0.482010 0.485560 0.991826

loop_
_geom_bond_atom_site_label_1
_geom_bond_atom_site_label_2
_ccdc_geom_bond_type
C2    C4    A    
C5    C7    A    
C8    C13   A    
C12   O2    A    
O1    Zn1   S    
C18   H4    S    
C12   C15   S    
C1    O3    A    
C10   C19   A    
H10   N1    S    
O3    Zn2   S    
C2    C3    A    
C3    C20   A    
C7    C11   A    
C2    H7    S    
C6    C8    A    
C14   F1    S    
C8    C10   A    
N1    N2    D    
C18   C20   A    
C12   O4    A    
C14   C15   D    
O7    Zn2   S    
O4    Zn1   S    
O2    Zn2   S    
C10   C11   A    
C16   O5    A    
C4    C20   A    
C9    C18   A    
O6    Zn2   S    
C3    H3    S    
C19   H5    S    
C1    O1    A    
C4    C6    A    
C5    H8    S    
O8    Zn1   S    
C13   C16   S    
C7    C9    A    
C4    H1    S    
C9    C13   A    
C17   O8    A    
C11   C17   S    
C6    H9    S    
C1    C14   S    
C20   H6    S    
C2    C19   A    
O5    Zn1   S    
N1    Zn2   S    
C16   O7    A    
C15   F2    S    
H2    N2    S    
N2    Zn1   S    
C3    C5    A    
C17   O6    A    
