data_mof_unit_59100.cif
_audit_creation_date              2012-12-11T14:45:27-0500
_audit_creation_method            fapswitch 2.2
_symmetry_space_group_name_H-M    P1
_symmetry_Int_Tables_number       1
_space_group_crystal_system       triclinic
_cell_length_a                    25.153075
_cell_length_b                    7.199913
_cell_length_c                    14.092759
_cell_angle_alpha                 90.113649
_cell_angle_beta                  102.769111
_cell_angle_gamma                 90.618042
_cell_volume                      2488.90890836

loop_
_atom_site_label
_atom_site_type_symbol
_atom_type_description
_atom_site_fract_x
_atom_site_fract_y
_atom_site_fract_z
_atom_type_partial_charge
O1    O     O_R   0.319150 0.364170 0.330530 -0.532484
O2    O     O_R   0.680850 0.635830 0.669470 -0.557025
O3    O     O_R   0.180850 0.864170 0.169470 -0.537380
O4    O     O_R   0.819150 0.135830 0.830530 -0.559398
O5    O     O_R   0.210330 0.696850 0.354180 -0.548513
O6    O     O_R   0.789670 0.303150 0.645820 -0.541779
O7    O     O_R   0.289670 0.196850 0.145820 -0.539795
O8    O     O_R   0.710330 0.803150 0.854180 -0.544327
C1    C     C_R   0.196335 0.525343 0.377381 0.699671
C2    C     C_R   0.803690 0.474920 0.622560 0.700187
C3    C     C_R   0.303357 0.026539 0.122072 0.704930
C4    C     C_R   0.695973 0.973868 0.876947 0.691290
O9    O     O_R   0.320550 0.694110 0.341970 -0.552810
O10   O     O_R   0.679450 0.305890 0.658030 -0.533745
O11   O     O_R   0.179450 0.194110 0.158030 -0.550397
O12   O     O_R   0.820550 0.805890 0.841970 -0.525000
O13   O     O_R   0.291860 0.861000 0.157170 -0.544780
O14   O     O_R   0.708140 0.139000 0.842830 -0.548046
O15   O     O_R   0.208140 0.361000 0.342830 -0.542824
O16   O     O_R   0.791860 0.639000 0.657170 -0.536528
C5    C     C_R   0.341465 0.526881 0.362651 0.780084
C6    C     C_R   0.658537 0.474281 0.637050 0.769590
C7    C     C_R   0.158005 0.024111 0.139766 0.769345
C8    C     C_R   0.841582 0.976025 0.862694 0.822840
O17   O     O_3   0.240460 0.529330 0.189380 -0.384556
O18   O     O_3   0.759540 0.470670 0.810620 -0.391767
O19   O     O_3   0.259540 0.029330 0.310620 -0.388594
O20   O     O_3   0.740460 0.970670 0.689380 -0.384218
V1    V     V_3+5 0.251770 0.805510 0.261240 1.369458
V2    V     V_3+5 0.748230 0.194490 0.738760 1.387106
V3    V     V_3+5 0.248230 0.305510 0.238760 1.392369
V4    V     V_3+5 0.751770 0.694490 0.761240 1.396085
C9    C     C_R   0.101654 0.009553 0.081273 -0.300025
C10   C     C_R   0.896502 0.992836 0.928256 -0.293428
C11   C     C_R   0.397475 0.525132 0.423404 -0.292263
C12   C     C_R   0.602516 0.486725 0.576284 -0.292966
C13   C     C_R   0.952465 0.026854 0.093103 0.379773
C14   C     C_R   0.044827 0.980431 0.917116 0.388302
C15   C     C_R   0.546195 0.510876 0.411677 0.385048
C16   C     C_R   0.454114 0.530715 0.588304 0.386593
C17   C     C_R   0.900798 0.028739 0.027522 0.280096
C18   C     C_R   0.096198 0.975805 0.981811 0.231389
C19   C     C_R   0.597815 0.518475 0.476471 0.292251
C20   C     C_R   0.402977 0.553534 0.523727 0.285195
C21   C     C_R   0.943876 0.980876 0.890548 0.351529
C22   C     C_R   0.054433 0.007923 0.122481 0.343071
C23   C     C_R   0.554801 0.480791 0.616232 0.345338
C24   C     C_R   0.444441 0.498181 0.383516 0.349200
C25   C     C_R   0.996725 0.994473 0.954196 -0.194460
C26   C     C_R   0.001426 0.011233 0.057411 -0.187330
C27   C     C_R   0.502364 0.508210 0.551737 -0.190980
C28   C     C_R   0.497521 0.507215 0.448146 -0.194823
C29   C     C_R   0.662061 0.981907 0.949180 -0.028535
C30   C     C_R   0.336355 0.025951 0.048370 -0.037193
C31   C     C_R   0.837819 0.487177 0.550799 -0.035872
C32   C     C_R   0.162894 0.517857 0.450165 -0.029885
C33   C     C_R   0.654740 0.982398 0.117085 -0.174992
C34   C     C_R   0.342998 0.073946 0.881636 -0.168145
C35   C     C_R   0.845229 0.515765 0.383559 -0.174230
C36   C     C_R   0.155677 0.478676 0.616765 -0.186759
C37   C     C_R   0.685331 0.953505 0.047379 -0.187537
C38   C     C_R   0.311386 0.051677 0.950557 -0.183064
C39   C     C_R   0.814390 0.473038 0.451623 -0.185792
C40   C     C_R   0.186466 0.471658 0.546162 -0.188919
C41   C     C_R   0.606493 0.023130 0.919806 -0.237159
C42   C     C_R   0.393336 0.026660 0.077563 -0.220546
C43   C     C_R   0.893645 0.526208 0.581914 -0.235307
C44   C     C_R   0.107362 0.560371 0.423454 -0.240486
C45   C     C_R   0.573438 0.040498 0.988871 0.075761
C46   C     C_R   0.426476 0.055414 0.009368 0.073178
C47   C     C_R   0.927114 0.551257 0.513985 0.076260
C48   C     C_R   0.074203 0.557348 0.492841 0.076378
C49   C     C_R   0.599341 0.027148 0.088851 0.140551
C50   C     C_R   0.400129 0.075835 0.910040 0.133452
C51   C     C_R   0.901080 0.557389 0.413909 0.132223
C52   C     C_R   0.100001 0.520700 0.591046 0.148724
C53   C     C_R   0.515617 0.065348 0.962413 0.024616
C54   C     C_R   0.484729 0.061998 0.036323 0.029829
C55   C     C_R   0.985369 0.561444 0.541310 0.046919
C56   C     C_R   0.016256 0.580004 0.467677 0.017356
C57   C     C_R   0.513134 0.067741 0.134642 -0.217042
C58   C     C_R   0.487447 0.089899 0.864800 -0.219205
C59   C     C_R   0.987803 0.610589 0.370763 -0.217086
C60   C     C_R   0.013802 0.541319 0.638927 -0.167531
C61   C     C_R   0.569511 0.053810 0.160046 -0.186993
C62   C     C_R   0.430893 0.098279 0.839710 -0.186793
C63   C     C_R   0.931280 0.598368 0.344591 -0.187218
C64   C     C_R   0.069923 0.521099 0.662826 -0.215827
H1    H     H_    0.589643 0.054445 0.236466 0.139311
H2    H     H_    0.410996 0.116683 0.763871 0.150946
H3    H     H_    0.911259 0.612007 0.268506 0.150175
H4    H     H_    0.089788 0.497941 0.738143 0.109096
H5    H     H_    0.410483 0.005737 0.153901 0.104331
H6    H     H_    0.590286 0.036608 0.842710 0.112388
H7    H     H_    0.091338 0.591148 0.347813 0.117576
H8    H     H_    0.909507 0.534551 0.659367 0.119332
H9    H     H_    0.267374 0.056857 0.927783 0.136367
H10   H     H_    0.727785 0.915511 0.070326 0.140246
H11   H     H_    0.229067 0.434382 0.566838 0.137635
H12   H     H_    0.771657 0.436673 0.427007 0.139947
H13   H     H_    0.674203 0.966625 0.193290 0.116139
H14   H     H_    0.322724 0.091710 0.805967 0.117799
H15   H     H_    0.825628 0.512823 0.306892 0.117060
H16   H     H_    0.175173 0.447262 0.691480 0.118410
H17   H     H_    0.492816 0.083551 0.193924 0.164992
H18   H     H_    0.507962 0.103347 0.805660 0.169069
H19   H     H_    0.008035 0.636710 0.312235 0.173346
H20   H     H_    0.993766 0.533149 0.698844 0.140955
O21   O     O_3   0.056968 0.964489 0.220818 -0.541142
C65   C     C_3   0.099562 0.053650 0.289307 0.097999
H21   H     H_    0.107087 0.198370 0.267439 0.103972
H22   H     H_    0.136788 0.969074 0.299815 0.156976
C66   C     C_3   0.086573 0.059976 0.390168 -0.721131
H23   H     H_    0.065443 0.930744 0.404451 0.240990
H24   H     H_    0.124961 0.074803 0.446654 0.195013
H25   H     H_    0.061158 0.181012 0.397980 0.205159
O22   O     O_3   0.938338 0.928865 0.793863 -0.527617
C67   C     C_3   0.926475 0.085511 0.732656 0.146893
H26   H     H_    0.954558 0.204146 0.758821 0.083568
H27   H     H_    0.884463 0.133612 0.727900 0.119159
C68   C     C_3   0.930594 0.031351 0.629980 -0.674297
H28   H     H_    0.897310 0.931909 0.598433 0.219792
H29   H     H_    0.926881 0.155883 0.582959 0.176872
H30   H     H_    0.970221 0.964925 0.630867 0.243205
O23   O     O_3   0.440679 0.435242 0.287439 -0.535946
C69   C     C_3   0.401841 0.528686 0.214772 0.105894
H31   H     H_    0.397480 0.677421 0.233299 0.087821
H32   H     H_    0.362247 0.455398 0.203248 0.163776
C70   C     C_3   0.416749 0.517637 0.115364 -0.720487
H33   H     H_    0.441949 0.394275 0.111129 0.252024
H34   H     H_    0.379223 0.507082 0.056558 0.194383
H35   H     H_    0.438940 0.644296 0.100623 0.195098
O24   O     O_3   0.556031 0.424139 0.712434 -0.539165
C71   C     C_3   0.598935 0.503664 0.784547 0.106349
H36   H     H_    0.608606 0.648845 0.766574 0.105833
H37   H     H_    0.635107 0.413748 0.794291 0.153508
C72   C     C_3   0.584857 0.506808 0.884639 -0.723387
H38   H     H_    0.557814 0.388899 0.892422 0.248166
H39   H     H_    0.622693 0.496906 0.942558 0.195714
H40   H     H_    0.565053 0.638341 0.897340 0.199489
O25   O     O_3   0.142261 0.933020 0.947509 -0.557896
C73   C     C_3   0.145104 0.737616 0.939535 0.124577
H41   H     H_    0.111607 0.684210 0.880373 0.140868
H42   H     H_    0.142379 0.667262 0.008728 0.128578
C74   C     C_3   0.199181 0.685583 0.915781 -0.728825
H43   H     H_    0.233376 0.728928 0.976190 0.231900
H44   H     H_    0.200704 0.532766 0.906012 0.173705
H45   H     H_    0.203926 0.754489 0.847698 0.211706
O26   O     O_3   0.853032 0.045555 0.061226 -0.546770
C75   C     C_3   0.846479 0.231903 0.089675 0.092219
H46   H     H_    0.875845 0.333081 0.068638 0.089745
H47   H     H_    0.850325 0.235818 0.169586 0.147635
C76   C     C_3   0.789763 0.301297 0.045525 -0.712572
H48   H     H_    0.759101 0.225286 0.076154 0.209390
H49   H     H_    0.787141 0.451126 0.062704 0.177814
H50   H     H_    0.781167 0.284240 0.966009 0.263203
O27   O     O_3   0.355808 0.574049 0.559144 -0.545454
C77   C     C_3   0.351672 0.758697 0.592281 0.096636
H51   H     H_    0.381305 0.859024 0.571471 0.090773
H52   H     H_    0.357233 0.756266 0.672490 0.146788
C78   C     C_3   0.294973 0.835052 0.554117 -0.703524
H53   H     H_    0.263887 0.742363 0.573968 0.213619
H54   H     H_    0.291912 0.973866 0.586932 0.169119
H55   H     H_    0.287093 0.851661 0.474548 0.260452
O28   O     O_3   0.645274 0.537811 0.441487 -0.545771
C79   C     C_3   0.651805 0.724673 0.412978 0.085921
H56   H     H_    0.622204 0.823536 0.433503 0.090637
H57   H     H_    0.648173 0.727571 0.333154 0.143585
C80   C     C_3   0.708409 0.800201 0.456820 -0.703317
H58   H     H_    0.738851 0.734434 0.422274 0.203064
H59   H     H_    0.709838 0.952118 0.443774 0.180723
H60   H     H_    0.718458 0.776162 0.535657 0.265838
O29   O     O_3   0.952890 0.998675 0.190386 -0.517081
C81   C     C_3   0.961205 0.166547 0.244090 0.208256
H61   H     H_    0.937167 0.283788 0.208340 0.036186
H62   H     H_    0.003503 0.217405 0.254357 0.140892
C82   C     C_3   0.947260 0.129954 0.342458 -0.684435
H63   H     H_    0.965774 0.998351 0.373689 0.243794
H64   H     H_    0.963436 0.241848 0.394857 0.180574
H65   H     H_    0.902390 0.119105 0.333931 0.209529
O30   O     O_3   0.041496 0.947514 0.818644 -0.524905
C83   C     C_3   0.068946 0.088108 0.776653 0.147308
H66   H     H_    0.099867 0.170491 0.829291 0.114486
H67   H     H_    0.038813 0.188206 0.738269 0.112781
C84   C     C_3   0.096679 0.001754 0.701749 -0.675145
H68   H     H_    0.066078 0.933129 0.642991 0.219312
H69   H     H_    0.118184 0.111044 0.668786 0.175084
H70   H     H_    0.126772 0.897512 0.736734 0.231463
O31   O     O_3   0.545060 0.472846 0.314901 -0.515421
C85   C     C_3   0.538577 0.636212 0.258260 0.211946
H71   H     H_    0.561626 0.757245 0.293852 0.032433
H72   H     H_    0.496434 0.685026 0.244201 0.138548
C86   C     C_3   0.555015 0.593842 0.162490 -0.684457
H73   H     H_    0.538517 0.456641 0.133631 0.242822
H74   H     H_    0.538594 0.698604 0.106700 0.180641
H75   H     H_    0.600101 0.591355 0.173958 0.207806
O32   O     O_3   0.454043 0.495950 0.684807 -0.515414
C87   C     C_3   0.465413 0.659117 0.741945 0.203168
H76   H     H_    0.445074 0.784268 0.707173 0.039349
H77   H     H_    0.508926 0.696754 0.755416 0.136686
C88   C     C_3   0.448577 0.623545 0.838068 -0.686550
H78   H     H_    0.463965 0.487533 0.868407 0.242341
H79   H     H_    0.465656 0.730979 0.892621 0.181711
H80   H     H_    0.403483 0.622102 0.826644 0.208694

loop_
_geom_bond_atom_site_label_1
_geom_bond_atom_site_label_2
_ccdc_geom_bond_type
C34   C38   A    
C59   C63   A    
O1    C5    A    
C85   H71   S    
C9    C22   A    
O24   C71   S    
C63   H3    S    
C46   C54   A    
O22   C67   S    
O13   V1    S    
C80   H58   S    
O3    C7    A    
C37   H10   S    
C43   H8    S    
C48   C52   A    
O15   V3    S    
C74   H45   S    
C71   C72   S    
C47   C55   A    
C74   H43   S    
C14   C25   A    
C53   C54   A    
O7    C3    A    
C86   H73   S    
C72   H39   S    
O27   C77   S    
C14   O30   S    
C9    C18   A    
O9    V1    S    
C59   H19   S    
C14   C18   A    
O16   V4    S    
C55   C60   A    
C15   O31   S    
C84   H69   S    
O19   V1    S    
C16   O32   S    
O30   C83   S    
O1    V3    S    
C12   C23   A    
O2    V4    S    
C88   H78   S    
C32   C44   A    
C33   C49   A    
O3    V1    S    
C67   H26   S    
C68   H30   S    
C85   C86   S    
C78   H54   S    
C24   O23   S    
C81   H61   S    
C29   C37   A    
C1    O15   A    
C40   H11   S    
C64   H4    S    
C2    O16   A    
C86   H74   S    
C75   C76   S    
C31   C39   A    
C46   C50   A    
C69   H32   S    
C32   C40   A    
C45   C49   A    
C87   H76   S    
C34   H14   S    
C76   H49   S    
C29   C41   A    
C52   C64   A    
C16   C20   A    
C43   C47   A    
C4    C29   S    
C77   C78   S    
C44   C48   A    
C66   H25   S    
C86   H75   S    
O11   C7    A    
C15   C28   A    
C82   H64   S    
O12   C8    A    
C23   O24   S    
C79   H57   S    
C20   O27   S    
C88   H79   S    
C73   C74   S    
C79   H56   S    
O32   C87   S    
C10   C17   A    
O10   V2    S    
C56   C59   A    
C11   C24   A    
C74   H44   S    
C57   C61   A    
C78   H53   S    
O5    V1    S    
C19   O28   S    
C65   H22   S    
C72   H40   S    
C57   H17   S    
C44   H7    S    
O7    V3    S    
C27   C28   A    
O8    V4    S    
C62   H2    S    
C10   C21   A    
C61   H1    S    
O18   V4    S    
C84   H70   S    
C23   C27   A    
C30   C38   A    
C69   C70   S    
C7    C9    S    
O29   C81   S    
C36   C52   A    
C8    C10   S    
C65   H21   S    
C83   C84   S    
C77   H51   S    
O5    C1    A    
C39   H12   S    
C11   C20   A    
C70   H35   S    
C38   H9    S    
C31   C43   A    
C65   C66   S    
C21   C25   A    
O4    C8    A    
O8    C4    A    
C82   H65   S    
C18   O25   S    
O9    C5    A    
C1    C32   S    
C50   C62   A    
C76   H50   S    
C33   C37   A    
C2    C31   S    
C81   C82   S    
C49   C61   A    
C68   H28   S    
C3    C30   S    
C42   H5    S    
C5    C11   S    
C51   C63   A    
C41   H6    S    
O6    V2    S    
C82   H63   S    
O25   C73   S    
O23   C69   S    
C88   H80   S    
C73   H42   S    
O10   C6    A    
C35   C51   A    
C78   H55   S    
C6    C12   S    
C34   C50   A    
C66   H23   S    
C80   H59   S    
C21   O22   S    
C3    O13   A    
C85   H72   S    
C83   H67   S    
C75   H46   S    
O17   V3    S    
C60   C64   A    
O6    C2    A    
C15   C19   A    
O11   V3    S    
C71   H36   S    
C30   C42   A    
O12   V4    S    
C16   C27   A    
C33   H13   S    
C72   H38   S    
C22   C26   A    
C35   C39   A    
C36   C40   A    
C35   H15   S    
O2    C6    A    
O20   V2    S    
C70   H33   S    
C48   C56   A    
C58   C62   A    
O26   C75   S    
C47   C51   A    
C13   C26   A    
C77   H52   S    
C54   C57   A    
C45   C53   A    
C84   H68   S    
C42   C46   A    
C53   C58   A    
C69   H31   S    
C41   C45   A    
C60   H20   S    
C81   H62   S    
C71   H37   S    
C87   C88   S    
C75   H47   S    
C58   H18   S    
C13   C17   A    
O31   C85   S    
C67   H27   S    
C68   H29   S    
O14   V2    S    
C13   O29   S    
C55   C56   A    
O21   C65   S    
O28   C79   S    
C24   C28   A    
C17   O26   S    
C79   C80   S    
C25   C26   A    
C22   O21   S    
C4    O14   A    
C73   H41   S    
C12   C19   A    
C87   H77   S    
C80   H60   S    
C70   H34   S    
C76   H48   S    
C36   H16   S    
C67   C68   S    
O4    V2    S    
C83   H66   S    
C66   H24   S    
