data_mof_unit_32159.cif
_audit_creation_date              2012-10-26T20:18:17-0400
_audit_creation_method            fapswitch 2.2
_symmetry_space_group_name_H-M    P1
_symmetry_Int_Tables_number       1
_space_group_crystal_system       triclinic
_cell_length_a                    23.566965
_cell_length_b                    8.743015
_cell_length_c                    7.41509
_cell_angle_alpha                 103.059173
_cell_angle_beta                  93.569124
_cell_angle_gamma                 92.512123
_cell_volume                      1482.81464403

loop_
_atom_site_label
_atom_site_type_symbol
_atom_type_description
_atom_site_fract_x
_atom_site_fract_y
_atom_site_fract_z
_atom_type_partial_charge
C1    C     C_R   0.497665 0.200104 0.454255 0.591355
C2    C     C_R   0.705669 0.558739 0.652669 -0.107082
C3    C     C_R   0.235273 0.438760 0.344893 0.274837
C4    C     C_R   0.764728 0.561108 0.655137 0.274840
C5    C     C_R   0.208929 0.499563 0.508531 0.194081
C6    C     C_R   0.791072 0.500296 0.491502 0.194079
C7    C     C_2   0.489022 0.034389 0.433850 0.186670
C8    C     C_2   0.510978 0.965611 0.566150 0.186672
C9    C     C_R   0.390993 0.502189 0.504198 0.576601
C10   C     C_R   0.609007 0.497806 0.495801 0.576594
C11   C     C_R   0.883568 0.639685 0.524921 0.470981
C12   C     C_R   0.502335 0.799896 0.545744 0.591367
C13   C     C_R   0.116433 0.360168 0.475109 0.470987
C14   C     C_R   0.877481 0.359341 0.467454 0.480102
C15   C     C_R   0.122520 0.640512 0.532573 0.480093
C16   C     C_R   0.936992 0.354643 0.457390 0.063660
C17   C     C_R   0.063010 0.645211 0.542640 0.063662
C18   C     C_R   0.970016 0.499104 0.498420 -0.054198
C19   C     C_R   0.029986 0.500749 0.501614 -0.054197
C20   C     C_R   0.943117 0.642264 0.535873 0.013238
C21   C     C_R   0.056885 0.357589 0.464160 0.013236
C22   C     C_R   0.964437 0.211511 0.407601 0.082406
C23   C     C_R   0.242449 0.562517 0.674959 0.289293
C24   C     C_R   0.035564 0.788343 0.592429 0.082406
C25   C     C_R   0.024040 0.214966 0.414401 -0.106983
C26   C     C_R   0.975961 0.784888 0.585631 -0.106981
C27   C     C_R   0.757552 0.437380 0.325061 0.289299
C28   C     C_R   0.302148 0.565382 0.677510 0.228863
C29   C     C_R   0.697853 0.434581 0.322487 0.228876
C30   C     C_R   0.328496 0.503466 0.511843 -0.060572
C31   C     C_R   0.671504 0.496493 0.488158 -0.060574
C32   C     C_R   0.294332 0.441168 0.347348 -0.107095
Cl1   Cl    Cl    0.209217 0.638454 0.881045 -0.383209
Cl2   Cl    Cl    0.790786 0.361426 0.118984 -0.383201
Cl3   Cl    Cl    0.342154 0.653057 0.888517 -0.403158
Cl4   Cl    Cl    0.657849 0.347030 0.111436 -0.403213
Cl5   Cl    Cl    0.195187 0.359498 0.133329 -0.425118
Cl6   Cl    Cl    0.804814 0.640366 0.866702 -0.425112
Cl7   Cl    Cl    0.441398 0.937252 0.242780 -0.459545
Cl8   Cl    Cl    0.558602 0.062747 0.757220 -0.459555
Cu1   Cu    Cu3+1 0.506340 0.517380 0.684380 1.145793
Cu2   Cu    Cu3+1 0.493660 0.482620 0.315620 1.145790
H1    H     H_    0.044744 0.105254 0.376628 0.185174
H2    H     H_    0.040954 0.029276 0.683682 0.225638
H3    H     H_    0.955257 0.894600 0.623404 0.185172
H4    H     H_    0.313533 0.392975 0.219226 0.208050
H5    H     H_    0.686469 0.606936 0.780793 0.208070
H6    H     H_    0.455044 0.380207 0.948750 0.259869
H7    H     H_    0.544956 0.619793 0.051250 0.259878
H8    H     H_    0.911358 0.065445 0.214470 0.290917
H9    H     H_    0.959048 0.970578 0.316353 0.225639
H10   H     H_    0.088647 0.934407 0.785551 0.290922
N1    N     N_R   0.852129 0.499896 0.494645 -0.372835
N2    N     N_R   0.147872 0.499957 0.505389 -0.372837
N3    N     N_2   0.484110 0.456420 0.038520 -0.207105
N4    N     N_2   0.515890 0.543580 0.961480 -0.207099
N5    N     N_3   0.932100 0.063648 0.342752 -0.516166
N6    N     N_3   0.067902 0.936206 0.657274 -0.516169
O1    O     O_R   0.504120 0.286130 0.619770 -0.493411
O2    O     O_2   0.142858 0.224057 0.455162 -0.392772
O3    O     O_2   0.844958 0.225532 0.452395 -0.367109
O4    O     O_2   0.155042 0.774320 0.547618 -0.367111
O5    O     O_R   0.495880 0.713870 0.380230 -0.493410
O6    O     O_R   0.493410 0.256770 0.308360 -0.453715
O7    O     O_R   0.506590 0.743230 0.691640 -0.453707
O8    O     O_R   0.423230 0.514630 0.655730 -0.472401
O9    O     O_R   0.576770 0.485370 0.344270 -0.472390
O10   O     O_R   0.412530 0.485280 0.344320 -0.492150
O11   O     O_R   0.587470 0.514720 0.655680 -0.492149
O12   O     O_2   0.857144 0.775795 0.544857 -0.392784

loop_
_geom_bond_atom_site_label_1
_geom_bond_atom_site_label_2
_ccdc_geom_bond_type
C19   C21   A    
H6    N3    S    
C2    C4    A    
N3    N4    D    
C10   O11   A    
Cu1   N4    S    
Cu1   O8    S    
H9    N5    S    
C2    H5    S    
C27   C29   A    
H7    N4    S    
Cu1   Cu2   S    
H2    N6    S    
C6    C27   A    
C5    C23   A    
C8    C12   S    
C16   C22   A    
C25   H1    S    
C22   N5    S    
C28   C30   A    
C11   O12   S    
C13   C21   A    
C7    C8    D    
C29   C31   A    
C13   O2    S    
C10   O9    A    
C23   C28   A    
Cu2   O10   S    
C14   O3    S    
C29   Cl4   S    
Cu1   O1    S    
C21   C25   A    
Cu2   O9    S    
H10   N6    S    
C9    C30   S    
C10   C31   S    
C4    C6    A    
C17   C19   A    
C15   O4    S    
C24   C26   A    
C13   N2    A    
C18   C20   A    
C1    O1    A    
C27   Cl2   S    
C3    C32   A    
Cu2   N3    S    
C14   C16   A    
C11   C20   A    
C9    O10   A    
C17   C24   A    
C6    N1    S    
Cu1   O11   S    
C30   C32   A    
C15   N2    A    
Cu2   O6    S    
C5    N2    S    
C14   N1    A    
C3    Cl5   S    
C24   N6    S    
C18   C19   A    
C12   O7    A    
C1    O6    A    
C15   C17   A    
C12   O5    A    
C7    Cl7   S    
C9    O8    A    
Cu1   O7    S    
C8    Cl8   S    
C26   H3    S    
C3    C5    A    
C1    C7    S    
H8    N5    S    
C32   H4    S    
Cu2   O5    S    
C16   C18   A    
C23   Cl1   S    
C28   Cl3   S    
C4    Cl6   S    
C2    C31   A    
C20   C26   A    
C22   C25   A    
C11   N1    A    
