data_mof_unit_56439.cif
_audit_creation_date              2012-12-11T15:46:59-0500
_audit_creation_method            fapswitch 2.2
_symmetry_space_group_name_H-M    P1
_symmetry_Int_Tables_number       1
_space_group_crystal_system       triclinic
_cell_length_a                    11.558863
_cell_length_b                    11.546096
_cell_length_c                    19.547747
_cell_angle_alpha                 90.435151
_cell_angle_beta                  90.075716
_cell_angle_gamma                 59.901742
_cell_volume                      2257.00462447

loop_
_atom_site_label
_atom_site_type_symbol
_atom_type_description
_atom_site_fract_x
_atom_site_fract_y
_atom_site_fract_z
_atom_type_partial_charge
C1    C     C_R   0.640476 0.117298 0.599248 0.546599
C2    C     C_1   0.653062 0.149589 0.668621 0.003607
C3    C     C_R   0.654468 0.688614 0.187595 0.017730
C4    C     C_R   0.612501 0.745985 0.598615 0.546806
C5    C     C_R   0.530592 0.737971 0.220061 0.024944
C6    C     C_R   0.523565 0.746771 0.289864 0.049465
C7    C     C_R   0.755641 0.682046 0.297185 -0.177840
C8    C     C_R   0.763162 0.676457 0.225942 -0.169871
C9    C     C_3   0.425877 0.697009 0.217448 -0.268970
C10   C     C_3   0.422229 0.703705 0.294586 -0.273654
C11   C     C_R   0.636914 0.708909 0.329726 0.023632
C12   C     C_1   0.641341 0.703841 0.667984 0.003903
C13   C     C_R   0.157485 0.185690 0.188157 0.016660
C14   C     C_R   0.213044 0.254249 0.220463 0.018765
C15   C     C_R   0.238924 0.238660 0.289340 0.044081
C16   C     C_R   0.241073 0.145268 0.598183 0.546813
C17   C     C_R   0.176256 0.069486 0.294834 -0.163327
C18   C     C_R   0.150205 0.084096 0.224586 -0.155165
C19   C     C_3   0.166544 0.400655 0.224100 -0.273864
C20   C     C_3   0.192874 0.383384 0.300086 -0.270903
C21   C     C_R   0.211631 0.154247 0.328522 0.021576
C22   C     C_R   0.689364 0.196007 0.199891 0.017665
C23   C     C_1   0.126649 0.198838 0.859303 0.003908
C24   C     C_R   0.797238 0.094261 0.235415 0.024039
C25   C     C_R   0.791003 0.077371 0.304262 0.013377
C26   C     C_R   0.574751 0.277823 0.308618 -0.157110
C27   C     C_R   0.581390 0.294524 0.237998 -0.161377
C28   C     C_R   0.646097 0.114120 0.403592 0.544694
C29   C     C_3   0.875354 0.947108 0.221137 -0.252230
C30   C     C_3   0.868369 0.927728 0.297642 -0.122906
C31   C     C_R   0.674537 0.161178 0.340697 0.007568
C32   C     C_R   0.081705 0.231197 0.928600 0.546498
C33   C     C_R   0.683899 0.604385 0.929519 0.544538
C34   C     C_1   0.171532 0.170273 0.727708 -0.031079
C35   C     C_R   0.708397 0.206706 0.930140 0.547165
C36   C     C_R   0.084474 0.234697 0.124690 0.548775
C37   C     C_R   0.681178 0.615507 0.124058 0.549706
C38   C     C_R   0.710708 0.212861 0.128348 0.546154
C39   C     C_R   0.615309 0.741547 0.401446 0.542939
C40   C     C_R   0.248199 0.138958 0.400101 0.544380
C41   C     C_1   0.670295 0.646481 0.860143 0.004721
C42   C     C_1   0.654833 0.683629 0.728431 -0.031414
C43   C     C_1   0.663400 0.666667 0.799696 -0.031137
C44   C     C_3   0.003518 0.864223 0.335805 -0.242853
C45   C     C_1   0.150132 0.182309 0.798946 -0.030867
C46   C     C_3   0.038969 0.727292 0.364271 -0.309850
C47   C     C_3   0.171190 0.662342 0.402924 -0.448466
C48   C     C_1   0.195353 0.160878 0.667373 0.003276
C49   C     C_1   0.678563 0.191369 0.860777 0.003766
C50   C     C_1   0.658608 0.167193 0.729014 -0.031033
C51   C     C_1   0.665674 0.180962 0.800328 -0.030793
Cr1   Cr    Cr6+3 0.404720 0.198220 0.499960 1.017931
Cr2   Cr    Cr6+3 0.698290 0.897110 0.500380 1.012051
Cr3   Cr    Cr6+3 0.396970 0.904720 0.499610 1.018804
Cr4   Cr    Cr6+3 0.926290 0.152010 0.028150 1.023609
Cr5   Cr    Cr6+3 0.921440 0.451830 0.027490 1.023163
Cr6   Cr    Cr6+3 0.626370 0.446880 0.028730 1.022603
H1    H     H_    0.234711 0.426119 0.196421 0.133415
H2    H     H_    0.331471 0.774805 0.193649 0.129054
H3    H     H_    0.325837 0.783006 0.315696 0.140784
H4    H     H_    0.463041 0.603966 0.318912 0.130957
H5    H     H_    0.160905 0.998946 0.323521 0.109387
H6    H     H_    0.111894 0.025255 0.200783 0.129645
H7    H     H_    0.059072 0.464730 0.212353 0.153261
H8    H     H_    0.842681 0.661508 0.326711 0.108702
H9    H     H_    0.817744 0.912038 0.190271 0.129640
H10   H     H_    0.255004 0.635522 0.367003 0.140564
H11   H     H_    0.170591 0.730969 0.443235 0.159593
H12   H     H_    0.274306 0.401229 0.316533 0.139476
H13   H     H_    0.187073 0.569096 0.427523 0.148805
H14   H     H_    0.958989 0.738676 0.399898 0.185892
H15   H     H_    0.046529 0.661038 0.321065 0.150801
H16   H     H_    0.085269 0.851708 0.301325 0.129986
H17   H     H_    0.997352 0.930017 0.379225 0.166802
H18   H     H_    0.100355 0.434399 0.331706 0.134923
H19   H     H_    0.487316 0.349933 0.336738 0.119514
H20   H     H_    0.500360 0.380111 0.213145 0.114465
H21   H     H_    0.976641 0.915295 0.200687 0.130755
H22   H     H_    0.804779 0.883880 0.309797 0.169202
H23   H     H_    0.857689 0.648364 0.201761 0.125057
H24   H     H_    0.461794 0.593814 0.198635 0.162959
O1    O     O_R   0.267750 0.231960 0.575440 -0.506112
O2    O     O_R   0.596230 0.579400 0.952760 -0.505515
O3    O     O_R   0.639160 0.321170 0.958690 -0.492955
O4    O     O_R   0.527290 0.186640 0.570530 -0.494827
O5    O     O_R   0.821370 0.124220 0.104400 -0.520014
O6    O     O_R   0.037020 0.167050 0.097880 -0.509279
O7    O     O_R   0.056310 0.349620 0.102920 -0.519917
O8    O     O_R   0.797790 0.564880 0.097980 -0.509271
O9    O     O_R   0.596000 0.584270 0.104310 -0.525273
O10   O     O_R   0.638950 0.325690 0.099180 -0.506270
O11   O     O_3   0.824700 0.350240 0.028120 -0.252521
O12   O     O_R   0.685950 0.784660 0.430010 -0.515433
O13   O     O_R   0.728110 0.003450 0.576380 -0.505813
O14   O     O_R   0.682980 0.789190 0.570500 -0.493740
O15   O     O_R   0.499300 0.771880 0.575540 -0.505532
O16   O     O_R   0.285350 0.030870 0.569740 -0.494235
O17   O     O_R   0.270960 0.227070 0.423890 -0.521616
O18   O     O_R   0.530270 0.182120 0.430040 -0.505627
O19   O     O_R   0.731320 0.998570 0.424830 -0.526832
O20   O     O_R   0.502510 0.767000 0.423980 -0.518084
O21   O     O_R   0.288320 0.026340 0.429250 -0.505958
O22   O     O_3   0.499990 0.000020 0.499980 -0.250642
O23   O     O_R   0.821590 0.119350 0.952850 -0.505299
O24   O     O_R   0.037230 0.162540 0.957390 -0.494807
O25   O     O_R   0.056530 0.344750 0.951370 -0.504554
O26   O     O_R   0.798000 0.560370 0.957490 -0.494715

loop_
_geom_bond_atom_site_label_1
_geom_bond_atom_site_label_2
_ccdc_geom_bond_type
C25   C31   A    
Cr1   O22   S    
C23   C45   T    
Cr6   O11   S    
Cr2   O14   S    
Cr3   O20   S    
C19   C20   S    
C33   O26   A    
C16   C48   S    
C7    C8    A    
C47   H13   S    
C36   O7    A    
C7    C11   A    
C26   C27   A    
C29   C30   S    
C37   O9    A    
C38   O5    A    
Cr1   O4    S    
C40   O17   A    
C5    C6    A    
C11   C39   S    
C18   H6    S    
Cr5   O7    S    
C22   C38   S    
C1    C2    S    
C24   C29   S    
C39   O12   A    
C12   C42   T    
C2    C50   T    
C4    O15   A    
C29   H21   S    
C1    O13   A    
C49   C51   T    
C35   C49   S    
C26   H19   S    
Cr6   O2    S    
Cr3   O16   S    
Cr1   O1    S    
C4    C12   S    
C9    C10   S    
C46   H15   S    
C28   O19   A    
C26   C31   A    
Cr2   O19   S    
C32   O25   A    
C13   C14   A    
C41   C43   T    
C30   C44   S    
C47   H10   S    
C44   C46   S    
C39   O20   A    
C19   H1    S    
C1    O4    A    
C15   C20   S    
Cr6   O9    S    
Cr2   O12   S    
Cr3   O22   S    
C24   C25   A    
C13   C36   S    
C3    C8    A    
C6    C11   A    
C50   C51   S    
C38   O10   A    
C17   C21   A    
C20   H18   S    
C9    H2    S    
C10   H3    S    
Cr5   O26   S    
C5    C9    S    
Cr4   O11   S    
C17   H5    S    
C7    H8    S    
C4    O14   A    
Cr5   O11   S    
C19   H7    S    
C16   O1    A    
C17   C18   A    
Cr6   O3    S    
C34   C45   S    
C44   H17   S    
C33   O2    A    
Cr5   O25   S    
C46   H14   S    
C30   H22   S    
C13   C18   A    
C28   O18   A    
Cr5   O8    S    
Cr4   O24   S    
C35   O23   A    
C32   O24   A    
C22   C24   A    
C20   H12   S    
C10   H4    S    
C34   C48   T    
C42   C43   S    
C3    C5    A    
C47   H11   S    
C25   C30   S    
C46   C47   S    
Cr6   O10   S    
Cr2   O13   S    
Cr3   O15   S    
C14   C19   S    
Cr3   O21   S    
C28   C31   S    
C27   H20   S    
C6    C10   S    
C35   O3    A    
Cr1   O18   S    
C37   O8    A    
C22   C27   A    
C33   C41   S    
C23   C32   S    
Cr4   O5    S    
C21   C40   S    
Cr2   O22   S    
Cr4   O23   S    
Cr1   O17   S    
Cr4   O6    S    
C44   H16   S    
C16   O16   A    
C40   O21   A    
C29   H9    S    
C36   O6    A    
C15   C21   A    
C3    C37   S    
C8    H23   S    
C14   C15   A    
C9    H24   S    
