data_mof_unit_43181.cif
_audit_creation_date              2012-12-11T16:44:17-0500
_audit_creation_method            fapswitch 2.2
_symmetry_space_group_name_H-M    P1
_symmetry_Int_Tables_number       1
_space_group_crystal_system       triclinic
_cell_length_a                    27.147898
_cell_length_b                    7.19977
_cell_length_c                    22.78438
_cell_angle_alpha                 90.00237
_cell_angle_beta                  101.485654
_cell_angle_gamma                 89.998472
_cell_volume                      4364.22228449

loop_
_atom_site_label
_atom_site_type_symbol
_atom_type_description
_atom_site_fract_x
_atom_site_fract_y
_atom_site_fract_z
_atom_type_partial_charge
O1    O     O_R   0.707300 0.594030 0.176840 -0.530005
O2    O     O_R   0.292700 0.405970 0.823160 -0.530005
O3    O     O_R   0.792700 0.094030 0.323160 -0.529979
O4    O     O_R   0.207300 0.905970 0.676840 -0.529979
O5    O     O_R   0.697330 0.262360 0.295660 -0.535833
O6    O     O_R   0.302670 0.737640 0.704340 -0.535833
O7    O     O_R   0.802670 0.762360 0.204340 -0.535846
O8    O     O_R   0.197330 0.237640 0.795660 -0.535846
C1    C     C_R   0.684013 0.432710 0.310475 0.710172
C2    C     C_R   0.315987 0.567290 0.689524 0.710172
C3    C     C_R   0.815983 0.932700 0.189520 0.710183
C4    C     C_R   0.184017 0.067300 0.810480 0.710182
O9    O     O_R   0.701410 0.264250 0.175600 -0.528750
O10   O     O_R   0.298590 0.735750 0.824400 -0.528750
O11   O     O_R   0.798590 0.764250 0.324400 -0.528750
O12   O     O_R   0.201410 0.235750 0.675600 -0.528751
O13   O     O_R   0.796800 0.094950 0.202240 -0.516569
O14   O     O_R   0.203200 0.905050 0.797760 -0.516569
O15   O     O_R   0.703200 0.594950 0.297760 -0.516577
O16   O     O_R   0.296800 0.405050 0.702240 -0.516577
C5    C     C_R   0.689928 0.432493 0.153308 0.729458
C6    C     C_R   0.310072 0.567507 0.846692 0.729459
C7    C     C_R   0.810072 0.932497 0.346692 0.729540
C8    C     C_R   0.189928 0.067502 0.653307 0.729540
O17   O     O_3   0.781290 0.427390 0.258880 -0.361412
O18   O     O_3   0.218710 0.572610 0.741120 -0.361412
O19   O     O_3   0.718710 0.927390 0.241120 -0.361400
O20   O     O_3   0.281290 0.072610 0.758880 -0.361400
V1    V     V_3+5 0.744190 0.152150 0.248350 1.547830
V2    V     V_3+5 0.255810 0.847850 0.751650 1.547830
V3    V     V_3+5 0.755810 0.652150 0.251650 1.547818
V4    V     V_3+5 0.244190 0.347850 0.748350 1.547818
C9    C     C_R   0.155566 0.062283 0.594340 -0.085329
C10   C     C_R   0.844434 0.937717 0.405660 -0.085329
C11   C     C_R   0.344435 0.562307 0.905659 -0.085317
C12   C     C_R   0.655565 0.437692 0.094340 -0.085318
C13   C     C_R   0.139937 0.116413 0.487566 -0.120652
C14   C     C_R   0.860063 0.883588 0.512434 -0.120653
C15   C     C_R   0.360068 0.616547 0.012429 -0.120669
C16   C     C_R   0.639931 0.383446 0.987571 -0.120669
C17   C     C_R   0.173176 0.109462 0.542620 0.124693
C18   C     C_R   0.826824 0.890538 0.457380 0.124693
C19   C     C_R   0.326829 0.609573 0.957377 0.124674
C20   C     C_R   0.673171 0.390422 0.042623 0.124675
C21   C     C_R   0.104374 0.021684 0.590208 -0.208571
C22   C     C_R   0.895626 0.978316 0.409792 -0.208571
C23   C     C_R   0.395625 0.521656 0.909793 -0.208603
C24   C     C_R   0.604375 0.478345 0.090207 -0.208603
C25   C     C_R   0.069439 0.029780 0.534452 0.075745
C26   C     C_R   0.930561 0.970220 0.465548 0.075745
C27   C     C_R   0.430562 0.529793 0.965547 0.075745
C28   C     C_R   0.569438 0.470204 0.034453 0.075745
C29   C     C_R   0.088326 0.078999 0.482598 0.039221
C30   C     C_R   0.911674 0.921002 0.517402 0.039221
C31   C     C_R   0.411677 0.579074 0.017399 0.039243
C32   C     C_R   0.588323 0.420919 0.982601 0.039243
C33   C     C_R   0.016545 0.993038 0.528635 0.026192
C34   C     C_R   0.983455 0.006962 0.471365 0.026192
C35   C     C_R   0.483455 0.493029 0.971365 0.026200
C36   C     C_R   0.516545 0.506967 0.028635 0.026199
C37   C     C_R   0.004296 0.057070 0.421674 -0.175157
C38   C     C_R   0.995704 0.942930 0.578326 -0.175158
C39   C     C_R   0.495705 0.557101 0.078327 -0.175186
C40   C     C_R   0.504295 0.442891 0.921673 -0.175187
C41   C     C_R   0.055335 0.091773 0.426722 0.157717
C42   C     C_R   0.944665 0.908227 0.573278 0.157717
C43   C     C_R   0.444667 0.591847 0.073276 0.157684
C44   C     C_R   0.555332 0.408143 0.926724 0.157684
H1    H     H_    0.906800 0.011346 0.368266 0.128555
H2    H     H_    0.093200 0.988653 0.631734 0.128556
H3    H     H_    0.593205 0.511456 0.131730 0.128464
H4    H     H_    0.406795 0.488550 0.868269 0.128464
H5    H     H_    0.155227 0.153490 0.448897 0.183140
H6    H     H_    0.844773 0.846511 0.551103 0.183140
H7    H     H_    0.344780 0.653689 0.051095 0.183142
H8    H     H_    0.655220 0.346302 0.948905 0.183142
H9    H     H_    0.981829 0.071628 0.377422 0.163475
H10   H     H_    0.018171 0.928372 0.622578 0.163475
H11   H     H_    0.518171 0.571650 0.122580 0.163389
H12   H     H_    0.481828 0.428338 0.877420 0.163390
C45   C     C_R   0.893450 0.081874 0.163055 0.154556
C46   C     C_R   0.106550 0.918127 0.836945 0.154555
C47   C     C_R   0.606613 0.582198 0.337037 0.154627
C48   C     C_R   0.393387 0.417802 0.662962 0.154627
C49   C     C_R   0.928475 0.093282 0.125522 -0.127152
C50   C     C_R   0.071525 0.906719 0.874478 -0.127152
C51   C     C_R   0.571595 0.593597 0.374578 -0.127207
C52   C     C_R   0.428405 0.406403 0.625422 -0.127207
H13   H     H_    0.957334 0.199137 0.134314 0.143998
H14   H     H_    0.042666 0.800864 0.865686 0.143998
H15   H     H_    0.542797 0.699696 0.365870 0.143917
H16   H     H_    0.457203 0.300303 0.634130 0.143917
C53   C     C_R   0.927378 0.967638 0.078066 0.047127
C54   C     C_R   0.072622 0.032362 0.921934 0.047126
C55   C     C_R   0.572616 0.467645 0.421931 0.047207
C56   C     C_R   0.427384 0.532355 0.578069 0.047207
C57   C     C_R   0.890761 0.826724 0.069570 -0.112110
C58   C     C_R   0.109239 0.173275 0.930430 -0.112110
C59   C     C_R   0.609149 0.326434 0.430318 -0.112141
C60   C     C_R   0.390851 0.673566 0.569682 -0.112140
C61   C     C_R   0.855505 0.814556 0.106724 -0.135401
C62   C     C_R   0.144495 0.185444 0.893277 -0.135401
C63   C     C_R   0.644405 0.314289 0.393165 -0.135355
C64   C     C_R   0.355594 0.685712 0.606835 -0.135356
H17   H     H_    0.827164 0.706685 0.098164 0.158710
H18   H     H_    0.172836 0.293314 0.901836 0.158710
H19   H     H_    0.672685 0.206183 0.401646 0.158820
H20   H     H_    0.327316 0.793818 0.598354 0.158820
C65   C     C_R   0.855738 0.943116 0.153228 -0.078189
C66   C     C_R   0.144262 0.056883 0.846772 -0.078189
C67   C     C_R   0.644253 0.443149 0.346763 -0.078281
C68   C     C_R   0.355747 0.556851 0.653236 -0.078280
C69   C     C_R   0.985907 0.824739 0.017351 -0.127335
C70   C     C_R   0.014093 0.175261 0.982649 -0.127336
C71   C     C_R   0.513978 0.324756 0.482495 -0.127346
C72   C     C_R   0.486022 0.675244 0.517505 -0.127346
C73   C     C_R   0.020942 0.840595 0.980022 -0.126658
C74   C     C_R   0.979058 0.159404 0.019978 -0.126658
C75   C     C_R   0.478944 0.340615 0.519824 -0.126674
C76   C     C_R   0.521056 0.659385 0.480176 -0.126674
C77   C     C_R   0.035506 0.016065 0.962104 0.097065
C78   C     C_R   0.964494 0.983935 0.037896 0.097065
C79   C     C_R   0.464495 0.516066 0.537895 0.097069
C80   C     C_R   0.535505 0.483934 0.462104 0.097069
I1    I     I_    0.078538 0.165799 0.345749 -0.311386
I2    I     I_    0.921462 0.834201 0.654251 -0.311386
I3    I     I_    0.421466 0.665955 0.154247 -0.311451
I4    I     I_    0.578533 0.334027 0.845754 -0.311451
H21   H     H_    0.976250 0.687580 0.030971 0.110698
H22   H     H_    0.023750 0.312420 0.969029 0.110698
H23   H     H_    0.523546 0.187627 0.468753 0.110732
H24   H     H_    0.476454 0.812373 0.531247 0.110732
H25   H     H_    0.037248 0.715062 0.965920 0.113132
H26   H     H_    0.962752 0.284938 0.034080 0.113132
H27   H     H_    0.462547 0.215111 0.533807 0.113129
H28   H     H_    0.537453 0.784889 0.466193 0.113129
I5    I     I_    0.749952 0.827430 0.455036 -0.388556
I6    I     I_    0.250047 0.172571 0.544964 -0.388555
I7    I     I_    0.750040 0.327230 0.044969 -0.388613
I8    I     I_    0.249960 0.672763 0.955031 -0.388614
I9    I     I_    0.903383 0.271124 0.236142 -0.373847
I10   I     I_    0.096616 0.728876 0.763858 -0.373846
I11   I     I_    0.596759 0.771952 0.264091 -0.373660
I12   I     I_    0.403241 0.228047 0.735909 -0.373659
H29   H     H_    0.888612 0.728021 0.033298 0.131484
H30   H     H_    0.111388 0.271977 0.966702 0.131484
H31   H     H_    0.611233 0.227477 0.466507 0.131421
H32   H     H_    0.388767 0.772524 0.533493 0.131421

loop_
_geom_bond_atom_site_label_1
_geom_bond_atom_site_label_2
_ccdc_geom_bond_type
C55   C80   S    
O17   V3    S    
C59   C63   A    
C52   C56   A    
O1    C5    A    
C72   C79   A    
C51   H15   S    
C3    C65   S    
C9    C21   A    
O3    C7    A    
C1    C67   S    
C10   C18   A    
C60   C64   A    
C46   I10   S    
C73   H25   S    
C4    C66   S    
C25   C33   A    
C33   C38   A    
C5    C12   S    
C39   H11   S    
O7    C3    A    
C6    C11   S    
C35   C40   A    
C48   C68   A    
C69   H21   S    
C36   C39   A    
C46   C66   A    
O9    V1    S    
C14   C18   A    
O16   V4    S    
O4    C8    A    
C55   C59   A    
O19   V1    S    
C54   C58   A    
C61   C65   A    
O1    V3    S    
O13   V1    S    
O2    V4    S    
C74   C78   A    
O3    V1    S    
C73   C77   A    
C22   H1    S    
C59   H31   S    
C50   C54   A    
C70   C77   A    
C49   C53   A    
C1    O15   A    
C15   C31   A    
C69   C78   A    
C52   H16   S    
C2    O16   A    
C16   C32   A    
C58   C62   A    
C51   C55   A    
O2    C6    A    
C2    C68   S    
C10   C22   A    
C15   H7    S    
C11   C19   A    
C44   I4    S    
C16   C20   A    
C74   H26   S    
C45   C49   A    
C13   C29   A    
C34   C37   A    
C45   I9    S    
O15   V3    S    
C35   C36   A    
O12   C8    A    
C18   I5    S    
C40   H12   S    
O10   V2    S    
C22   C26   A    
O5    V1    S    
C61   H17   S    
C39   C43   A    
O7    V3    S    
C38   C42   A    
C26   C34   A    
C53   C78   S    
C50   H14   S    
C37   H9    S    
C64   C68   A    
C49   H13   S    
O18   V4    S    
C23   C27   A    
C58   H30   S    
C32   C44   A    
C75   H27   S    
C72   C76   A    
C76   C80   A    
C76   H28   S    
O8    V4    S    
O5    C1    A    
C43   I3    S    
C53   C57   A    
C31   C43   A    
C72   H24   S    
C21   C25   A    
O8    C4    A    
C7    C10   S    
O9    C5    A    
C19   I8    S    
C26   C30   A    
C17   I6    S    
C70   C74   A    
C69   C73   A    
O6    V2    S    
C45   C65   A    
C20   I7    S    
C71   C75   A    
O14   V2    S    
C47   C67   A    
C12   C20   A    
C27   C35   A    
C24   H3    S    
C40   C44   A    
C64   H20   S    
C29   C41   A    
C14   H6    S    
C13   H5    S    
C3    O13   A    
C71   C80   A    
C56   C79   S    
C21   H2    S    
C57   H29   S    
C38   H10   S    
C48   C52   A    
C47   C51   A    
O6    C2    A    
C15   C19   A    
O11   V3    S    
C30   C42   A    
C63   C67   A    
C75   C79   A    
O12   V4    S    
C70   H22   S    
C8    C9    S    
C14   C30   A    
C9    C17   A    
O10   C6    A    
O20   V2    S    
C42   I2    S    
C46   C50   A    
C47   I11   S    
C33   C34   A    
C60   H32   S    
C25   C29   A    
C56   C60   A    
O11   C7    A    
C12   C24   A    
C27   C31   A    
C37   C41   A    
C13   C17   A    
C57   C61   A    
C23   H4    S    
C62   C66   A    
C54   C77   S    
C16   H8    S    
C24   C28   A    
C71   H23   S    
C28   C36   A    
C62   H18   S    
C4    O14   A    
C48   I12   S    
C63   H19   S    
C11   C23   A    
O4    V2    S    
C28   C32   A    
C41   I1    S    
