data_mof_unit_54481.cif
_audit_creation_date              2012-12-10T16:53:10-0500
_audit_creation_method            fapswitch 2.2
_symmetry_space_group_name_H-M    P1
_symmetry_Int_Tables_number       1
_space_group_crystal_system       triclinic
_cell_length_a                    10.845667
_cell_length_b                    10.912548
_cell_length_c                    9.735741
_cell_angle_alpha                 89.090587
_cell_angle_beta                  91.293545
_cell_angle_gamma                 91.626349
_cell_volume                      1151.37110482

loop_
_atom_site_label
_atom_site_type_symbol
_atom_type_description
_atom_site_fract_x
_atom_site_fract_y
_atom_site_fract_z
_atom_type_partial_charge
C1    C     C_R   0.512084 0.266538 0.501412 0.847710
C2    C     C_R   0.060694 0.388983 0.552507 -0.028408
C3    C     C_R   0.127796 0.488857 0.492249 -0.196360
C4    C     C_R   0.065833 0.589656 0.434977 0.309137
C5    C     C_R   0.937422 0.591896 0.437646 0.342092
C6    C     C_R   0.871221 0.498070 0.506869 -0.179224
C7    C     C_2   0.527107 0.934781 0.393179 -0.069493
C8    C     C_2   0.483429 0.865373 0.496366 -0.167820
C9    C     C_2   0.516557 0.068011 0.393186 -0.158634
C10   C     C_2   0.532648 0.135593 0.506971 0.240737
C11   C     C_2   0.431021 0.425099 0.922020 0.416764
C12   C     C_R   0.262393 0.495157 0.498255 0.946500
C13   C     C_2   0.425636 0.430278 0.077208 0.402755
C14   C     C_R   0.496565 0.734264 0.498830 0.862804
C15   C     C_R   0.737309 0.499541 0.501893 0.837735
C16   C     C_R   0.114273 0.275543 0.588573 0.379951
C17   C     C_R   0.053652 0.192318 0.675472 -0.116412
C18   C     C_R   0.934459 0.213560 0.715468 0.403718
C19   C     C_R   0.871388 0.312110 0.657885 -0.196963
C20   C     C_R   0.933194 0.400703 0.573884 -0.071556
Cu1   Cu    Cu3+1 0.500020 0.500020 0.638630 1.073803
Cu2   Cu    Cu3+1 0.499980 0.499980 0.361370 1.087946
H1    H     H_    0.549221 0.567472 0.894159 0.170850
H2    H     H_    0.566615 0.893314 0.304110 0.197287
N1    N     N_2   0.498640 0.498660 0.846910 -0.330964
N2    N     N_2   0.498610 0.498630 0.153040 -0.327572
O1    O     O_R   0.500020 0.321960 0.617040 -0.496667
O2    O     O_R   0.499980 0.321920 0.382900 -0.564667
O3    O     O_R   0.319670 0.500020 0.617100 -0.548433
O4    O     O_R   0.319630 0.499980 0.382950 -0.496034
O5    O     O_R   0.500020 0.678080 0.617100 -0.565888
O6    O     O_R   0.499980 0.678040 0.382960 -0.558249
O7    O     O_R   0.680370 0.500020 0.617050 -0.591580
O8    O     O_R   0.680330 0.499980 0.382900 -0.553257
Cl1   Cl    Cl    0.149104 0.715754 0.361949 -0.479406
Cl2   Cl    Cl    0.590399 0.076106 0.665246 -0.497471
Cl3   Cl    Cl    0.336174 0.312773 0.841188 -0.451837
Cl4   Cl    Cl    0.314361 0.334179 0.157469 -0.418955
H3    H     H_    0.567028 0.549966 0.106568 0.173817
Cl5   Cl    Cl    0.236437 0.217257 0.498528 -0.541995
H4    H     H_    0.097275 0.107985 0.706912 0.218299
Cl6   Cl    Cl    0.861983 0.111210 0.830781 -0.434081
H5    H     H_    0.775258 0.317915 0.681888 0.203539
Cl7   Cl    Cl    0.860021 0.717932 0.362158 -0.482504
H6    H     H_    0.436089 0.904957 0.581258 0.207996
H7    H     H_    0.494187 0.111503 0.294984 0.200989

loop_
_geom_bond_atom_site_label_1
_geom_bond_atom_site_label_2
_ccdc_geom_bond_type
C1    O2    A    
C10   Cl2   S    
C11   Cl3   S    
C12   O3    A    
C6    C20   A    
C9    C10   D    
C15   O8    A    
C19   C20   A    
C14   O5    A    
C18   Cl6   S    
C17   C18   A    
Cu1   O1    S    
C4    Cl1   S    
C7    C8    D    
Cu2   O2    S    
Cu1   Cu2   S    
Cu1   O5    S    
C13   Cl4   S    
N2    H3    S    
Cu2   O6    S    
C16   Cl5   S    
C5    Cl7   S    
C19   H5    S    
C2    C3    A    
C9    H7    S    
H1    N1    S    
C5    C6    A    
Cu2   O8    S    
C17   H4    S    
C13   N2    D    
Cu1   O7    S    
C11   N1    D    
C2    C20   A    
C3    C4    A    
C11   C13   S    
C2    C16   A    
C7    C9    S    
C18   C19   A    
Cu2   N2    S    
C1    O1    A    
Cu1   N1    S    
C8    H6    S    
C4    C5    A    
C8    C14   S    
C3    C12   S    
Cu2   O4    S    
C12   O4    A    
C6    C15   S    
Cu1   O3    S    
C15   O7    A    
C1    C10   S    
C7    H2    S    
C14   O6    A    
C16   C17   A    
