data_mof_unit_59917.cif
_audit_creation_date              2013-03-05T16:34:33-0500
_audit_creation_method            fapswitch 2.2
_symmetry_space_group_name_H-M    P1
_symmetry_Int_Tables_number       1
_space_group_crystal_system       triclinic
_cell_length_a                    13.03072
_cell_length_b                    9.098288
_cell_length_c                    7.775615
_cell_angle_alpha                 89.98692
_cell_angle_beta                  97.051063
_cell_angle_gamma                 89.970545
_cell_volume                      914.8834609

loop_
_atom_site_label
_atom_site_type_symbol
_atom_site_description
_atom_site_fract_x
_atom_site_fract_y
_atom_site_fract_z
_atom_type_partial_charge
O1    O     O_R   0.500000 0.288400 0.642760 -0.575261
O2    O     O_R   0.500000 0.711600 0.357240 -0.575304
O3    O     O_R   0.500000 0.288400 0.357240 -0.578765
O4    O     O_R   0.500000 0.711600 0.642760 -0.578868
N1    N     N_1   0.499980 0.500000 0.076820 -0.053454
N2    N     N_1   0.500020 0.500000 0.923180 -0.053441
C1    C     C_R   0.499998 0.219987 0.500009 0.847677
C2    C     C_R   0.500002 0.780012 0.499991 0.847548
O5    O     O_R   0.349000 0.500000 0.619590 -0.587419
O6    O     O_R   0.651000 0.500000 0.380410 -0.587422
O7    O     O_R   0.348990 0.500000 0.334020 -0.584037
O8    O     O_R   0.651010 0.500000 0.665980 -0.583996
C3    C     C_R   0.299660 0.496885 0.466130 0.805927
C4    C     C_R   0.700336 0.503213 0.533855 0.805856
Cu1   Cu    Cu3+1 0.500010 0.500000 0.669080 0.991988
Cu2   Cu    Cu3+1 0.499990 0.500000 0.330920 0.992004
C5    C     C_R   0.813723 0.508795 0.556696 -0.061484
C6    C     C_R   0.186264 0.491665 0.443196 -0.061520
C7    C     C_R   0.019259 0.442753 0.277380 -0.201133
C8    C     C_R   0.980704 0.558190 0.722361 -0.201207
C9    C     C_R   0.126999 0.448135 0.285413 0.157910
C10   C     C_R   0.872969 0.552526 0.714404 0.157803
C11   C     C_R   0.136262 0.528231 0.587029 -0.294337
C12   C     C_R   0.863724 0.472505 0.412778 -0.294235
C13   C     C_R   0.029359 0.521953 0.577666 0.126376
C14   C     C_R   0.970615 0.478979 0.422081 0.126313
H1    H     H_    0.819281 0.438570 0.292148 0.164815
H2    H     H_    0.180719 0.562101 0.707673 0.164809
H3    H     H_    0.972999 0.409502 0.158178 0.142674
H4    H     H_    0.026956 0.591455 0.841571 0.142683
C15   C     C_1   0.499997 0.065357 0.500013 -0.179125
C16   C     C_1   0.500003 0.934643 0.499987 -0.179080
C17   C     C_3   0.824816 0.596336 0.873809 -0.823042
H5    H     H_    0.767878 0.686161 0.841796 0.242201
H6    H     H_    0.786527 0.499785 0.925820 0.241632
H7    H     H_    0.883462 0.637251 0.978716 0.217114
C18   C     C_3   0.175136 0.403888 0.126141 -0.823344
H8    H     H_    0.231335 0.313211 0.158226 0.241924
H9    H     H_    0.116403 0.363992 0.020825 0.217086
H10   H     H_    0.214251 0.499835 0.074599 0.242133

loop_
_geom_bond_atom_site_label_1
_geom_bond_atom_site_label_2
_geom_bond_distance
_ccdc_geom_bond_type
C12   H1    1.085112 S    
C18   H8    1.110672 S    
O1    Cu1   1.936091 S    
C5    C10   1.423435 A    
C6    C9    1.423503 A    
O2    Cu2   1.936090 S    
O7    Cu2   1.970743 S    
C15   C16   1.189273 T    
O8    Cu1   1.970743 S    
O4    C2    1.272590 A    
O4    Cu1   1.935997 S    
C17   H5    1.110982 S    
O5    Cu1   1.958135 S    
C18   H9    1.111149 S    
C13   C14   1.405539 A    
C8    H4    1.084991 S    
C11   H2    1.085105 S    
O7    C3    1.277233 A    
C4    C5    1.467256 S    
C3    C6    1.467260 S    
C17   H6    1.110851 S    
C8    C10   1.398597 A    
C18   H10   1.110358 S    
O3    C1    1.272590 A    
C11   C13   1.387177 A    
N1    N2    1.194710 T    
C12   C14   1.387131 A    
C5    C12   1.401694 A    
C1    C15   1.406873 S    
C8    C13   1.396986 A    
Cu1   Cu2   2.629371 S    
C7    H3    1.084955 S    
C17   H7    1.111466 S    
C9    C18   1.509941 S    
O6    C4    1.284306 A    
C10   C17   1.509899 S    
C7    C14   1.396927 A    
O5    C3    1.284404 A    
N1    Cu2   1.975767 S    
O6    Cu2   1.958135 S    
C7    C9    1.398522 A    
N2    Cu1   1.975767 S    
O1    C1    1.272705 A    
O2    C2    1.272704 A    
O3    Cu2   1.935998 S    
C6    C11   1.401735 A    
O8    C4    1.277326 A    
C2    C16   1.406873 S    
