data_mof_unit_10522.cif
_audit_creation_date              2012-10-26T21:33:18-0400
_audit_creation_method            fapswitch 2.2
_symmetry_space_group_name_H-M    P1
_symmetry_Int_Tables_number       1
_space_group_crystal_system       triclinic
_cell_length_a                    28.253001
_cell_length_b                    18.489588
_cell_length_c                    17.077901
_cell_angle_alpha                 90.306103
_cell_angle_beta                  60.734778
_cell_angle_gamma                 90.469502
_cell_volume                      7782.33696379

loop_
_atom_site_label
_atom_site_type_symbol
_atom_type_description
_atom_site_fract_x
_atom_site_fract_y
_atom_site_fract_z
_atom_type_partial_charge
C1    C     C_R   0.701952 0.268995 0.675679 0.889802
C2    C     C_R   0.098038 0.500342 0.502085 0.065908
C3    C     C_R   0.189842 0.217959 0.905234 0.086453
C4    C     C_R   0.074014 0.099692 0.934067 0.912158
C5    C     C_R   0.926006 0.900282 0.065919 0.912261
C6    C     C_R   0.925802 0.099357 0.066276 0.910730
C7    C     C_R   0.074212 0.900663 0.933712 0.909829
C8    C     C_R   0.573994 0.599718 0.934081 0.912261
C9    C     C_R   0.425986 0.400307 0.065933 0.912158
C10   C     C_R   0.425788 0.599337 0.066288 0.909829
C11   C     C_R   0.574197 0.400643 0.933724 0.910730
C12   C     C_R   0.522032 0.127136 0.584412 0.110284
C13   C     C_R   0.401962 0.999658 0.497915 0.065908
C14   C     C_R   0.459655 0.871461 0.478703 0.107073
C15   C     C_R   0.428185 0.124672 0.565399 0.104720
C16   C     C_R   0.538362 0.868260 0.533517 0.103590
C17   C     C_R   0.040344 0.628539 0.521296 0.107072
C18   C     C_R   0.977968 0.372864 0.415588 0.110284
C19   C     C_R   0.961638 0.631740 0.466482 0.103590
C20   C     C_R   0.071815 0.375328 0.434601 0.104720
C21   C     C_R   0.489998 0.189263 0.603016 -0.202619
C22   C     C_R   0.484558 0.806034 0.478329 -0.202252
C23   C     C_R   0.442801 0.187591 0.595406 -0.202295
C24   C     C_R   0.580285 0.998849 0.561116 0.068315
C25   C     C_R   0.522059 0.803959 0.509220 -0.201948
C26   C     C_R   0.015441 0.693966 0.521671 -0.202252
C27   C     C_R   0.010002 0.310736 0.396984 -0.202619
C28   C     C_R   0.977941 0.696041 0.490779 -0.201948
C29   C     C_R   0.057199 0.312409 0.404594 -0.202294
C30   C     C_R   0.459863 0.062493 0.546804 0.033525
C31   C     C_R   0.515238 0.934053 0.530743 0.032497
C32   C     C_R   0.505444 0.062973 0.560009 0.031878
C33   C     C_R   0.473413 0.934991 0.508650 0.030237
C34   C     C_R   0.984762 0.565947 0.469257 0.032497
C35   C     C_R   0.117601 0.377043 0.446020 -0.243245
C36   C     C_R   0.040137 0.437507 0.453196 0.033525
C37   C     C_R   0.026587 0.565009 0.491349 0.030237
C38   C     C_R   0.994556 0.437026 0.439991 0.031878
C39   C     C_R   0.966621 0.501347 0.448548 -0.051276
C40   C     C_R   0.054597 0.500736 0.483146 -0.050815
C41   C     C_R   0.445403 0.999264 0.516854 -0.050815
C42   C     C_R   0.533379 0.998653 0.551452 -0.051276
C43   C     C_R   0.897352 0.434957 0.430172 0.058187
C44   C     C_R   0.112075 0.564052 0.532539 0.061746
C45   C     C_R   0.128622 0.437018 0.487580 0.052780
C46   C     C_R   0.921861 0.632088 0.440974 -0.239572
C47   C     C_R   0.894624 0.567200 0.440525 0.055991
C48   C     C_R   0.387925 0.935948 0.467461 0.061746
C49   C     C_R   0.602648 0.065043 0.569828 0.058188
C50   C     C_R   0.605376 0.932800 0.559474 0.055991
C51   C     C_R   0.371378 0.062982 0.512419 0.052780
C52   C     C_R   0.843927 0.435116 0.440598 -0.115779
C53   C     C_R   0.159695 0.563916 0.541915 -0.114266
C54   C     C_R   0.169152 0.436828 0.514926 -0.105731
C55   C     C_R   0.842829 0.565445 0.444697 -0.113103
C56   C     C_R   0.340305 0.936084 0.458085 -0.114266
C57   C     C_R   0.929488 0.371890 0.411276 -0.241912
C58   C     C_R   0.656073 0.064883 0.559402 -0.115779
C59   C     C_R   0.657171 0.934555 0.555303 -0.113103
C60   C     C_R   0.330848 0.063172 0.485073 -0.105731
C61   C     C_R   0.819413 0.500062 0.442406 -0.291413
C62   C     C_R   0.183818 0.499681 0.541319 -0.298941
C63   C     C_R   0.316182 0.000319 0.458681 -0.298941
C64   C     C_R   0.680587 0.999938 0.557594 -0.291414
C65   C     C_1   0.719769 0.133165 0.923927 0.140404
C66   C     C_1   0.280464 0.866826 0.075749 0.139472
C67   C     C_1   0.279970 0.132427 0.073446 0.139828
C68   C     C_R   0.079567 0.626121 0.548405 -0.235376
C69   C     C_1   0.720176 0.867691 0.926502 0.139258
C70   C     C_1   0.219536 0.633174 0.924251 0.139472
C71   C     C_1   0.780231 0.366835 0.076073 0.140404
C72   C     C_1   0.779823 0.632309 0.073498 0.139258
C73   C     C_1   0.220030 0.367573 0.926554 0.139828
C74   C     C_R   0.578139 0.867912 0.559026 -0.239572
C75   C     C_R   0.382399 0.122957 0.553980 -0.243245
C76   C     C_R   0.420433 0.873879 0.451594 -0.235376
C77   C     C_R   0.298032 0.730978 0.324331 0.892039
C78   C     C_R   0.570512 0.128110 0.588723 -0.241912
C79   C     C_R   0.720455 0.264969 0.953905 0.038842
C80   C     C_R   0.279524 0.734998 0.046114 0.038720
C81   C     C_R   0.279091 0.264507 0.046869 0.038521
C82   C     C_R   0.720834 0.735600 0.953213 0.039247
C83   C     C_R   0.220476 0.765002 0.953886 0.038720
C84   C     C_R   0.779545 0.235031 0.046095 0.038842
C85   C     C_R   0.779166 0.764400 0.046787 0.039247
C86   C     C_R   0.220908 0.235493 0.953131 0.038521
C87   C     C_R   0.735575 0.193412 0.960313 0.022607
C88   C     C_R   0.298144 0.268784 0.324159 0.895492
C89   C     C_R   0.264536 0.806588 0.039531 0.022609
C90   C     C_R   0.264297 0.192932 0.038329 0.021870
C91   C     C_R   0.735772 0.807123 0.961643 0.021971
C92   C     C_R   0.235464 0.693412 0.960468 0.022609
C93   C     C_R   0.764425 0.306588 0.039687 0.022607
C94   C     C_R   0.764228 0.692877 0.038357 0.021971
C95   C     C_R   0.235703 0.307068 0.961671 0.021870
C96   C     C_R   0.764813 0.179198 0.005632 -0.233845
C97   C     C_R   0.235315 0.820837 0.994194 -0.234803
C98   C     C_R   0.235483 0.179125 0.992114 -0.239203
C99   C     C_R   0.701824 0.731274 0.675863 0.896819
C100  C     C_R   0.764656 0.820822 0.007772 -0.235859
C101  C     C_R   0.264685 0.679163 0.005806 -0.234803
C102  C     C_R   0.735186 0.320802 0.994368 -0.233845
C103  C     C_R   0.735344 0.679178 0.992228 -0.235859
C104  C     C_R   0.264517 0.320874 0.007886 -0.239203
C105  C     C_R   0.643826 0.327459 0.945814 -0.199807
C106  C     C_R   0.356133 0.672476 0.054214 -0.201025
C107  C     C_R   0.356279 0.326258 0.054199 -0.203503
C108  C     C_R   0.643629 0.673882 0.945873 -0.203787
C109  C     C_R   0.143867 0.827524 0.945786 -0.201025
C110  C     C_R   0.201968 0.769022 0.675669 0.892039
C111  C     C_R   0.856174 0.172541 0.054186 -0.199808
C112  C     C_R   0.856371 0.826118 0.054127 -0.203787
C113  C     C_R   0.143721 0.173742 0.945801 -0.203503
C114  C     C_R   0.616779 0.347742 0.898139 -0.066980
C115  C     C_R   0.383180 0.652196 0.101890 -0.067219
C116  C     C_R   0.383496 0.346946 0.101547 -0.069335
C117  C     C_R   0.616428 0.653168 0.898510 -0.067463
C118  C     C_R   0.116820 0.847804 0.898110 -0.067219
C119  C     C_R   0.883221 0.152258 0.101861 -0.066980
C120  C     C_R   0.883572 0.846832 0.101490 -0.067464
C121  C     C_R   0.798048 0.231005 0.324321 0.889802
C122  C     C_R   0.116504 0.153054 0.898452 -0.069334
C123  C     C_R   0.633379 0.322373 0.813088 -0.262827
C124  C     C_R   0.366566 0.677537 0.186952 -0.262507
C125  C     C_R   0.366958 0.321863 0.186579 -0.258081
C126  C     C_R   0.632940 0.678296 0.813496 -0.261238
C127  C     C_R   0.133434 0.822463 0.813048 -0.262508
C128  C     C_R   0.866621 0.177626 0.186912 -0.262827
C129  C     C_R   0.867059 0.821704 0.186503 -0.261238
C130  C     C_R   0.133042 0.178137 0.813421 -0.258081
C131  C     C_R   0.679631 0.281866 0.770792 -0.056325
C132  C     C_R   0.798176 0.768725 0.324137 0.896819
C133  C     C_R   0.320326 0.718063 0.229237 -0.057196
C134  C     C_R   0.320391 0.281346 0.229167 -0.056077
C135  C     C_R   0.679497 0.718843 0.770918 -0.058064
C136  C     C_R   0.179674 0.781937 0.770763 -0.057196
C137  C     C_R   0.820369 0.218134 0.229208 -0.056325
C138  C     C_R   0.820503 0.781156 0.229082 -0.058064
C139  C     C_R   0.179609 0.218654 0.770833 -0.056077
C140  C     C_R   0.707663 0.260753 0.816858 -0.170517
C141  C     C_R   0.292295 0.739185 0.183171 -0.171035
C142  C     C_R   0.291976 0.259962 0.183463 -0.179251
C143  C     C_R   0.201856 0.231216 0.675841 0.895492
C144  C     C_R   0.707867 0.740302 0.816676 -0.171127
C145  C     C_R   0.207705 0.760815 0.816829 -0.171035
C146  C     C_R   0.792337 0.239247 0.183142 -0.170517
C147  C     C_R   0.792133 0.759698 0.183324 -0.171127
C148  C     C_R   0.208024 0.240038 0.816537 -0.179251
C149  C     C_R   0.690978 0.129542 0.535995 0.895718
C150  C     C_R   0.308376 0.870933 0.467303 0.897834
C151  C     C_R   0.303504 0.128004 0.482386 0.911702
C152  C     C_R   0.691676 0.870796 0.533728 0.906499
C153  C     C_R   0.191624 0.629067 0.532697 0.897834
C154  C     C_R   0.919715 0.501150 0.438884 0.068315
C155  C     C_R   0.809022 0.370458 0.464005 0.895718
C156  C     C_R   0.808324 0.629203 0.466272 0.906499
C157  C     C_R   0.196496 0.371996 0.517614 0.911702
C158  C     C_R   0.689580 0.282987 0.905688 0.082495
C159  C     C_R   0.310381 0.716950 0.094343 0.082882
C160  C     C_R   0.310158 0.282040 0.094766 0.086453
C161  C     C_R   0.689718 0.718163 0.905351 0.084395
C162  C     C_R   0.189619 0.783050 0.905657 0.082882
C163  C     C_R   0.810420 0.217013 0.094312 0.082495
C164  C     C_R   0.810282 0.781837 0.094648 0.084395
H1    H     H_    0.081373 0.263868 0.389571 0.138942
H2    H     H_    0.217005 0.499451 0.556220 0.196372
H3    H     H_    0.282995 0.000549 0.443780 0.196372
H4    H     H_    0.720792 0.000344 0.550809 0.198509
H5    H     H_    0.144422 0.331427 0.419607 0.179391
H6    H     H_    0.913596 0.683933 0.422113 0.181477
H7    H     H_    0.918328 0.322221 0.390637 0.170898
H8    H     H_    0.083703 0.673236 0.582278 0.173403
H9    H     H_    0.586404 0.816066 0.577887 0.181477
H10   H     H_    0.355578 0.168573 0.580393 0.179391
H11   H     H_    0.416297 0.826764 0.417722 0.173403
H12   H     H_    0.960012 0.747313 0.489543 0.138173
H13   H     H_    0.581672 0.177779 0.609363 0.170898
H14   H     H_    0.724588 0.376153 0.989258 0.148309
H15   H     H_    0.275189 0.623792 0.011051 0.148150
H16   H     H_    0.275039 0.376218 0.014679 0.148629
H17   H     H_    0.724724 0.623867 0.985517 0.148882
H18   H     H_    0.224811 0.876208 0.988949 0.148151
H19   H     H_    0.775412 0.123847 0.010742 0.148309
H20   H     H_    0.775276 0.876133 0.014483 0.148882
H21   H     H_    0.224961 0.123782 0.985320 0.148629
H22   H     H_    0.630105 0.347450 0.013235 0.153839
H23   H     H_    0.998582 0.260934 0.376655 0.139167
H24   H     H_    0.369856 0.652494 0.986788 0.153278
H25   H     H_    0.370003 0.346015 0.986798 0.152961
H26   H     H_    0.629927 0.654074 0.013245 0.153535
H27   H     H_    0.130144 0.847506 0.013212 0.153278
H28   H     H_    0.869895 0.152550 0.986765 0.153839
H29   H     H_    0.870072 0.845926 0.986754 0.153535
H30   H     H_    0.129996 0.153985 0.013202 0.152961
H31   H     H_    0.612341 0.338599 0.777298 0.175908
H32   H     H_    0.387599 0.661300 0.222746 0.176609
H33   H     H_    0.388223 0.338411 0.222203 0.178514
H34   H     H_    0.026204 0.743745 0.543106 0.138338
H35   H     H_    0.611695 0.661714 0.777852 0.176346
H36   H     H_    0.112401 0.838700 0.777253 0.176609
H37   H     H_    0.887659 0.161401 0.222702 0.175908
H38   H     H_    0.888305 0.838286 0.222148 0.176346
H39   H     H_    0.111777 0.161589 0.777797 0.178514
H40   H     H_    0.744781 0.229931 0.782647 0.157788
H41   H     H_    0.255186 0.770029 0.217368 0.157556
H42   H     H_    0.254561 0.229151 0.217782 0.153421
H43   H     H_    0.745257 0.771164 0.782379 0.156859
H44   H     H_    0.244814 0.729970 0.782632 0.157556
H45   H     H_    0.539988 0.752686 0.510457 0.138173
H46   H     H_    0.755219 0.270069 0.217353 0.157788
H47   H     H_    0.754743 0.728836 0.217621 0.156859
H48   H     H_    0.245439 0.270849 0.782218 0.153421
H49   H     H_    0.418627 0.236132 0.610429 0.138943
H50   H     H_    0.473796 0.756254 0.456894 0.138339
H51   H     H_    0.501418 0.239066 0.623345 0.139167
H52   H     H_    0.779208 0.499656 0.449191 0.198509
N1    N     N_1   0.707038 0.084999 0.894640 -0.177374
N2    N     N_1   0.293294 0.914989 0.104894 -0.177829
N3    N     N_1   0.292594 0.084044 0.101704 -0.176683
N4    N     N_1   0.707615 0.916121 0.898221 -0.177629
N5    N     N_1   0.206706 0.585011 0.895106 -0.177829
N6    N     N_1   0.792962 0.415001 0.105359 -0.177374
N7    N     N_1   0.792385 0.583878 0.101779 -0.177629
N8    N     N_1   0.207406 0.415955 0.898296 -0.176683
O1    O     O_R   0.746490 0.236330 0.638080 -0.631351
O2    O     O_R   0.325830 0.813840 0.483730 -0.640191
O3    O     O_R   0.325830 0.186160 0.483730 -0.643488
O4    O     O_R   0.674170 0.813840 0.516270 -0.645622
O5    O     O_R   0.174170 0.686160 0.516270 -0.640191
O6    O     O_R   0.825830 0.313840 0.483730 -0.634610
O7    O     O_R   0.825830 0.686160 0.483730 -0.645622
O8    O     O_R   0.174170 0.313840 0.516270 -0.643488
O9    O     O_R   0.739960 0.127620 0.525000 -0.623707
O10   O     O_R   0.260040 0.872380 0.475000 -0.621204
O11   O     O_R   0.260040 0.127620 0.475000 -0.626931
O12   O     O_R   0.253510 0.763670 0.361920 -0.632020
O13   O     O_R   0.739960 0.872380 0.525000 -0.625410
O14   O     O_R   0.239960 0.627620 0.525000 -0.621204
O15   O     O_R   0.760040 0.372380 0.475000 -0.623707
O16   O     O_R   0.760040 0.627620 0.475000 -0.625410
O17   O     O_R   0.239960 0.372380 0.525000 -0.626931
O18   O     O_R   0.680700 0.294870 0.629350 -0.635344
O19   O     O_R   0.319300 0.705130 0.370650 -0.633338
O20   O     O_R   0.319300 0.294870 0.370650 -0.627113
O21   O     O_R   0.680700 0.705130 0.629350 -0.634650
O22   O     O_R   0.180700 0.794870 0.629350 -0.633338
O23   O     O_R   0.253510 0.236330 0.361920 -0.646918
O24   O     O_R   0.819300 0.205130 0.370650 -0.635344
O25   O     O_R   0.819300 0.794870 0.370650 -0.634650
O26   O     O_R   0.180700 0.205130 0.629350 -0.627113
O27   O     O_R   0.062020 0.072840 0.007170 -0.629220
O28   O     O_R   0.937980 0.927160 0.992830 -0.628676
O29   O     O_R   0.937980 0.072840 0.992830 -0.628050
O30   O     O_R   0.062020 0.927160 0.007170 -0.628939
O31   O     O_R   0.562020 0.572840 0.007170 -0.628676
O32   O     O_R   0.437980 0.427160 0.992830 -0.629220
O33   O     O_R   0.437980 0.572840 0.992830 -0.628939
O34   O     O_R   0.746490 0.763670 0.638080 -0.633286
O35   O     O_R   0.562020 0.427160 0.007170 -0.628050
O36   O     O_R   0.947860 0.073950 0.109290 -0.623613
O37   O     O_R   0.052140 0.926050 0.890710 -0.623232
O38   O     O_R   0.052140 0.073950 0.890710 -0.622575
O39   O     O_R   0.947860 0.926050 0.109290 -0.623441
O40   O     O_R   0.447860 0.573950 0.109290 -0.623232
O41   O     O_R   0.552140 0.426050 0.890710 -0.623613
O42   O     O_R   0.552140 0.573950 0.890710 -0.623441
O43   O     O_R   0.447860 0.426050 0.109290 -0.622575
O44   O     O_R   0.246490 0.736330 0.638080 -0.632020
O45   O     O_R   0.753510 0.263670 0.361920 -0.631351
O46   O     O_R   0.753510 0.736330 0.361920 -0.633286
O47   O     O_R   0.246490 0.263670 0.638080 -0.646918
O48   O     O_R   0.674170 0.186160 0.516270 -0.634610
Zn1   Zn    Zn3+2 0.792340 0.208750 0.507670 0.951664
Zn2   Zn    Zn3+2 0.494040 0.500000 0.919480 0.935795
Zn3   Zn    Zn3+2 0.005960 0.000000 0.080520 0.935795
Zn4   Zn    Zn3+2 0.994040 0.000000 0.919480 0.939539
Zn5   Zn    Zn3+2 0.207660 0.791250 0.492330 0.949781
Zn6   Zn    Zn3+2 0.207660 0.208750 0.492330 0.945541
Zn7   Zn    Zn3+2 0.792340 0.791250 0.507670 0.945298
Zn8   Zn    Zn3+2 0.292340 0.708750 0.507670 0.949781
Zn9   Zn    Zn3+2 0.707660 0.291250 0.492330 0.951664
Zn10  Zn    Zn3+2 0.707660 0.708750 0.492330 0.945298
Zn11  Zn    Zn3+2 0.292340 0.291250 0.507670 0.945541
Zn12  Zn    Zn3+2 0.505960 0.500000 0.080520 0.939540

loop_
_geom_bond_atom_site_label_1
_geom_bond_atom_site_label_2
_ccdc_geom_bond_type
C151  O3    A    
C31   C42   A    
C15   C75   A    
C153  O5    A    
C127  H36   S    
C14   C33   A    
C79   C87   A    
C19   C46   A    
C16   C31   A    
O15   Zn9   S    
C124  C133  A    
C50   C59   A    
C122  C130  A    
C52   C61   A    
C148  H48   S    
C132  O46   A    
O4    Zn10  S    
C49   C78   A    
O8    Zn6   S    
C131  C140  A    
C13   C51   A    
O36   Zn3   S    
C44   C53   A    
C113  C122  A    
C17   C68   A    
C132  O25   A    
C79   C102  A    
C61   H52   S    
C46   H6    S    
C91   C100  A    
C117  C126  A    
C72   C94   S    
C119  C128  A    
C58   C64   A    
O45   Zn9   S    
O17   Zn11  S    
C13   C41   A    
C109  C118  A    
C65   C87   S    
C66   C89   S    
C112  C164  A    
C39   C154  A    
C137  C146  A    
C127  C136  A    
C112  C120  A    
C80   C159  S    
C99   O34   A    
C150  O10   A    
C82   C91   A    
C120  C129  A    
C60   C151  S    
C11   O35   A    
O19   Zn8   S    
C105  C158  A    
C4    C122  S    
C27   H23   S    
C81   C90   A    
O6    Zn1   S    
C73   C95   S    
C35   C45   A    
C15   C30   A    
C23   H49   S    
C16   C25   A    
C155  O6    A    
C103  H17   S    
C9    C116  S    
O1    Zn1   S    
C76   H11   S    
C1    C131  S    
C71   C93   S    
O7    Zn7   S    
C106  C115  A    
C147  C164  A    
O23   Zn6   S    
C18   C38   A    
O24   Zn1   S    
C65   N1    T    
O43   Zn12  S    
O5    Zn5   S    
C84   C93   A    
C142  H42   S    
C86   C95   A    
C2    C40   A    
C66   N2    T    
C5    O39   A    
C85   C164  S    
C53   C153  S    
C27   C29   A    
C78   H13   S    
C113  H30   S    
C48   C76   A    
C110  C136  S    
C79   C158  S    
C9    O43   A    
C143  O47   A    
O13   Zn7   S    
C37   C40   A    
O14   Zn8   S    
C50   C74   A    
C38   C39   A    
C43   C52   A    
C106  C159  A    
C70   N5    T    
C111  C119  A    
C53   C62   A    
C121  C137  S    
C140  C158  A    
C20   C35   A    
C139  C143  S    
C141  C159  A    
C121  O24   A    
C152  O13   A    
C2    C44   A    
C22   C25   A    
C30   C41   A    
C43   C154  A    
C144  H43   S    
C63   H3    S    
C81   C160  S    
O16   Zn10  S    
C75   H10   S    
C5    O28   A    
C108  H26   S    
C100  H20   S    
C8    C117  S    
C2    C45   A    
C24   C50   A    
C139  C148  A    
C34   C39   A    
C17   C37   A    
C67   C90   S    
C149  O9    A    
O25   Zn7   S    
C6    O29   A    
C105  H22   S    
O22   Zn5   S    
O47   Zn11  S    
C151  O11   A    
C124  H32   S    
C10   O33   A    
O46   Zn10  S    
C19   C28   A    
O28   Zn4   S    
C84   C163  S    
C114  C123  A    
C4    O38   A    
C62   H2    S    
C83   C162  S    
O39   Zn3   S    
C116  C125  A    
C7    O30   A    
C102  H14   S    
C118  C127  A    
C96   H19   S    
C56   C150  S    
C121  O45   A    
C6    C119  S    
C77   O19   A    
C108  C117  A    
C149  O48   A    
O29   Zn4   S    
O3    Zn11  S    
O30   Zn3   S    
C108  C161  A    
C14   C22   A    
C67   N3    T    
C88   C134  S    
C54   C157  S    
C55   C61   A    
C7    O37   A    
C26   H34   S    
C141  H41   S    
C107  C116  A    
C1    O18   A    
C43   C57   A    
C51   C60   A    
C69   C91   S    
C130  H39   S    
C125  C134  A    
C150  O2    A    
C144  C161  A    
C34   C37   A    
C24   C42   A    
O32   Zn2   S    
C110  O44   A    
C107  C160  A    
C97   H18   S    
O37   Zn4   S    
C59   C152  S    
C52   C155  S    
O33   Zn2   S    
C153  O14   A    
O26   Zn6   S    
O35   Zn12  S    
C109  C162  A    
C132  C138  S    
C69   N4    T    
C6    O36   A    
C29   H1    S    
C80   C89   A    
C21   H51   S    
C99   O21   A    
C155  O15   A    
C111  H28   S    
C71   N6    T    
C3    C86   S    
C123  H31   S    
C147  H47   S    
C130  C139  A    
C5    C120  S    
C8    O42   A    
C28   H12   S    
C54   C62   A    
C72   N7    T    
C77   O12   A    
C134  C142  A    
C18   C57   A    
O9    Zn1   S    
C107  H25   S    
C99   C135  S    
C140  H40   S    
C92   C101  A    
C126  C135  A    
C21   C23   A    
O40   Zn12  S    
C16   C74   A    
C1    O1    A    
O48   Zn9   S    
C46   C47   A    
O20   Zn11  S    
C115  C124  A    
C123  C131  A    
C70   C92   S    
C4    O27   A    
C51   C75   A    
C93   C102  A    
C88   O20   A    
C47   C154  A    
C98   H21   S    
O44   Zn8   S    
C8    O31   A    
C133  C141  A    
C33   C41   A    
C36   C38   A    
C64   H4    S    
C68   H8    S    
O42   Zn2   S    
C86   C98   A    
C20   C36   A    
C83   C97   A    
C32   C42   A    
C14   C76   A    
C126  H35   S    
C143  O26   A    
C156  O16   A    
C83   C92   A    
C59   C64   A    
C60   C63   A    
C17   C26   A    
O27   Zn3   S    
C145  C162  A    
C84   C96   A    
C11   C114  S    
C157  O17   A    
C152  O4    A    
C129  C138  A    
C12   C78   A    
O31   Zn12  S    
C82   C103  A    
C31   C33   A    
O18   Zn9   S    
C136  C145  A    
C58   C149  S    
C110  O22   A    
C15   C23   A    
C125  H33   S    
C3    C148  A    
O10   Zn5   S    
C12   C32   A    
C7    C118  S    
C77   C133  S    
C146  H46   S    
C20   C29   A    
C55   C156  S    
O12   Zn5   S    
C105  C114  A    
C36   C40   A    
C111  C163  A    
C74   H9    S    
C3    C113  A    
C12   C21   A    
C49   C58   A    
C89   C97   A    
C128  C137  A    
C101  H15   S    
C85   C94   A    
C138  C147  A    
C87   C96   A    
C11   O41   A    
C56   C63   A    
O2    Zn8   S    
C25   H45   S    
C129  H38   S    
C135  C144  A    
C45   C54   A    
C22   H50   S    
C44   C68   A    
C9    O32   A    
O21   Zn10  S    
C95   C104  A    
C47   C55   A    
C24   C49   A    
C48   C56   A    
C73   N8    T    
O11   Zn6   S    
C18   C27   A    
C142  C160  A    
C19   C34   A    
C94   C103  A    
C13   C48   A    
C82   C161  S    
O38   Zn4   S    
C146  C163  A    
C26   C28   A    
C80   C101  A    
C106  H24   S    
C85   C100  A    
C88   O23   A    
C30   C32   A    
C156  O7    A    
C104  H16   S    
C109  H27   S    
C35   H5    S    
C10   O40   A    
C128  H37   S    
C112  H29   S    
O41   Zn2   S    
O34   Zn7   S    
C90   C98   A    
C145  H44   S    
C10   C115  S    
C157  O8    A    
C57   H7    S    
C81   C104  A    
