data_mof_unit_39543.cif
_audit_creation_date              2013-03-05T16:25:14-0500
_audit_creation_method            fapswitch 2.2
_symmetry_space_group_name_H-M    P1
_symmetry_Int_Tables_number       1
_space_group_crystal_system       triclinic
_cell_length_a                    15.197055
_cell_length_b                    13.773257
_cell_length_c                    17.909263
_cell_angle_alpha                 88.37473
_cell_angle_beta                  90.016794
_cell_angle_gamma                 90.030414
_cell_volume                      3747.13182696

loop_
_atom_site_label
_atom_site_type_symbol
_atom_site_description
_atom_site_fract_x
_atom_site_fract_y
_atom_site_fract_z
_atom_type_partial_charge
O1    O     O_R   0.371460 0.581430 0.500010 -0.569689
O2    O     O_R   0.628540 0.418570 0.499990 -0.550159
O3    O     O_R   0.628540 0.581430 0.499990 -0.543030
O4    O     O_R   0.371460 0.418570 0.500010 -0.583530
C1    C     C_R   0.330114 0.499501 0.499429 0.941383
C2    C     C_R   0.670853 0.499873 0.500323 0.917780
O5    O     O_R   0.500000 0.581470 0.391250 -0.582610
O6    O     O_R   0.500000 0.418530 0.608750 -0.572025
O7    O     O_R   0.500000 0.581470 0.608750 -0.583433
O8    O     O_R   0.500000 0.418530 0.391250 -0.597383
C3    C     C_R   0.501182 0.501967 0.355496 0.797869
C4    C     C_R   0.497930 0.498417 0.645080 0.818297
Cu1   Cu    Cu3+1 0.500000 0.596430 0.500000 0.958943
Cu2   Cu    Cu3+1 0.500000 0.403570 0.500000 0.937079
C5    C     C_R   0.451148 0.571889 0.846804 0.120164
C6    C     C_R   0.559908 0.439680 0.156408 0.124220
C7    C     C_R   0.443427 0.564416 0.152651 0.124321
C8    C     C_R   0.542665 0.424470 0.849619 0.128620
C9    C     C_R   0.446294 0.569441 0.767475 0.112679
C10   C     C_R   0.566484 0.447837 0.234985 0.098931
C11   C     C_R   0.451033 0.573908 0.231047 0.042101
C12   C     C_R   0.532379 0.416628 0.771310 0.074191
C13   C     C_R   0.491971 0.494629 0.729019 -0.151914
C14   C     C_R   0.505682 0.507621 0.272601 -0.150454
C15   C     C_R   0.499188 0.499491 0.886822 -0.008806
C16   C     C_R   0.499079 0.498606 0.115937 -0.010625
C17   C     C_1   0.499384 0.498266 0.967806 -0.033232
C18   C     C_1   0.499113 0.497699 0.035076 -0.035439
C19   C     C_R   0.094532 0.541006 0.443056 0.429752
C20   C     C_R   0.906930 0.408039 0.505217 0.416878
C21   C     C_R   0.908480 0.585322 0.505251 0.383313
C22   C     C_R   0.098247 0.449339 0.562205 0.406842
C23   C     C_R   0.186442 0.540524 0.441070 0.352547
C24   C     C_R   0.814575 0.409145 0.504859 0.318069
C25   C     C_R   0.816833 0.586891 0.496783 0.311022
C26   C     C_R   0.190176 0.444463 0.557500 0.272873
C27   C     C_R   0.234215 0.496737 0.500144 -0.391468
C28   C     C_R   0.768555 0.498855 0.500806 -0.397599
C29   C     C_R   0.050245 0.496778 0.504577 -0.164240
C30   C     C_R   0.953691 0.496435 0.506494 -0.149464
C31   C     C_R   0.565579 0.105071 0.537613 0.367904
C32   C     C_R   0.435638 0.892256 0.539740 0.390604
C33   C     C_R   0.434850 0.108433 0.460046 0.386752
C34   C     C_R   0.563257 0.894550 0.458414 0.390479
C35   C     C_R   0.564133 0.207622 0.537014 -0.083560
C36   C     C_R   0.436149 0.789405 0.537496 -0.075282
C37   C     C_R   0.435790 0.211075 0.462483 -0.087782
C38   C     C_R   0.562399 0.791920 0.460751 -0.037673
H1    H     H_    0.615027 0.246429 0.565876 0.194019
H2    H     H_    0.384876 0.747784 0.565121 0.159163
H3    H     H_    0.384870 0.252909 0.434389 0.146273
H4    H     H_    0.611065 0.752308 0.430395 0.158085
N1    N     N_R   0.500000 0.258690 0.500000 -0.217793
N2    N     N_R   0.500000 0.741310 0.500000 -0.214993
C39   C     C_R   0.500030 0.054561 0.498868 0.017834
C40   C     C_R   0.499669 0.945496 0.498983 0.011740
C41   C     C_3   0.406237 0.652137 0.889964 -0.391553
C42   C     C_3   0.308774 0.629666 0.903084 -0.833159
H5    H     H_    0.271938 0.627529 0.849858 0.254362
H6    H     H_    0.301247 0.558285 0.932778 0.248986
H7    H     H_    0.278846 0.686676 0.937455 0.233069
H8    H     H_    0.437987 0.662002 0.944666 0.214095
H9    H     H_    0.415754 0.724624 0.862725 0.174843
C43   C     C_3   0.615845 0.366848 0.115017 -0.394091
C44   C     C_3   0.703389 0.411144 0.089500 -0.841293
H10   H     H_    0.691857 0.476721 0.053327 0.250319
H11   H     H_    0.744009 0.431932 0.137912 0.256574
H12   H     H_    0.740618 0.357281 0.057080 0.233872
H13   H     H_    0.626456 0.299122 0.148729 0.177244
H14   H     H_    0.580092 0.340666 0.065742 0.210671
C45   C     C_3   0.372765 0.619877 0.108048 -0.379234
C46   C     C_3   0.400765 0.723607 0.086294 -0.835634
H15   H     H_    0.391627 0.773290 0.133041 0.250436
H16   H     H_    0.470538 0.725598 0.067851 0.248899
H17   H     H_    0.358731 0.751991 0.040027 0.235053
H18   H     H_    0.356009 0.581563 0.056471 0.207055
H19   H     H_    0.309232 0.619850 0.138523 0.177592
C47   C     C_3   0.602974 0.355703 0.894324 -0.385242
C48   C     C_3   0.554220 0.265673 0.924370 -0.844350
H20   H     H_    0.495034 0.286893 0.956368 0.251410
H21   H     H_    0.533630 0.218419 0.878585 0.251800
H22   H     H_    0.598479 0.222794 0.961992 0.232323
H23   H     H_    0.661776 0.335100 0.861764 0.181228
H24   H     H_    0.632524 0.393713 0.941878 0.207923
C49   C     C_3   0.387785 0.642733 0.724445 -0.415268
C50   C     C_3   0.309303 0.593645 0.687844 -0.770805
H25   H     H_    0.331224 0.540353 0.647134 0.274550
H26   H     H_    0.268330 0.555275 0.730642 0.250222
H27   H     H_    0.268131 0.648940 0.658057 0.214498
H28   H     H_    0.359044 0.699486 0.758840 0.198464
H29   H     H_    0.426685 0.686032 0.683595 0.209352
C51   C     C_3   0.645718 0.405579 0.277824 -0.384951
C52   C     C_3   0.707831 0.486852 0.300816 -0.862179
H30   H     H_    0.726600 0.532803 0.251398 0.253093
H31   H     H_    0.675866 0.533112 0.342374 0.242561
H32   H     H_    0.768700 0.455956 0.325962 0.217360
H33   H     H_    0.625106 0.361709 0.327482 0.216787
H34   H     H_    0.685656 0.354897 0.245488 0.200901
C53   C     C_3   0.407753 0.659898 0.269036 -0.307245
C54   C     C_3   0.473392 0.743282 0.277816 -0.804751
H35   H     H_    0.533099 0.719002 0.308424 0.253534
H36   H     H_    0.495389 0.772472 0.222653 0.236487
H37   H     H_    0.441948 0.802692 0.308849 0.235174
H38   H     H_    0.349740 0.688894 0.238911 0.200935
H39   H     H_    0.379786 0.638582 0.323947 0.250093
C55   C     C_3   0.556668 0.321170 0.734718 -0.356920
C56   C     C_3   0.473598 0.261325 0.719723 -0.769423
H40   H     H_    0.444143 0.234943 0.773205 0.231516
H41   H     H_    0.422585 0.304372 0.689543 0.279617
H42   H     H_    0.490189 0.197548 0.686191 0.216236
H43   H     H_    0.596930 0.334099 0.683933 0.203013
H44   H     H_    0.599940 0.273531 0.768788 0.190386
O9    O     O_3   0.049794 0.590809 0.386322 -0.494721
C57   C     C_3   0.008486 0.525007 0.338348 -0.290460
H45   H     H_    0.939880 0.510734 0.356709 0.134992
H46   H     H_    0.044280 0.455088 0.333187 0.111278
H47   H     H_    0.005003 0.559257 0.281631 0.185292
O10   O     O_3   0.949893 0.319348 0.511310 -0.496145
C58   C     C_3   0.988080 0.296440 0.442041 -0.321516
H48   H     H_    0.055464 0.326887 0.437302 0.147685
H49   H     H_    0.947742 0.320549 0.392966 0.110298
H50   H     H_    0.994415 0.216360 0.439815 0.192557
O11   O     O_3   0.954118 0.672403 0.505099 -0.517807
C59   C     C_3   0.968793 0.699327 0.579383 -0.237105
H51   H     H_    0.025281 0.658265 0.603583 0.129447
H52   H     H_    0.909235 0.690104 0.615241 0.149302
H53   H     H_    0.986713 0.777408 0.579089 0.193541
O12   O     O_3   0.055569 0.400809 0.620424 -0.512859
C60   C     C_3   0.044133 0.464712 0.679694 -0.262057
H54   H     H_    0.987754 0.514013 0.668021 0.135778
H55   H     H_    0.104724 0.507078 0.691924 0.147949
H56   H     H_    0.027800 0.421169 0.730868 0.183594
O13   O     O_3   0.228714 0.579310 0.378754 -0.534132
C61   C     C_3   0.248047 0.503078 0.330004 -0.349049
H57   H     H_    0.310473 0.466780 0.346750 0.146809
H58   H     H_    0.256557 0.534196 0.272705 0.179102
H59   H     H_    0.195001 0.447600 0.326919 0.138421
O14   O     O_3   0.769119 0.322378 0.514556 -0.537652
C62   C     C_3   0.771142 0.269019 0.448245 -0.172998
H60   H     H_    0.784898 0.313435 0.396687 0.093901
H61   H     H_    0.706022 0.234638 0.440270 0.172554
H62   H     H_    0.820175 0.209680 0.454017 0.198102
O15   O     O_3   0.774628 0.675791 0.490694 -0.526910
C63   C     C_3   0.785924 0.714525 0.417370 -0.229581
H63   H     H_    0.743491 0.675711 0.377626 0.116351
H64   H     H_    0.855276 0.712927 0.397622 0.201854
H65   H     H_    0.765622 0.791851 0.416408 0.201773
O16   O     O_3   0.237527 0.393521 0.611775 -0.573739
C64   C     C_3   0.234395 0.293688 0.596120 -0.183559
H66   H     H_    0.257009 0.279385 0.538327 0.149842
H67   H     H_    0.167244 0.263538 0.604941 0.201953
H68   H     H_    0.279196 0.254044 0.635166 0.163358
O17   O     O_3   0.634311 0.054177 0.570877 -0.531501
C65   C     C_3   0.625728 0.057434 0.649094 -0.313897
H69   H     H_    0.559387 0.032682 0.668106 0.145768
H70   H     H_    0.640308 0.131319 0.669212 0.157869
H71   H     H_    0.674667 0.007147 0.674993 0.198217
O18   O     O_3   0.370734 0.942623 0.577096 -0.541085
C66   C     C_3   0.361973 0.906986 0.651411 -0.361850
H72   H     H_    0.426745 0.891196 0.678358 0.138280
H73   H     H_    0.319028 0.841734 0.653800 0.167635
H74   H     H_    0.329353 0.963531 0.684505 0.194677
O19   O     O_3   0.368475 0.059575 0.423581 -0.542084
C67   C     C_3   0.369390 0.085468 0.346775 -0.343254
H75   H     H_    0.437048 0.084107 0.322790 0.142772
H76   H     H_    0.338630 0.157793 0.336561 0.151700
H77   H     H_    0.329547 0.031638 0.316585 0.197911
O20   O     O_3   0.628934 0.945576 0.420812 -0.543418
C68   C     C_3   0.619277 0.933542 0.343315 -0.383251
H78   H     H_    0.639799 0.859606 0.327258 0.149958
H79   H     H_    0.663147 0.986153 0.313623 0.194536
H80   H     H_    0.550819 0.948957 0.324174 0.160591

loop_
_geom_bond_atom_site_label_1
_geom_bond_atom_site_label_2
_geom_bond_distance
_ccdc_geom_bond_type
C39   C40   1.502128 S    
C52   H30   1.110583 S    
C1    C27   1.457908 S    
C56   H41   1.107589 S    
C68   H78   1.110841 S    
C9    C13   1.434999 A    
O19   C67   1.411259 S    
O3    C2    1.294501 A    
O12   C60   1.408867 S    
C61   H59   1.112880 S    
C57   H45   1.109103 S    
C49   H29   1.102484 S    
O14   C62   1.414543 S    
C51   H34   1.102092 S    
O11   C59   1.408845 S    
C55   H44   1.101261 S    
C49   C50   1.527459 S    
O5    C3    1.284220 A    
C10   C51   1.533675 S    
C4    C13   1.505461 S    
O1    C1    1.291582 A    
C7    C16   1.415680 A    
C22   C26   1.401375 A    
C67   H75   1.114815 S    
Cu1   N2    1.995468 S    
C38   H4    1.075961 S    
C64   H67   1.111186 S    
C34   O20   1.384341 S    
C45   H18   1.106308 S    
C11   C53   1.531335 S    
C62   H62   1.108942 S    
C50   H26   1.109713 S    
C5    C15   1.414525 A    
C55   C56   1.535087 S    
C42   H6    1.110289 S    
O15   C63   1.413805 S    
C19   C23   1.397249 A    
C3    C14   1.486009 S    
C21   C30   1.403836 A    
C32   C36   1.418318 A    
C22   C29   1.409281 A    
O7    Cu1   1.952681 S    
O10   C58   1.413553 S    
C31   C39   1.408562 A    
C32   C40   1.409498 A    
C5    C9    1.423971 A    
C47   H23   1.108636 S    
C26   O16   1.384341 S    
C37   H3    1.080634 S    
C10   C14   1.420668 A    
C44   H11   1.108307 S    
C56   H40   1.109134 S    
C66   H73   1.110275 S    
C43   H14   1.105261 S    
C65   H70   1.111305 S    
C36   N2    1.362950 A    
O3    Cu1   1.964432 S    
O6    C4    1.294472 A    
C37   N1    1.362968 A    
C60   H56   1.109062 S    
C42   H7    1.109187 S    
C53   H38   1.102593 S    
C35   N1    1.363072 A    
C52   H31   1.106032 S    
C8    C12   1.418250 A    
Cu1   Cu2   2.656312 S    
C5    C41   1.527911 S    
C63   H65   1.108640 S    
C32   O18   1.388953 S    
C8    C15   1.410036 A    
C46   H17   1.108623 S    
C54   H36   1.107668 S    
C51   H33   1.106185 S    
C41   H9    1.108111 S    
C31   O17   1.383484 S    
C55   H43   1.106500 S    
C58   H49   1.114399 S    
C6    C16   1.416210 A    
C53   H39   1.103473 S    
C49   H28   1.099576 S    
C20   C24   1.403629 A    
C41   H8    1.103742 S    
C25   C28   1.416996 A    
O16   C64   1.411861 S    
C65   H71   1.109106 S    
C46   H16   1.110781 S    
O8    Cu2   1.952681 S    
C64   H68   1.108672 S    
C29   C30   1.467739 S    
C48   H21   1.106243 S    
C47   C48   1.528902 S    
O4    C1    1.279657 A    
C61   H58   1.108407 S    
C20   O10   1.386966 S    
C42   H5    1.106419 S    
C12   C55   1.530975 S    
C24   O14   1.386699 S    
C54   H37   1.110482 S    
C7    C11   1.418460 A    
O2    C2    1.291173 A    
C38   N2    1.360565 A    
C47   H24   1.107188 S    
C34   C40   1.408601 A    
C66   H72   1.114968 S    
C35   H1    1.079856 S    
C6    C10   1.418392 A    
C44   H12   1.110263 S    
C19   C29   1.414187 A    
C2    C28   1.484865 S    
C66   H74   1.109203 S    
C20   C30   1.410137 A    
C43   H13   1.108516 S    
C58   H48   1.108731 S    
C65   H69   1.114387 S    
O9    C57   1.413130 S    
C59   H53   1.109102 S    
C63   H64   1.112229 S    
C8    C47   1.528261 S    
C7    C45   1.529888 S    
C52   H32   1.108559 S    
O18   C66   1.411730 S    
C56   H42   1.107276 S    
C21   C25   1.401066 A    
O1    Cu1   1.964216 S    
C45   H19   1.109234 S    
C50   H25   1.100921 S    
C59   H52   1.115059 S    
C60   H54   1.109663 S    
C68   H79   1.109130 S    
C58   H50   1.109039 S    
C33   C39   1.409342 A    
C19   O9    1.387707 S    
O20   C68   1.410042 S    
O6    Cu2   1.964304 S    
C24   C28   1.420176 A    
C67   H77   1.109379 S    
C63   H63   1.108707 S    
C9    C49   1.536221 S    
C50   H27   1.110575 S    
C48   H22   1.110295 S    
C57   H46   1.112415 S    
C62   H60   1.112877 S    
C61   H57   1.109825 S    
C15   C17   1.449989 S    
C36   H2    1.078983 S    
C16   C18   1.448560 S    
C53   C54   1.532212 S    
C43   C44   1.527979 S    
C22   O12   1.383817 S    
C67   H76   1.111041 S    
C21   O11   1.385103 S    
C45   C46   1.530326 S    
C64   H66   1.113567 S    
C62   H61   1.107810 S    
C41   C42   1.529836 S    
O13   C61   1.415454 S    
C46   H15   1.105040 S    
C51   C52   1.529196 S    
C68   H80   1.113931 S    
O4    Cu2   1.964435 S    
O2    Cu2   1.964213 S    
O7    C4    1.300228 A    
C23   C27   1.404956 A    
C57   H47   1.109005 S    
O8    C3    1.299712 A    
C48   H20   1.110381 S    
C23   O13   1.381959 S    
O5    Cu1   1.964304 S    
Cu2   N1    1.995468 S    
C26   C27   1.406915 A    
C44   H10   1.110452 S    
C11   C14   1.427932 A    
C17   C18   1.204566 T    
C31   C35   1.412381 A    
C12   C13   1.434992 A    
C54   H35   1.106917 S    
C6    C43   1.523771 S    
O17   C65   1.408889 S    
C33   C37   1.415689 A    
C34   C38   1.413030 A    
C25   O15   1.384100 S    
C59   H51   1.109515 S    
C60   H55   1.114865 S    
C33   O19   1.385856 S    
