data_mof_unit_15045.cif
_audit_creation_date              2013-03-05T15:58:17-0500
_audit_creation_method            fapswitch 2.2
_symmetry_space_group_name_H-M    P1
_symmetry_Int_Tables_number       1
_space_group_crystal_system       triclinic
_cell_length_a                    14.879365
_cell_length_b                    14.896307
_cell_length_c                    15.03733
_cell_angle_alpha                 110.167404
_cell_angle_beta                  109.254658
_cell_angle_gamma                 108.774234
_cell_volume                      2572.29998714

loop_
_atom_site_label
_atom_site_type_symbol
_atom_site_description
_atom_site_fract_x
_atom_site_fract_y
_atom_site_fract_z
_atom_type_partial_charge
C1    C     C_R   0.975348 0.250601 0.064245 -0.108572
C2    C     C_R   0.093433 0.806651 0.009272 -0.149150
H1    H     H_    0.939753 0.237830 0.113412 0.094903
H2    H     H_    0.153437 0.835360 0.986082 0.099003
N1    N     N_R   0.947560 0.293820 0.002910 -0.040869
N2    N     N_R   0.052440 0.706180 0.997090 -0.042473
C3    C     C_R   0.315586 0.759649 0.225369 -0.127263
C4    C     C_R   0.705994 0.193872 0.795467 -0.151095
H3    H     H_    0.380746 0.775885 0.206048 0.090790
H4    H     H_    0.660173 0.167689 0.832688 0.172824
N3    N     N_R   0.208960 0.706170 0.152110 -0.039997
N4    N     N_R   0.791040 0.293830 0.847890 -0.046635
C5    C     C_R   0.214043 0.408871 0.909070 -0.133350
C6    C     C_R   0.777453 0.593379 0.022190 -0.132032
H5    H     H_    0.186863 0.324919 0.851847 0.099320
H6    H     H_    0.797393 0.678406 0.057470 0.120442
N5    N     N_R   0.154330 0.443160 0.946140 -0.042201
N6    N     N_R   0.845670 0.556840 0.053860 -0.046809
C7    C     C_R   0.988565 0.589996 0.295126 -0.144427
C8    C     C_R   0.940323 0.410129 0.685179 -0.130290
H7    H     H_    0.006015 0.673273 0.341137 0.097742
H8    H     H_    0.891686 0.325697 0.619419 0.098072
N7    N     N_R   0.002190 0.556820 0.208880 -0.043714
N8    N     N_R   0.997810 0.443180 0.791120 -0.041702
C9    C     C_R   0.303468 0.591830 0.000629 -0.141594
C10   C     C_R   0.687060 0.410447 0.926555 -0.055192
H9    H     H_    0.358066 0.676060 0.028082 0.092260
H10   H     H_    0.623500 0.326336 0.868719 0.148481
N9    N     N_R   0.210550 0.556810 0.002910 -0.037883
N10   N     N_R   0.789450 0.443190 0.997090 -0.034440
C11   C     C_R   0.907241 0.408445 0.209188 -0.119617
C12   C     C_R   0.023372 0.593322 0.781597 -0.114956
H11   H     H_    0.859761 0.323219 0.181303 0.117365
H12   H     H_    0.043331 0.677017 0.808180 0.123835
N11   N     N_R   0.945970 0.443180 0.152110 -0.041998
N12   N     N_R   0.054030 0.556820 0.847890 -0.044037
C13   C     C_R   0.220079 0.751355 0.313647 -0.116204
C14   C     C_R   0.793821 0.195276 0.701777 -0.137227
H13   H     H_    0.194100 0.751046 0.372176 0.116639
H14   H     H_    0.826061 0.173555 0.648823 0.133136
N13   N     N_R   0.151530 0.706170 0.208880 -0.044614
N14   N     N_R   0.848470 0.293830 0.791120 -0.045227
C15   C     C_R   0.071674 0.255331 0.977410 -0.138951
C16   C     C_R   0.000779 0.802557 0.098102 -0.146091
H15   H     H_    0.129978 0.254052 0.951172 0.131136
H16   H     H_    0.978607 0.823917 0.159715 0.129397
N15   N     N_R   0.004980 0.293810 0.946140 -0.043628
N16   N     N_R   0.995020 0.706190 0.053860 -0.043272
C17   C     C_R   0.055568 0.226960 0.052251 0.055035
C18   C     C_R   0.062948 0.869830 0.073606 0.073177
C19   C     C_R   0.324728 0.789297 0.328283 0.057035
C20   C     C_R   0.705437 0.128065 0.703666 0.054596
C21   C     C_R   0.306946 0.500709 0.942649 0.099540
C22   C     C_R   0.676839 0.503130 0.942596 0.014097
C23   C     C_R   0.928427 0.498717 0.298120 0.064700
C24   C     C_R   0.956956 0.504675 0.677685 0.055325
H17   H     H_    0.359587 0.164853 0.836066 0.148282
H18   H     H_    0.765089 0.843062 0.265874 0.120039
C25   C     C_R   0.170686 0.042598 0.088048 -0.235326
C26   C     C_R   0.061169 0.138685 0.163587 -0.227114
C27   C     C_R   0.206904 0.094223 0.831800 -0.170852
C28   C     C_R   0.934730 0.940724 0.318957 -0.110029
H19   H     H_    0.160457 0.043732 0.744293 0.117651
H20   H     H_    0.963928 0.937203 0.392953 0.122270
Ni1   Ni    Ni4+2 0.869690 0.369690 0.000000 0.251305
Ni2   Ni    Ni4+2 0.130310 0.630310 0.000000 0.212934
Ni3   Ni    Ni4+2 0.001390 0.369680 0.869810 0.215996
Ni4   Ni    Ni4+2 0.998610 0.630320 0.130190 0.211974
C29   C     C_R   0.155154 0.085776 0.892984 -0.213481
C30   C     C_R   0.009173 0.998523 0.295334 -0.182530
H21   H     H_    0.466964 0.278133 0.040294 0.139411
H22   H     H_    0.697557 0.846615 0.093122 0.135257
H23   H     H_    0.594413 0.999508 0.036400 0.192107
H24   H     H_    0.392798 0.905974 0.917114 0.171942
C31   C     C_R   0.628744 0.167842 0.091193 0.416256
C32   C     C_R   0.294765 0.747240 0.769069 0.388751
C33   C     C_R   0.684521 0.274043 0.183272 -0.324822
C34   C     C_R   0.188073 0.669304 0.682494 -0.277245
H25   H     H_    0.677604 0.340931 0.174120 0.160593
H26   H     H_    0.171443 0.590419 0.623892 0.173601
C35   C     C_R   0.758127 0.296267 0.285525 0.082434
C36   C     C_R   0.101936 0.692520 0.670348 0.072000
C37   C     C_R   0.766472 0.208675 0.296567 -0.146530
C38   C     C_R   0.123440 0.796218 0.742850 -0.221978
H27   H     H_    0.822499 0.222996 0.374070 0.112027
H28   H     H_    0.058097 0.815930 0.733335 0.129830
C39   C     C_R   0.704424 0.102168 0.207735 -0.178523
C40   C     C_R   0.228188 0.871550 0.832550 -0.163131
H29   H     H_    0.710958 0.035765 0.217962 0.144188
H30   H     H_    0.243857 0.948541 0.892899 0.160613
C41   C     C_R   0.637190 0.081860 0.105190 -0.233395
C42   C     C_R   0.313039 0.847030 0.846159 -0.159036
C43   C     C_R   0.837758 0.421067 0.481180 -0.249067
C44   C     C_R   0.965498 0.603625 0.481851 -0.234406
H31   H     H_    0.785044 0.351956 0.482258 0.129744
H32   H     H_    0.018306 0.676544 0.486560 0.123748
C45   C     C_R   0.925159 0.513238 0.579495 0.063844
C46   C     C_R   0.899304 0.502784 0.383646 0.053226
C47   C     C_R   0.990094 0.606646 0.579646 0.050784
C48   C     C_R   0.829044 0.409619 0.381866 0.060750
H33   H     H_    0.069013 0.027081 0.852079 0.123274
H34   H     H_    0.095761 0.039758 0.351098 0.118915
H35   H     H_    0.375564 0.269082 0.147844 0.124147
H36   H     H_    0.828700 0.939029 0.045386 0.132444
C49   C     C_R   0.215200 0.151188 0.007172 0.121707
C50   C     C_R   0.971591 0.994493 0.194749 0.104253
C51   C     C_R   0.379579 0.226723 0.998215 -0.104508
C52   C     C_R   0.784464 0.887857 0.148949 -0.163735
H37   H     H_    0.126599 0.018415 0.569352 0.091474
H38   H     H_    0.015962 0.105365 0.563224 0.100360
C53   C     C_R   0.253858 0.046385 0.527638 -0.116022
C54   C     C_R   0.917387 0.022596 0.617053 -0.137322
H39   H     H_    0.248824 0.111402 0.513394 0.101912
H40   H     H_    0.985176 0.029380 0.679987 0.108427
C55   C     C_R   0.329149 0.014679 0.514121 -0.122958
C56   C     C_R   0.813406 0.975934 0.605247 -0.136412
H41   H     H_    0.381288 0.054935 0.488230 0.114241
H42   H     H_    0.802465 0.949447 0.661372 0.118947
C57   C     C_R   0.339677 0.933871 0.537406 0.083889
C58   C     C_R   0.725652 0.970691 0.526073 0.125183
C59   C     C_R   0.275392 0.886514 0.576202 -0.110402
C60   C     C_R   0.741770 0.006398 0.454607 -0.203728
H43   H     H_    0.284708 0.826259 0.597294 0.137430
H44   H     H_    0.675390 0.004217 0.393939 0.119509
C61   C     C_R   0.196620 0.915058 0.584673 -0.122695
C62   C     C_R   0.846627 0.055744 0.468974 -0.119091
H45   H     H_    0.144391 0.876320 0.610887 0.123653
H46   H     H_    0.860196 0.088629 0.417870 0.126200
C63   C     C_R   0.186134 0.995062 0.560748 -0.127651
C64   C     C_R   0.934559 0.065054 0.550960 -0.114402
C65   C     C_R   0.525635 0.975345 0.628363 -0.162216
C66   C     C_R   0.524104 0.865014 0.436582 -0.239211
H47   H     H_    0.522948 0.017259 0.701204 0.171545
H48   H     H_    0.524302 0.817917 0.363462 0.131523
C67   C     C_R   0.622521 0.011306 0.624473 0.035903
C68   C     C_R   0.425562 0.853145 0.433866 0.070914
C69   C     C_R   0.623699 0.946955 0.530661 0.034860
C70   C     C_R   0.427157 0.909671 0.532348 0.006048
C71   C     C_R   0.319403 0.163060 0.884167 -0.010126
C72   C     C_R   0.822479 0.886142 0.246306 -0.125717
C73   C     C_R   0.049499 0.041995 0.162347 0.020830
C74   C     C_R   0.165549 0.126978 0.071022 0.033045
H49   H     H_    0.219204 0.010100 0.063520 0.123379
H50   H     H_    0.023356 0.178531 0.200227 0.130119
C75   C     C_R   0.327585 0.221967 0.059596 -0.174658
C76   C     C_R   0.858755 0.941156 0.122640 -0.122686
C77   C     C_R   0.098323 0.987575 0.114846 0.059510
C78   C     C_R   0.101296 0.169941 0.100680 0.062740
C79   C     C_3   0.489191 0.414782 0.929176 -0.298646
C80   C     C_3   0.483716 0.592753 0.925732 -0.243549
C81   C     C_3   0.397051 0.410548 0.838232 -0.206845
C82   C     C_3   0.575694 0.595966 0.016295 -0.251939
H51   H     H_    0.322756 0.335366 0.765592 0.126649
H52   H     H_    0.648074 0.670190 0.090742 0.137904
H53   H     H_    0.495955 0.344290 0.931487 0.175187
H54   H     H_    0.479554 0.665164 0.924339 0.189424
C83   C     C_3   0.398532 0.502219 0.927917 0.084280
C84   C     C_3   0.575393 0.504468 0.927349 0.087359
C85   C     C_3   0.489806 0.506239 0.016331 0.279052
C86   C     C_3   0.485010 0.500857 0.838432 0.298462
N17   N     N_R   0.570710 0.149332 0.983473 0.211983
O1    O     O_R   0.518354 0.051611 0.898357 -0.440940
O2    O     O_R   0.584100 0.232309 0.968483 -0.524804
N18   N     N_R   0.383829 0.725470 0.778010 0.219945
O3    O     O_R   0.484272 0.802369 0.849985 -0.445502
O4    O     O_R   0.365886 0.630825 0.709615 -0.429915
N19   N     N_2   0.492086 0.506516 0.113664 -0.104847
H55   H     H_    0.532113 0.467477 0.138771 0.164997
C87   C     C_3   0.527664 0.611699 0.203437 -0.933763
H56   H     H_    0.509537 0.599117 0.265517 0.260456
H57   H     H_    0.484702 0.653380 0.175583 0.250411
H58   H     H_    0.617234 0.665354 0.242162 0.239410
N20   N     N_2   0.486001 0.500337 0.742426 -0.073929
H59   H     H_    0.547944 0.571971 0.760581 0.200339
C88   C     C_3   0.477780 0.402559 0.666293 -0.903663
H60   H     H_    0.473019 0.407664 0.593082 0.257836
H61   H     H_    0.402695 0.328432 0.639628 0.246743
H62   H     H_    0.550673 0.394783 0.704299 0.237627

loop_
_geom_bond_atom_site_label_1
_geom_bond_atom_site_label_2
_geom_bond_distance
_ccdc_geom_bond_type
C18   C77   1.475976 S    
C37   C39   1.391518 A    
C80   C83   1.544053 S    
H21   C51   1.076922 S    
N5    N9    1.384038 A    
C87   H56   1.110645 S    
C6    N6    1.329991 A    
C2    H2    1.078899 S    
C8    C24   1.400349 A    
C54   H40   1.078007 S    
N17   O1    1.300705 A    
N19   C87   1.447029 S    
C28   C72   1.397926 A    
N20   H59   1.030930 S    
C3    N3    1.339370 A    
N1    N15   1.392741 A    
C28   C30   1.396758 A    
N8    N12   1.383914 A    
C80   C86   1.546654 S    
C1    N1    1.328671 A    
C12   N12   1.315672 A    
N18   O3    1.301363 A    
C7    H7    1.080450 S    
C9    C21   1.365366 A    
C14   N14   1.331365 A    
C39   C41   1.391484 A    
C79   C81   1.549862 S    
C51   C75   1.391495 A    
C34   H26   1.083353 S    
C14   C20   1.389024 A    
C44   C46   1.402190 A    
H18   C72   1.082038 S    
C49   C74   1.460390 S    
C29   H33   1.083280 S    
H17   C71   1.081505 S    
C3    H3    1.079907 S    
C36   C47   1.481794 S    
H24   C42   1.079787 S    
C27   H19   1.076117 S    
C23   C46   1.475184 S    
C8    N8    1.342130 A    
C36   C38   1.402734 A    
C28   H20   1.079664 S    
C2    C18   1.401354 A    
N8    Ni3   1.868437 S    
C45   C47   1.414441 A    
C53   C63   1.394723 A    
H22   C52   1.082305 S    
C25   C74   1.386428 A    
C16   H16   1.065069 S    
C55   H41   1.083422 S    
N4    N14   1.392866 A    
C11   H11   1.070943 S    
N3    N13   1.392865 A    
N6    N10   1.384037 A    
C4    N4    1.326554 A    
C88   H62   1.110896 S    
C15   N15   1.333666 A    
C79   C84   1.541535 S    
C4    C20   1.385920 A    
C5    C21   1.372390 A    
N3    Ni2   1.865327 S    
C31   C41   1.404508 A    
N20   C88   1.445777 S    
C82   C85   1.523536 S    
C25   H49   1.081212 S    
C83   C85   1.522336 S    
C80   H54   1.107017 S    
C84   C86   1.522230 S    
C87   H57   1.108053 S    
C2    N2    1.339854 A    
C24   C45   1.458828 S    
C10   C22   1.384622 A    
N15   Ni3   1.868290 S    
N17   O2    1.296748 A    
C58   C60   1.406178 A    
N13   Ni4   1.871257 S    
C52   C76   1.396018 A    
C33   H25   1.083288 S    
C9    N9    1.328219 A    
C82   C84   1.543318 S    
N5    Ni3   1.871313 S    
C40   C42   1.395440 A    
H23   C41   1.080839 S    
N1    Ni1   1.861524 S    
C56   H42   1.083217 S    
C30   C50   1.400706 A    
N19   H55   1.030272 S    
C52   C72   1.397419 A    
N11   Ni1   1.865457 S    
C29   C49   1.403653 A    
C27   C71   1.393765 A    
C66   C69   1.396297 A    
C56   C58   1.404785 A    
C17   C78   1.478651 S    
C1    H1    1.074108 S    
C12   H12   1.068687 S    
N7    Ni4   1.868436 S    
C60   C62   1.396864 A    
C7    N7    1.327885 A    
C59   C61   1.397389 A    
H36   C76   1.083242 S    
C26   C73   1.386854 A    
C22   C84   1.457963 S    
C51   C71   1.400520 A    
C15   H15   1.067629 S    
C19   C68   1.464780 S    
C34   C36   1.403611 A    
C43   C45   1.394644 A    
C88   H60   1.110213 S    
C33   C35   1.406529 A    
C66   C68   1.404093 A    
C49   C75   1.397141 A    
C53   H39   1.081058 S    
N16   Ni4   1.868290 S    
C44   H32   1.078507 S    
C79   C85   1.525329 S    
C43   C48   1.399504 A    
C57   C59   1.403716 A    
N2    N16   1.392743 A    
C32   C42   1.403983 A    
C68   C70   1.416615 A    
C21   C83   1.445495 S    
C37   H27   1.082616 S    
C40   H30   1.078855 S    
C10   N10   1.335346 A    
C88   H61   1.110593 S    
N7    N11   1.383916 A    
C5    H5    1.082070 S    
H37   C63   1.079533 S    
N14   Ni3   1.871254 S    
C87   H58   1.111610 S    
C80   C82   1.553554 S    
C32   N18   1.438271 S    
C8    H8    1.080736 S    
C60   H44   1.083278 S    
C81   C83   1.541176 S    
C54   C56   1.396394 A    
H35   C75   1.083358 S    
C50   C73   1.471116 S    
C82   H52   1.104754 S    
C27   C29   1.392811 A    
C67   C69   1.415608 A    
C62   H46   1.081439 S    
N12   Ni2   1.865459 S    
C55   C57   1.404278 A    
C6    C22   1.376358 A    
C57   C70   1.475949 S    
C10   H10   1.078928 S    
C4    H4    1.077621 S    
C15   C17   1.393996 A    
C38   C40   1.397065 A    
C32   C34   1.404023 A    
C65   H47   1.079153 S    
C35   C37   1.409096 A    
C30   H34   1.078557 S    
C35   C48   1.490479 S    
C7    C23   1.391820 A    
C9    H9    1.081780 S    
N4    Ni1   1.865328 S    
C65   C67   1.395969 A    
C50   C76   1.404452 A    
C5    N5    1.335471 A    
C31   N17   1.435879 S    
C54   C64   1.396412 A    
C81   C86   1.544010 S    
C39   H29   1.080965 S    
C79   H53   1.097668 S    
C3    C19   1.399897 A    
C13   H13   1.072419 S    
C65   C70   1.377233 A    
C26   H50   1.079989 S    
C14   H14   1.069148 S    
C43   H31   1.084200 S    
C1    C17   1.396435 A    
C44   C47   1.373815 A    
C13   C19   1.383543 A    
C11   N11   1.333046 A    
N18   O4    1.301366 A    
C85   N19   1.451336 S    
H38   C64   1.081575 S    
C6    H6    1.079204 S    
C81   H51   1.110241 S    
C13   N13   1.320022 A    
C46   C48   1.428888 A    
C59   H43   1.082970 S    
N10   Ni1   1.861749 S    
C73   C77   1.420265 A    
N9    Ni2   1.861752 S    
C61   C63   1.397284 A    
N2    Ni2   1.861523 S    
C16   C18   1.370469 A    
C66   H48   1.082931 S    
C74   C78   1.414473 A    
C31   C33   1.412542 A    
C61   H45   1.078208 S    
C20   C67   1.478838 S    
C62   C64   1.397295 A    
C38   H28   1.083041 S    
C53   C55   1.394260 A    
C58   C69   1.473652 S    
C26   C78   1.401917 A    
C11   C23   1.380271 A    
N6    Ni4   1.871311 S    
C12   C24   1.371411 A    
C86   N20   1.445978 S    
C16   N16   1.317326 A    
C25   C77   1.392609 A    
