data_mof_unit_48788.cif
_audit_creation_date              2012-12-10T19:43:24-0500
_audit_creation_method            fapswitch 2.2
_symmetry_space_group_name_H-M    P1
_symmetry_Int_Tables_number       1
_space_group_crystal_system       triclinic
_cell_length_a                    10.913704
_cell_length_b                    10.88974
_cell_length_c                    9.599379
_cell_angle_alpha                 90.71433
_cell_angle_beta                  89.723577
_cell_angle_gamma                 93.781745
_cell_volume                      1138.27940964

loop_
_atom_site_label
_atom_site_type_symbol
_atom_type_description
_atom_site_fract_x
_atom_site_fract_y
_atom_site_fract_z
_atom_type_partial_charge
C1    C     C_R   0.492773 0.262023 0.499040 0.815203
C2    C     C_R   0.189367 0.880103 0.163755 -0.345626
C3    C     C_R   0.939765 0.550942 0.391069 0.388184
C4    C     C_R   0.871790 0.495245 0.500854 -0.181389
C5    C     C_R   0.932248 0.453122 0.619266 -0.141119
C6    C     C_R   0.059843 0.473706 0.629491 0.291686
C7    C     C_R   0.128728 0.514146 0.510534 -0.205950
C8    C     C_R   0.067931 0.567490 0.400703 -0.123058
C9    C     C_R   0.840492 0.426754 0.859992 -0.066691
C10   C     C_R   0.771843 0.356299 0.957231 -0.144799
C11   C     C_R   0.723121 0.238341 0.921210 -0.110984
C12   C     C_R   0.262678 0.506028 0.502244 0.885170
C13   C     C_R   0.744216 0.189967 0.788382 -0.115068
C14   C     C_R   0.814504 0.259310 0.691568 -0.096551
C15   C     C_R   0.863698 0.378174 0.726698 0.202648
C16   C     C_R   0.355747 0.121065 0.714496 0.291339
C17   C     C_R   0.346815 0.071675 0.847146 -0.279188
C18   C     C_R   0.372503 0.949792 0.864154 -0.211996
C19   C     C_R   0.385803 0.876188 0.746225 0.447669
C20   C     C_R   0.428834 0.932845 0.619532 -0.039511
C21   C     C_R   0.422378 0.061877 0.610919 0.031266
C22   C     C_R   0.475431 0.127026 0.496817 -0.067952
C23   C     C_R   0.493364 0.736979 0.501180 0.752059
C24   C     C_R   0.519095 0.062388 0.382669 -0.211089
C25   C     C_R   0.518142 0.935407 0.384777 -0.179590
C26   C     C_R   0.477955 0.869460 0.503170 -0.092743
C27   C     C_R   0.656814 0.672420 0.144684 -0.097408
C28   C     C_R   0.731738 0.758540 0.073130 -0.197124
C29   C     C_R   0.732205 0.758019 0.929504 -0.235811
C30   C     C_R   0.657382 0.671710 0.856754 -0.140340
C31   C     C_R   0.576366 0.585414 0.925650 0.226642
C32   C     C_R   0.576288 0.585461 0.075156 0.174756
C33   C     C_R   0.427829 0.418202 0.073298 -0.074594
C34   C     C_R   0.737384 0.496281 0.499783 0.839233
C35   C     C_R   0.428332 0.418050 0.925581 0.013076
C36   C     C_R   0.164985 0.896788 0.306063 0.487776
C37   C     C_R   0.131782 0.794450 0.388254 0.407959
C38   C     C_R   0.128446 0.674012 0.327336 -0.071712
C39   C     C_R   0.162852 0.659247 0.187701 -0.147586
C40   C     C_R   0.190117 0.761903 0.105672 -0.167904
Cu1   Cu    Cu3+1 0.499990 0.499990 0.640660 0.994104
Cu2   Cu    Cu3+1 0.500010 0.500010 0.359340 0.954178
H1    H     H_    0.205511 0.959463 0.098200 0.153205
H2    H     H_    0.668631 0.184638 0.996026 0.125356
H3    H     H_    0.705727 0.098900 0.760241 0.129414
H4    H     H_    0.829481 0.221089 0.588638 0.129002
H5    H     H_    0.557925 0.110331 0.292838 0.152600
H6    H     H_    0.304682 0.120849 0.931485 0.165156
H7    H     H_    0.360313 0.907693 0.964180 0.168626
H8    H     H_    0.555354 0.889187 0.295048 0.159611
H9    H     H_    0.368479 0.351157 0.127805 0.143904
H10   H     H_    0.668509 0.675504 0.254330 0.231455
H11   H     H_    0.792245 0.824062 0.129834 0.175546
H12   H     H_    0.792905 0.823232 0.873815 0.172631
H13   H     H_    0.669061 0.674678 0.746958 0.199809
H14   H     H_    0.369739 0.350793 0.870363 0.183386
H15   H     H_    0.159390 0.568436 0.139887 0.192437
H16   H     H_    0.207851 0.749361 0.995747 0.229737
H17   H     H_    0.874545 0.519348 0.888076 0.153079
H18   H     H_    0.755171 0.393757 0.060034 0.157561
N1    N     N_R   0.501190 0.501210 0.147910 -0.207352
N2    N     N_R   0.501230 0.501290 0.852040 -0.183258
O1    O     O_R   0.499990 0.319640 0.618810 -0.575104
O2    O     O_R   0.500000 0.319660 0.381240 -0.593313
O3    O     O_R   0.319640 0.500000 0.618780 -0.507177
O4    O     O_R   0.319650 0.500020 0.381210 -0.577055
O5    O     O_R   0.500000 0.680340 0.618760 -0.571658
O6    O     O_R   0.500010 0.680360 0.381190 -0.610164
O7    O     O_R   0.680350 0.499980 0.618790 -0.617965
O8    O     O_R   0.680360 0.500000 0.381220 -0.555102
Br1   Br    Br    0.226910 0.218178 0.656759 -0.458094
O9    O     O_3   0.332897 0.758393 0.754236 -0.687866
H19   H     H_    0.292447 0.739303 0.663621 0.335614
O10   O     O_3   0.167496 0.012636 0.366531 -0.658839
H20   H     H_    0.194622 0.074573 0.296020 0.315179
O11   O     O_3   0.097655 0.817770 0.524541 -0.694143
H21   H     H_    0.073621 0.740298 0.572617 0.319112
O12   O     O_3   0.878375 0.598455 0.280923 -0.750653
H22   H     H_    0.931354 0.599415 0.197046 0.334731
Br2   Br    Br    0.130168 0.470645 0.814898 -0.536568

loop_
_geom_bond_atom_site_label_1
_geom_bond_atom_site_label_2
_ccdc_geom_bond_type
C16   C21   A    
Cu1   Cu2   S    
C19   C20   A    
C17   H6    S    
C7    C8    A    
C14   H4    S    
C37   C38   A    
C36   C37   A    
C32   N1    A    
C5    C6    A    
C29   H12   S    
C39   H15   S    
Cu2   O8    S    
C18   C19   A    
C23   C26   S    
C23   O5    A    
C25   H8    S    
C16   C17   A    
C9    C10   A    
C34   O8    A    
C27   C32   A    
C1    C22   S    
C21   C22   A    
Cu2   O6    S    
C31   N2    A    
C19   O9    S    
C16   Br1   S    
C8    C38   S    
Cu1   N2    S    
C1    O1    A    
C7    C12   S    
C4    C34   S    
C40   H16   S    
O10   H20   S    
C24   C25   A    
Cu1   O5    S    
C3    C8    A    
C39   C40   A    
O12   H22   S    
C4    C5    A    
Cu1   O3    S    
C25   C26   A    
C12   O4    A    
C9    H17   S    
C23   O6    A    
C10   H18   S    
C29   C30   A    
C6    Br2   S    
C31   C32   A    
Cu2   N1    S    
C2    H1    S    
C17   C18   A    
C11   H2    S    
O11   H21   S    
C34   O7    A    
C36   O10   S    
C37   O11   S    
C22   C24   A    
Cu1   O1    S    
C3    C4    A    
C1    O2    A    
Cu2   O2    S    
C27   H10   S    
Cu1   O7    S    
C12   O3    A    
C2    C36   A    
C28   C29   A    
C35   H14   S    
C24   H5    S    
O9    H19   S    
C28   H11   S    
C6    C7    A    
C33   H9    S    
C30   H13   S    
C9    C15   A    
C13   H3    S    
C11   C13   A    
C30   C31   A    
C38   C39   A    
C20   C26   A    
C33   C35   A    
C35   N2    A    
C5    C15   S    
C10   C11   A    
C2    C40   A    
C20   C21   A    
C33   N1    A    
C27   C28   A    
Cu2   O4    S    
C14   C15   A    
C13   C14   A    
C3    O12   S    
C18   H7    S    
