data_mof_unit_48803.cif
_audit_creation_date              2013-03-05T16:48:18-0500
_audit_creation_method            fapswitch 2.2
_symmetry_space_group_name_H-M    P1
_symmetry_Int_Tables_number       1
_space_group_crystal_system       triclinic
_cell_length_a                    23.527188
_cell_length_b                    8.928312
_cell_length_c                    8.095967
_cell_angle_alpha                 90.093688
_cell_angle_beta                  89.997599
_cell_angle_gamma                 90.096764
_cell_volume                      1700.61854275

loop_
_atom_site_label
_atom_site_type_symbol
_atom_site_description
_atom_site_fract_x
_atom_site_fract_y
_atom_site_fract_z
_atom_type_partial_charge
O1    O     O_R   0.500000 0.285350 0.636850 -0.628277
O2    O     O_R   0.500000 0.714650 0.363150 -0.589381
O3    O     O_R   0.500000 0.714650 0.636850 -0.628791
O4    O     O_R   0.500000 0.285350 0.363150 -0.588959
H1    H     H_    0.947437 0.125881 0.414694 0.190563
H2    H     H_    0.051575 0.874301 0.544264 0.191482
H3    H     H_    0.948390 0.873587 0.553967 0.190581
H4    H     H_    0.050647 0.124519 0.423151 0.190613
C1    C     C_R   0.500048 0.217964 0.499918 0.955899
C2    C     C_R   0.499848 0.782037 0.500095 0.972645
O5    O     O_R   0.416160 0.500000 0.636910 -0.644290
O6    O     O_R   0.583840 0.500000 0.363090 -0.589160
O7    O     O_R   0.583840 0.500000 0.636910 -0.637310
O8    O     O_R   0.416160 0.500000 0.363090 -0.584282
C3    C     C_R   0.207718 0.498219 0.490822 0.249054
C4    C     C_R   0.791463 0.499526 0.490954 0.251729
C5    C     C_R   0.389036 0.499499 0.499987 0.891072
C6    C     C_R   0.610785 0.500225 0.499978 0.901504
Zn1   Zn    Zn3+2 0.500000 0.500000 0.682780 1.010364
Zn2   Zn    Zn3+2 0.500000 0.500000 0.317220 1.064503
H5    H     H_    0.211988 0.623032 0.716774 0.195327
H6    H     H_    0.786927 0.335032 0.682702 0.195507
H7    H     H_    0.215423 0.372409 0.265863 0.158934
H8    H     H_    0.784650 0.664660 0.299983 0.158147
C7    C     C_R   0.295651 0.575573 0.622517 -0.092324
C8    C     C_R   0.703309 0.402766 0.603705 -0.100551
C9    C     C_R   0.297129 0.417310 0.373334 -0.037743
C10   C     C_R   0.702453 0.600543 0.391931 -0.041258
C11   C     C_R   0.326726 0.496757 0.499365 -0.149026
C12   C     C_R   0.672791 0.502008 0.499509 -0.142074
C13   C     C_R   0.880734 0.631066 0.516032 0.517220
C14   C     C_R   0.118197 0.365434 0.472709 0.515008
C15   C     C_R   0.880334 0.368300 0.457163 0.512133
C16   C     C_R   0.118555 0.632461 0.498094 0.510781
N1    N     N_R   0.852186 0.499626 0.487748 -0.353003
N2    N     N_R   0.146862 0.498735 0.486655 -0.351711
C17   C     C_R   0.939662 0.364939 0.458686 -0.011642
C18   C     C_R   0.059248 0.634934 0.503091 -0.011708
C19   C     C_R   0.940025 0.634441 0.510886 -0.014245
C20   C     C_R   0.058911 0.363735 0.465017 -0.013479
C21   C     C_R   0.969605 0.499646 0.484249 -0.021405
C22   C     C_R   0.029310 0.499467 0.483880 -0.021056
C23   C     C_R   0.969575 0.230674 0.435317 -0.156878
C24   C     C_R   0.029375 0.769150 0.527126 -0.156698
C25   C     C_R   0.970259 0.768669 0.532918 -0.159247
C26   C     C_R   0.028706 0.229835 0.440356 -0.158903
C27   C     C_1   0.499988 0.065195 0.499885 -0.143457
C28   C     C_1   0.499913 0.934810 0.500136 -0.136873
C29   C     C_R   0.236407 0.568399 0.620568 -0.062999
C30   C     C_R   0.762606 0.407007 0.601579 -0.053824
C31   C     C_R   0.238199 0.426819 0.365806 -0.157172
C32   C     C_R   0.761437 0.593116 0.384618 -0.167507
N3    N     N_1   0.500000 0.500000 0.073640 -0.015535
N4    N     N_1   0.500000 0.500000 0.926360 -0.024683
O9    O     O_2   0.851762 0.757685 0.550670 -0.530989
O10   O     O_2   0.146958 0.234759 0.468600 -0.530574
O11   O     O_2   0.850918 0.241724 0.424449 -0.530835
O12   O     O_2   0.147741 0.762710 0.503378 -0.526913
C33   C     C_2   0.323301 0.673232 0.748351 0.453931
H9    H     H_    0.365564 0.718074 0.728513 0.081469
O13   O     O_2   0.298430 0.708020 0.875191 -0.555065
C34   C     C_2   0.674585 0.288897 0.709060 0.458183
H10   H     H_    0.630393 0.259539 0.689425 0.071646
O14   O     O_2   0.700430 0.223990 0.818397 -0.542073
C35   C     C_2   0.324803 0.317101 0.250995 0.477155
H11   H     H_    0.306016 0.302906 0.129461 0.071766
O15   O     O_2   0.366293 0.242157 0.287443 -0.553166
C36   C     C_2   0.674665 0.717370 0.289528 0.459722
H12   H     H_    0.695662 0.757630 0.178694 0.080247
O16   O     O_2   0.630132 0.776014 0.331669 -0.562121

loop_
_geom_bond_atom_site_label_1
_geom_bond_atom_site_label_2
_geom_bond_distance
_ccdc_geom_bond_type
H8    C32   1.084438 S    
C7    C11   1.422366 A    
C20   C26   1.403718 A    
C18   C24   1.403514 A    
C34   H10   1.083478 S    
C9    C35   1.484733 S    
C3    C31   1.394428 A    
C9    C11   1.423074 A    
C5    C11   1.466158 S    
C21   C22   1.404702 A    
H7    C31   1.084295 S    
C27   C28   1.164118 T    
H6    C30   1.083692 S    
C19   C25   1.403728 A    
O6    Zn2   2.007188 S    
H5    C29   1.083646 S    
C34   O14   1.221494 D    
C8    C34   1.489395 S    
Zn2   N3    1.972016 S    
C33   H9    1.083327 S    
C19   C21   1.407552 A    
O3    C2    1.260947 A    
H2    C24   1.082288 S    
N3    N4    1.192373 T    
C3    C29   1.395722 A    
O3    Zn1   1.952799 S    
C10   C32   1.390686 A    
O8    C5    1.278893 A    
O5    Zn1   2.007191 S    
O7    C6    1.277031 A    
C17   C21   1.407827 A    
C6    C12   1.458906 S    
C14   N2    1.371456 A    
Zn1   N4    1.972016 S    
C10   C12   1.421228 A    
C15   N1    1.369787 A    
C9    C31   1.390542 A    
C18   C22   1.407012 A    
C2    C28   1.364008 S    
C16   N2    1.371108 A    
C8    C30   1.395631 A    
C4    N1    1.428884 S    
H1    C23   1.082774 S    
C4    C30   1.394950 A    
C23   C26   1.391824 A    
C7    C29   1.395313 A    
C17   C23   1.403649 A    
O1    Zn1   1.951607 S    
C1    C27   1.363967 S    
C33   O13   1.221836 D    
O7    Zn1   2.007158 S    
O2    Zn2   1.951606 S    
O4    Zn2   1.952800 S    
H3    C25   1.082755 S    
C3    N2    1.432190 S    
C14   C20   1.396290 A    
O1    C1    1.260473 A    
C24   C25   1.391626 A    
O8    Zn2   2.007160 S    
C36   O16   1.220459 D    
C35   H11   1.085811 S    
O6    C6    1.276758 A    
C16   O12   1.350118 S    
C20   C22   1.406819 A    
O5    C5    1.279107 A    
C13   N1    1.370111 A    
C7    C33   1.488807 S    
H4    C26   1.082242 S    
C13   O9    1.350123 S    
O4    C1    1.261029 A    
C16   C18   1.396130 A    
C14   O10   1.350084 S    
C15   O11   1.350055 S    
C15   C17   1.396250 A    
C4    C32   1.393843 A    
C10   C36   1.485903 S    
C13   C19   1.395844 A    
C36   H12   1.085744 S    
C35   O15   1.220880 D    
C8    C12   1.420176 A    
O2    C2    1.260575 A    
