data_mof_unit_36965.cif
_audit_creation_date              2013-03-05T16:12:49-0500
_audit_creation_method            fapswitch 2.2
_symmetry_space_group_name_H-M    P1
_symmetry_Int_Tables_number       1
_space_group_crystal_system       triclinic
_cell_length_a                    8.424523
_cell_length_b                    16.446876
_cell_length_c                    19.003047
_cell_angle_alpha                 113.6963
_cell_angle_beta                  92.4021
_cell_angle_gamma                 83.491746
_cell_volume                      2395.45730767

loop_
_atom_site_label
_atom_site_type_symbol
_atom_site_description
_atom_site_fract_x
_atom_site_fract_y
_atom_site_fract_z
_atom_type_partial_charge
P1    P     P_3+3 0.582960 0.413890 0.320860 0.527707
O1    O     O_2   0.402610 0.439360 0.314250 -0.340346
O2    O     O_3   0.648560 0.446300 0.404730 -0.346840
O3    O     O_3   0.108870 0.604000 0.387500 -0.383771
O4    O     O_2   0.236262 0.519154 0.248513 -0.363324
O5    O     O_3   0.594768 0.296873 0.282416 -0.555881
O6    O     O_3   0.117708 0.679654 0.275128 -0.586168
H1    H     H_    0.070913 0.765770 0.388380 0.040382
C1    C     C_3   0.058483 0.838086 0.315458 -0.163366
H2    H     H_    0.186667 0.848720 0.322240 0.104597
P2    P     P_3+3 0.071690 0.707860 0.593450 0.626871
P3    P     P_3+3 0.506597 0.765991 0.454470 0.514854
O7    O     O_2   0.241370 0.719440 0.573960 -0.367697
O8    O     O_3   0.507090 0.652150 0.432150 -0.324847
O9    O     O_2   0.371249 0.814087 0.514104 -0.370329
O10   O     O_3   0.063549 0.763217 0.693670 -0.536489
O11   O     O_3   0.444079 0.785975 0.373457 -0.587252
C2    C     C_3   0.494192 0.710127 0.307251 0.290986
H3    H     H_    0.414054 0.657494 0.296670 0.151783
H4    H     H_    0.617206 0.681250 0.312670 0.101944
C3    C     C_3   0.488431 0.735953 0.238590 0.007226
H5    H     H_    0.362795 0.757079 0.228201 0.179901
H6    H     H_    0.561192 0.792663 0.250841 0.195250
C4    C     C_3   0.524016 0.755315 0.696753 0.458544
H7    H     H_    0.416558 0.724125 0.671207 0.043439
C5    C     C_3   0.469259 0.854782 0.755496 0.602155
Ba1   Ba    Ba6+2 0.333520 0.539550 0.472180 1.709882
C6    C     C_3   0.553154 0.268282 0.338819 0.321072
H8    H     H_    0.431617 0.298325 0.360857 0.115234
H9    H     H_    0.639481 0.286736 0.387116 0.110288
C7    C     C_3   0.556045 0.166869 0.303231 -0.725679
H10   H     H_    0.481702 0.144795 0.250663 0.303886
H11   H     H_    0.508961 0.143142 0.344198 0.215652
H12   H     H_    0.680056 0.135065 0.288306 0.251487
C8    C     C_3   0.119436 0.711819 0.734746 1.018035
H13   H     H_    0.249321 0.693343 0.728607 -0.327892
C9    C     C_3   0.084027 0.773412 0.819689 0.544103
H14   H     H_    0.137155 0.836026 0.831520 0.058561
P4    P     P_3+3 0.606720 0.586180 0.679160 0.615151
O12   O     O_2   0.787080 0.560670 0.685800 -0.245070
O13   O     O_3   0.541120 0.553770 0.595290 -0.387132
O14   O     O_3   0.080800 0.396070 0.612520 -0.377559
O15   O     O_3   0.613323 0.703462 0.730421 -0.494683
P5    P     P_3+3 0.699887 0.232582 0.543884 0.510989
O16   O     O_3   0.164600 0.390590 0.443970 -0.371920
O17   O     O_3   0.682580 0.347920 0.567870 -0.380756
O18   O     O_2   0.824503 0.191004 0.478633 -0.309935
O19   O     O_3   0.790883 0.208975 0.619432 -0.526624
Ba2   Ba    Ba6+2 0.856270 0.460520 0.527840 1.697731
P6    P     P_3+3 0.090298 0.583598 0.289947 0.503610
C10   C     C_3   0.029546 0.755180 0.329269 0.764493
H15   H     H_    0.993260 0.897145 0.359811 0.175390
O20   O     O_3   0.025080 0.609480 0.556050 -0.378742
C11   C     C_3   0.061473 0.265585 0.260250 0.997259
C12   C     C_3   0.957178 0.196809 0.202574 -0.211836
H16   H     H_    0.876584 0.174208 0.234062 0.115394
H17   H     H_    0.881022 0.229226 0.169807 0.139774
P7    P     P_3+3 0.129245 0.277042 0.405585 0.473414
O21   O     O_2   0.948320 0.280590 0.426090 -0.368947
O22   O     O_3   0.151242 0.224615 0.304450 -0.611442
C13   C     C_3   0.679574 0.232380 0.679387 0.864022
H18   H     H_    0.567460 0.200678 0.657604 -0.070742
C14   C     C_3   0.746932 0.197926 0.739234 0.107224
H19   H     H_    0.864132 0.223757 0.760587 0.096465
H20   H     H_    0.663935 0.223733 0.789225 0.146108
P8    P     P_3+3 0.101201 0.405481 0.706129 0.517310
C15   C     C_3   0.193686 0.238005 0.652389 0.312489
H21   H     H_    0.314045 0.262054 0.665317 -0.009986
O23   O     O_2   0.951312 0.464139 0.749886 -0.300739
O24   O     O_3   0.076727 0.299575 0.702198 -0.527695
H22   H     H_    0.161373 0.226200 0.592001 0.081354
H23   H     H_    0.288031 0.100108 0.619301 0.118576
C16   C     C_3   0.200400 0.149423 0.660976 0.026652
H24   H     H_    0.081999 0.123009 0.647045 0.116792
C17   C     C_R   0.520892 0.436563 0.032789 -0.162830
C18   C     C_R   0.435626 0.403237 0.077643 0.505673
C19   C     C_R   0.349455 0.384344 0.915573 -0.203181
C20   C     C_R   0.471045 0.434357 0.958188 0.106595
C21   C     C_R   0.286256 0.394122 0.850489 -0.171359
C22   C     C_R   0.353216 0.445783 0.818110 0.069412
C23   C     C_R   0.489175 0.488907 0.853183 0.076682
C24   C     C_R   0.546898 0.483232 0.924069 0.041252
C25   C     C_R   0.291175 0.452042 0.750046 0.182764
C26   C     C_R   0.376565 0.491502 0.711856 -0.453580
C27   C     C_R   0.513827 0.535000 0.742710 0.260201
C28   C     C_R   0.564878 0.538820 0.818941 -0.125103
C29   C     C_R   0.664080 0.474198 0.064724 0.085907
C30   C     C_R   0.720384 0.477722 0.138182 0.079894
C31   C     C_R   0.633220 0.444499 0.181261 -0.263271
C32   C     C_R   0.498572 0.401802 0.146764 -0.017437
H25   H     H_    0.334333 0.488644 0.656506 0.130332
H26   H     H_    0.185507 0.358094 0.825560 0.184831
H27   H     H_    0.431644 0.372775 0.176056 0.239292
C33   C     C_R   0.679783 0.593138 0.866040 0.262136
C34   C     C_R   0.731053 0.589935 0.936734 0.192220
C35   C     C_R   0.679513 0.526982 0.961079 -0.168875
C36   C     C_R   0.749441 0.512231 0.025177 0.132639
C37   C     C_R   0.904565 0.533636 0.050577 -0.139839
C38   C     C_R   0.863525 0.516090 0.168902 -0.028857
C39   C     C_R   0.958134 0.538742 0.122060 -0.055418
C40   C     C_R   0.907324 0.531351 0.245472 0.143472
C41   C     C_R   0.808894 0.508015 0.290670 0.223606
C42   C     C_R   0.679287 0.459460 0.258707 0.187080
H28   H     H_    0.074451 0.561224 0.139789 0.184009
H29   H     H_    0.301902 0.335097 0.930300 0.207946
H30   H     H_    0.986525 0.547096 0.015423 0.168407
C43   C     C_2   0.396647 0.240897 0.488804 -0.531666
C44   C     C_R   0.827876 0.746994 0.499539 -0.420610
C45   C     C_2   0.220742 0.123057 0.426630 -0.211195
C46   C     C_2   0.249317 0.208315 0.447887 0.268769
C47   C     C_2   0.507939 0.187086 0.506425 0.205792
C48   C     C_3   0.467676 0.096235 0.499804 -0.282107
C49   C     C_3   0.338905 0.055511 0.440439 0.123453
C50   C     C_2   0.606351 0.026995 0.492142 0.379474
C51   C     C_2   0.592950 0.968394 0.524221 -0.200364
C52   C     C_R   0.860780 0.928285 0.562913 0.037529
C53   C     C_R   0.721809 0.899301 0.522917 -0.043661
C54   C     C_R   0.978888 0.869162 0.575797 0.369226
C55   C     C_R   0.958252 0.777990 0.547699 0.307553
C56   C     C_R   0.701557 0.807665 0.492941 0.262141
H31   H     H_    0.117522 0.098818 0.391396 0.197506
H32   H     H_    0.420374 0.307882 0.497927 0.153426
H33   H     H_    0.813518 0.676938 0.477208 0.243763
H34   H     H_    0.483449 0.972476 0.554188 0.159741
N1    N     N_R   0.596557 0.914619 0.771131 0.275697
O25   O     O_R   0.693258 0.924650 0.828588 -0.264944
O26   O     O_R   0.595908 0.969808 0.737391 -0.295803
O27   O     O_3   0.338013 0.888128 0.723044 -0.704627
H35   H     H_    0.373909 0.885243 0.672871 0.356410
N2    N     N_R   0.415861 0.859711 0.829789 0.241643
O28   O     O_R   0.361953 0.936922 0.882206 -0.246650
O29   O     O_R   0.426447 0.789635 0.846001 -0.373262
O30   O     O_3   0.040291 0.635452 0.712237 -0.650755
H36   H     H_    0.109330 0.585528 0.674551 0.297768
N3    N     N_R   0.150438 0.735740 0.874084 0.267074
O31   O     O_R   0.153282 0.787145 0.946927 -0.233089
O32   O     O_R   0.219555 0.654550 0.850677 -0.385828
O33   O     O_3   0.919747 0.796798 0.831191 -0.611547
H37   H     H_    0.905486 0.844287 0.883869 0.388330
O34   O     O_3   0.865652 0.745927 0.324042 -0.819591
H38   H     H_    0.837302 0.724799 0.268764 0.345714
O35   O     O_3   0.964966 0.342820 0.305597 -0.817608
H39   H     H_    0.874193 0.323752 0.324120 0.315789
N4    N     N_R   0.171186 0.290399 0.216226 0.237688
O36   O     O_R   0.116388 0.342995 0.182761 -0.387827
O37   O     O_R   0.309214 0.243942 0.194466 -0.353392
N5    N     N_R   0.055461 0.118885 0.149212 0.299963
O38   O     O_R   0.060854 0.103975 0.076572 -0.250613
O39   O     O_R   0.134103 0.062366 0.173432 -0.274144
N6    N     N_R   0.004197 0.831189 0.239302 0.285266
O40   O     O_R   0.072560 0.770316 0.177540 -0.306239
O41   O     O_R   0.889354 0.887643 0.232828 -0.262538
O42   O     O_3   0.548968 0.662802 0.173378 -0.744854
H40   H     H_    0.522973 0.679221 0.129037 0.383883
O43   O     O_3   0.650297 0.325385 0.715775 -0.777455
H41   H     H_    0.558986 0.342481 0.688465 0.273394
O44   O     O_3   0.758982 0.104401 0.708585 -0.669642
H42   H     H_    0.874380 0.082771 0.699716 0.331907
O45   O     O_3   0.249107 0.159454 0.735321 -0.661323
H43   H     H_    0.152711 0.183103 0.768664 0.346372
N7    N     N_R   0.742140 0.657936 0.847521 0.279429
O46   O     O_R   0.889228 0.638618 0.824928 -0.272760
O47   O     O_R   0.693983 0.741033 0.888779 -0.237921
O48   O     O_3   0.836643 0.533905 0.367917 -0.713278
H44   H     H_    0.937250 0.499344 0.373055 0.384826
O49   O     O_3   0.282653 0.379956 0.061308 -0.694809
H45   H     H_    0.221925 0.426713 0.047702 0.304051
N8    N     N_R   0.815396 0.661483 0.989456 0.266143
O50   O     O_R   0.751180 0.714484 0.055368 -0.299477
O51   O     O_R   0.957864 0.672170 0.973129 -0.267403
O52   O     O_3   0.108122 0.900821 0.621020 -0.666528
H46   H     H_    0.103128 0.966134 0.635644 0.325327
N9    N     N_R   0.739026 0.016623 0.443203 0.245296
O53   O     O_R   0.712984 0.018499 0.375917 -0.373717
O54   O     O_R   0.883118 0.022108 0.470896 -0.437431
N10   N     N_R   0.619290 0.755362 0.635819 0.179952
O55   O     O_R   0.746205 0.796804 0.655017 -0.420685
O56   O     O_R   0.618109 0.687325 0.570593 -0.369896

loop_
_geom_bond_atom_site_label_1
_geom_bond_atom_site_label_2
_geom_bond_distance
_ccdc_geom_bond_type
C11   N4    1.464747 S    
O52   H46   0.991807 S    
C14   H20   1.111673 S    
C40   C41   1.403357 A    
C2    C3    1.523380 S    
C16   H24   1.112398 S    
C44   C56   1.411578 A    
C34   C35   1.406536 A    
C1    C10   1.534905 S    
C12   H16   1.107821 S    
P2    C55   1.867090 S    
C34   N8    1.440687 S    
C8    O30   1.392537 S    
C48   C50   1.504084 S    
C36   C37   1.406982 A    
O2    Ba2   2.810629 S    
N3    O31   1.301003 A    
P4    O13   1.561986 S    
C11   O22   1.420423 S    
C19   C20   1.402758 A    
O17   Ba2   2.826532 S    
O44   H42   0.993595 S    
C25   C26   1.411924 A    
C6    H8    1.105809 S    
C8    C9    1.542174 S    
C4    C5    1.593558 S    
P1    O1    1.543287 D    
C30   C31   1.417320 A    
O10   C8    1.398170 S    
C7    H10   1.108850 S    
N8    O51   1.300228 A    
P8    O23   1.543931 D    
P7    O22   1.770053 S    
O12   Ba2   2.831627 S    
C39   H28   1.079255 S    
C52   C53   1.391511 A    
C2    H3    1.107600 S    
O35   H39   0.986271 S    
C13   C14   1.525613 S    
Ba1   O13   2.810077 S    
C54   C55   1.404140 A    
C28   C33   1.420197 A    
N5    O38   1.303183 A    
C41   C42   1.396802 A    
P8    C25   1.869896 S    
P3    C56   1.858402 S    
C50   N9    1.435166 S    
O5    C6    1.402431 S    
C47   C48   1.524387 S    
C51   C53   1.473214 S    
P3    O11   1.747836 S    
C7    H11   1.104918 S    
C18   O49   1.373521 S    
O1    Ba1   2.831082 S    
C15   C16   1.524481 S    
C26   H25   1.080649 S    
O16   Ba2   2.967581 S    
O8    Ba1   2.825921 S    
C1    H2    1.107421 S    
P1    C42   1.882805 S    
C15   H22   1.111467 S    
C23   C28   1.444600 A    
P2    O20   1.572794 S    
P5    O18   1.540171 D    
C45   C49   1.501894 S    
Ba2   O21   2.846697 S    
P1    Ba1   3.420700 S    
C10   O34   1.401227 S    
Ba1   O16   2.825847 S    
N10   O56   1.294310 A    
N9    O53   1.300247 A    
C3    H5    1.110947 S    
O27   H35   0.993622 S    
C44   C55   1.404100 A    
O48   H44   0.989667 S    
C33   C34   1.413207 A    
C1    H15   1.102534 S    
C22   C25   1.412406 A    
C13   O43   1.399057 S    
O13   Ba2   2.970884 S    
C48   C49   1.533920 S    
N7    O47   1.298775 A    
P5    O17   1.753670 S    
C23   C24   1.447606 A    
N9    O54   1.300677 A    
O34   H38   0.992788 S    
O16   P7    1.766738 S    
C1    N6    1.463127 S    
N5    O39   1.301377 A    
C24   C35   1.403630 A    
C15   H21   1.112137 S    
C19   C21   1.387157 A    
C4    H7    1.089318 S    
N4    O37   1.300716 A    
C53   C56   1.408944 A    
P4    O12   1.543579 D    
C22   C23   1.413996 A    
P4    O15   1.783879 S    
P7    O21   1.577904 D    
C27   C28   1.472475 A    
P1    O5    1.755033 S    
O3    P6    1.749651 S    
P1    O2    1.561986 S    
C5    N1    1.477965 S    
N2    O29   1.300394 A    
C17   C18   1.434922 A    
C9    H14   1.105138 S    
O30   H36   0.989633 S    
P2    O10   1.750372 S    
C20   C24   1.430034 A    
C12   N5    1.463419 S    
O45   H43   0.992815 S    
H1    C10   1.112305 S    
P3    O9    1.547059 D    
P2    Ba1   3.428329 S    
C35   C36   1.426382 A    
C9    N3    1.467336 S    
O11   C2    1.407442 S    
C7    H12   1.107802 S    
C12   H17   1.113288 S    
C5    O27   1.407435 S    
C26   C27   1.409372 A    
C33   N7    1.406933 S    
C21   H26   1.072659 S    
P6    C40   1.853686 S    
C17   C29   1.418630 A    
N8    O50   1.301417 A    
C11   O35   1.400697 S    
P3    O8    1.745169 S    
C37   C39   1.386181 A    
C9    O33   1.395786 S    
C3    H6    1.114889 S    
O49   H45   0.989688 S    
C43   C46   1.472160 S    
N6    O41   1.300569 A    
O4    P6    1.539605 D    
C14   O44   1.401800 S    
C44   H33   1.075444 S    
C4    N10   1.436594 S    
O3    Ba1   2.820608 S    
C21   C22   1.405955 A    
C32   H27   1.075444 S    
N1    O26   1.304363 A    
N3    O32   1.299244 A    
C11   C12   1.549465 S    
N10   O55   1.293637 A    
C3    O42   1.399554 S    
C51   H34   1.085850 S    
P4    Ba2   3.421241 S    
P7    C46   1.830324 S    
C43   C47   1.340971 D    
C6    C7    1.524943 S    
O6    P6    1.753327 S    
H23   C16   1.107709 S    
C5    N2    1.468014 S    
Ba1   O20   2.968373 S    
C50   C51   1.347578 D    
C16   O45   1.403907 S    
C37   H30   1.078987 S    
C38   C39   1.399897 A    
N4    O36   1.301107 A    
C15   O24   1.404917 S    
O2    Ba1   2.970092 S    
N2    O28   1.304417 A    
O42   H40   0.992408 S    
O6    C10   1.407422 S    
C6    H9    1.110651 S    
N7    O46   1.290917 A    
C45   C46   1.341822 D    
P2    O7    1.542608 D    
C45   H31   1.085645 S    
O19   C13   1.407415 S    
N1    O25   1.301607 A    
C54   O52   1.373106 S    
Ba2   O20   2.825296 S    
C19   H29   1.077041 S    
C52   C54   1.395380 A    
C2    H4    1.108582 S    
C13   H18   1.113857 S    
C17   C20   1.449004 A    
C30   C38   1.417943 A    
O33   H37   0.993448 S    
O14   Ba2   2.820000 S    
C14   H19   1.114888 S    
P5    C47   1.852355 S    
P5    O19   1.757194 S    
P8    O24   1.748600 S    
C29   C30   1.436211 A    
C41   O48   1.371924 S    
O43   H41   0.987390 S    
O14   P8    1.725381 S    
C4    O15   1.398370 S    
P4    C27   1.955753 S    
N6    O40   1.301160 A    
O7    Ba1   2.846521 S    
C8    H13   1.100039 S    
C43   H32   1.085018 S    
C31   C32   1.399234 A    
C38   C40   1.413799 A    
C31   C42   1.435211 A    
Ba1   Ba2   4.649696 S    
C18   C32   1.403846 A    
C29   C36   1.413602 A    
