data_mof_unit_51745.cif
_audit_creation_date              2012-12-11T15:41:17-0500
_audit_creation_method            fapswitch 2.2
_symmetry_space_group_name_H-M    P1
_symmetry_Int_Tables_number       1
_space_group_crystal_system       triclinic
_cell_length_a                    14.829882
_cell_length_b                    14.956646
_cell_length_c                    15.087751
_cell_angle_alpha                 108.985738
_cell_angle_beta                  109.350832
_cell_angle_gamma                 109.052136
_cell_volume                      2608.22522752

loop_
_atom_site_label
_atom_site_type_symbol
_atom_type_description
_atom_site_fract_x
_atom_site_fract_y
_atom_site_fract_z
_atom_type_partial_charge
C1    C     C_R   0.194439 0.994014 0.904042 -0.143214
C2    C     C_R   0.780876 0.894100 0.411822 0.628180
C3    C     C_R   0.283213 0.283916 0.830314 -0.266342
C4    C     C_R   0.687360 0.794562 0.335933 -0.270173
C5    C     C_R   0.286073 0.335420 0.927836 -0.032128
C6    C     C_R   0.689784 0.718970 0.254055 -0.003446
C7    C     C_R   0.189885 0.302209 0.934569 -0.124957
C8    C     C_R   0.787412 0.741858 0.249892 -0.177183
C9    C     C_R   0.091442 0.214620 0.845299 -0.015902
C10   C     C_R   0.881352 0.842970 0.324506 -0.060568
C11   C     C_R   0.091618 0.157286 0.750741 -0.376398
C12   C     C_R   0.748275 0.933426 0.026675 -0.109633
C13   C     C_R   0.877147 0.918972 0.405188 -0.316924
C14   C     C_R   0.393054 0.526345 0.051022 -0.198270
C15   C     C_R   0.582883 0.519757 0.151474 -0.214964
C16   C     C_R   0.772856 0.221070 0.312747 -0.080439
C17   C     C_R   0.199416 0.790528 0.699742 -0.072086
C18   C     C_R   0.493665 0.620330 0.107587 0.048270
C19   C     C_R   0.486754 0.423340 0.070134 0.057521
C20   C     C_R   0.587788 0.619004 0.169492 0.089688
C21   C     C_R   0.389236 0.427338 0.021992 0.080718
C22   C     C_R   0.899196 0.523173 0.426814 -0.132453
C23   C     C_R   0.809041 0.323812 0.324196 0.060847
C24   C     C_R   0.987830 0.514381 0.616262 -0.147709
C25   C     C_R   0.977873 0.617552 0.521616 -0.121160
C26   C     C_R   0.910919 0.420415 0.521765 -0.051073
C27   C     C_R   0.029615 0.611608 0.614189 0.103659
C28   C     C_R   0.872878 0.423630 0.425287 0.119597
C29   C     C_R   0.540481 0.123989 0.596637 -0.275217
C30   C     C_R   0.436449 0.933108 0.402995 -0.272587
C31   C     C_R   0.534187 0.131172 0.506126 0.601726
C32   C     C_R   0.445101 0.925672 0.493236 0.614873
C33   C     C_R   0.483412 0.034611 0.410123 -0.164520
C34   C     C_R   0.138054 0.697550 0.698665 0.048924
C35   C     C_R   0.497080 0.022284 0.589717 -0.162384
C36   C     C_R   0.965733 0.840801 0.944341 -0.140700
C37   C     C_R   0.866709 0.933317 0.840127 -0.073875
C38   C     C_R   0.874647 0.843564 0.947743 -0.133040
C39   C     C_R   0.958588 0.931439 0.837308 -0.134700
C40   C     C_R   0.403325 0.966836 0.217886 -0.143138
C41   C     C_R   0.591501 0.071350 0.781303 -0.124016
C42   C     C_R   0.833345 0.901698 0.906691 0.108231
C43   C     C_R   0.015162 0.895779 0.899486 0.099936
C44   C     C_R   0.586997 0.314396 0.050014 -0.109564
C45   C     C_R   0.491584 0.033536 0.319097 0.212724
C46   C     C_R   0.408539 0.704183 0.008486 -0.095576
C47   C     C_R   0.586629 0.052781 0.312886 -0.038623
C48   C     C_R   0.407571 0.975241 0.690114 0.029401
C49   C     C_R   0.405195 0.219273 0.972666 -0.098846
C50   C     C_R   0.590101 0.792661 0.098585 -0.138925
C51   C     C_R   0.772639 0.313878 0.222450 -0.111590
C52   C     C_R   0.199703 0.699641 0.791722 -0.108156
C53   C     C_R   0.195971 0.904198 0.995811 -0.112550
C54   C     C_R   0.751261 0.026573 0.936773 -0.051285
C55   C     C_R   0.130854 0.931503 0.932968 0.067486
C56   C     C_R   0.499623 0.018365 0.682349 0.164401
C57   C     C_R   0.775340 0.948113 0.950929 0.044635
C58   C     C_2   0.988736 0.183682 0.850427 0.478831
C59   C     C_2   0.983249 0.870769 0.317774 0.596417
C60   C     C_R   0.492720 0.322985 0.034394 0.063479
C61   C     C_R   0.498705 0.703521 0.074666 0.069727
C62   C     C_R   0.187822 0.191416 0.743679 0.572314
H1    H     H_    0.166075 0.016993 0.843726 0.085149
H2    H     H_    0.021670 0.507539 0.687533 0.121234
H3    H     H_    0.003863 0.692825 0.519305 0.134452
H4    H     H_    0.888372 0.345742 0.524986 0.149181
H5    H     H_    0.578640 0.197012 0.672412 0.199026
H6    H     H_    0.399821 0.859579 0.328113 0.193680
H7    H     H_    0.002827 0.805779 0.987110 0.131250
H8    H     H_    0.829628 0.969765 0.799527 0.146671
H9    H     H_    0.796941 0.198225 0.373627 0.112887
H10   H     H_    0.173246 0.820607 0.645556 0.098010
H11   H     H_    0.845599 0.810742 0.992989 0.128198
H12   H     H_    0.756733 0.879695 0.058176 0.099648
H13   H     H_    0.990196 0.967380 0.795187 0.122733
H14   H     H_    0.317868 0.928487 0.195872 0.125765
H15   H     H_    0.673944 0.126040 0.803958 0.120279
H16   H     H_    0.668817 0.379910 0.088289 0.094242
H17   H     H_    0.323829 0.656718 0.984601 0.088556
H18   H     H_    0.667406 0.088815 0.379131 0.158203
H19   H     H_    0.323202 0.941200 0.630942 0.145857
H20   H     H_    0.321100 0.193154 0.952065 0.121283
H21   H     H_    0.674073 0.824764 0.155791 0.114281
H22   H     H_    0.797468 0.377167 0.202343 0.096988
H23   H     H_    0.357314 0.311907 0.824729 0.184957
H24   H     H_    0.173747 0.647230 0.823639 0.089986
H25   H     H_    0.169590 0.843688 0.019222 0.090095
H26   H     H_    0.766576 0.060975 0.887411 0.114658
H27   H     H_    0.017869 0.085817 0.683263 0.228175
H28   H     H_    0.948426 0.997140 0.463157 0.237261
H29   H     H_    0.140793 0.972335 0.645567 0.316459
H30   H     H_    0.851538 0.157898 0.611348 0.368298
H31   H     H_    0.911239 0.125377 0.778334 0.091812
H32   H     H_    0.054078 0.950313 0.373770 0.120853
H33   H     H_    0.633272 0.421925 0.623545 0.382927
H34   H     H_    0.612313 0.775752 0.340083 0.202033
H35   H     H_    0.364620 0.637940 0.375039 0.386168
H36   H     H_    0.192138 0.345351 0.009245 0.177027
H37   H     H_    0.788370 0.682953 0.185802 0.168165
H38   H     H_    0.317599 0.526378 0.011756 0.129945
H39   H     H_    0.655803 0.518417 0.197137 0.131041
H40   H     H_    0.865020 0.528565 0.354573 0.117686
N1    N     N_R   0.293810 0.002730 0.945950 -0.044351
N2    N     N_R   0.443210 0.997250 0.791090 -0.064853
N3    N     N_R   0.443180 0.152110 0.945950 -0.046775
N4    N     N_R   0.556820 0.847890 0.054050 -0.044330
N5    N     N_R   0.706170 0.208950 0.152090 -0.042418
N6    N     N_R   0.293830 0.791050 0.847910 -0.041500
N7    N     N_R   0.293800 0.945910 0.002760 -0.039285
N8    N     N_R   0.706200 0.054090 0.997240 -0.048821
N9    N     N_R   0.706190 0.997270 0.054050 -0.047642
N10   N     N_R   0.706160 0.152130 0.208910 -0.049333
N11   N     N_R   0.293840 0.847870 0.791090 -0.045309
N12   N     N_R   0.443140 0.945920 0.152090 -0.056566
N13   N     N_R   0.556860 0.054080 0.847910 -0.056073
N14   N     N_R   0.556830 0.208940 0.002760 -0.043860
N15   N     N_R   0.443170 0.791060 0.997240 -0.041292
N16   N     N_R   0.556790 0.002750 0.208910 -0.066465
Ni1   Ni    Ni4+2 0.369690 0.999990 0.869700 0.236193
Ni2   Ni    Ni4+2 0.630310 0.000010 0.130300 0.234977
Ni3   Ni    Ni4+2 0.369670 0.869670 0.000000 0.220326
Ni4   Ni    Ni4+2 0.630330 0.130330 0.000000 0.248758
O1    O     O_2   0.146349 0.145317 0.544440 -0.272754
O2    O     O_2   0.523170 0.256458 0.413765 -0.274001
O3    O     O_3   0.595200 0.351660 0.619941 -0.512834
O4    O     O_2   0.474525 0.800934 0.582479 -0.270255
O5    O     O_2   0.285871 0.756743 0.472525 -0.305897
O6    O     O_3   0.391699 0.707869 0.375029 -0.532170
O7    O     O_2   0.306556 0.141041 0.655370 -0.300203
O8    O     O_3   0.114278 0.983066 0.582419 -0.579155
O9    O     O_2   0.665083 0.970336 0.482887 -0.329989
O10   O     O_2   0.808176 0.956945 0.607508 -0.341318
O11   O     O_3   0.867359 0.112620 0.560822 -0.579917
O12   O     O_2   0.989247 0.223957 0.935304 -0.589717
O13   O     O_2   0.989400 0.805435 0.249430 -0.594085
O14   O     O_2   0.704869 0.292233 0.533301 -0.345817
S1    S     S_3+6 0.191168 0.115984 0.629039 -0.069790
S2    S     S_3+6 0.778164 0.984179 0.518344 -0.093761
S3    S     S_3+6 0.590738 0.260011 0.515615 -0.033757
S4    S     S_3+6 0.398140 0.795660 0.483585 -0.018347

loop_
_geom_bond_atom_site_label_1
_geom_bond_atom_site_label_2
_ccdc_geom_bond_type
N6    N11   A    
C54   H26   S    
C52   H24   S    
C7    H36   S    
C12   H12   S    
C13   H28   S    
C3    H23   S    
C33   C45   S    
N5    N10   A    
C14   C18   A    
N3    N14   A    
H30   O11   S    
C24   C27   A    
N6    Ni3   S    
C11   C62   A    
C17   N11   A    
H29   O8    S    
C58   O12   D    
C15   C19   A    
O4    S4    D    
C49   C60   A    
N14   Ni4   S    
C14   C21   A    
C19   C21   A    
C8    H37   S    
C24   C26   A    
C38   C42   A    
H35   O6    S    
C41   H15   S    
C46   H17   S    
O10   S2    D    
C48   N2    A    
C48   H19   S    
C54   N8    A    
C48   C56   A    
C9    C58   S    
C37   C42   A    
C2    C13   A    
N15   Ni3   S    
N8    N9    A    
O2    S3    D    
N11   Ni1   S    
N12   Ni3   S    
C47   N16   A    
C40   N12   A    
C22   C25   A    
C31   C33   A    
C59   H32   S    
C39   H13   S    
C1    N1    A    
N2    Ni1   S    
C45   C47   A    
O11   S2    S    
C24   H2    S    
N13   Ni4   S    
C29   H5    S    
C37   H8    S    
C15   C20   A    
C16   H9    S    
C47   H18   S    
C41   N13   A    
O14   S3    D    
C1    H1    S    
C42   C57   S    
C50   H21   S    
C53   C55   A    
C27   C34   S    
C4    H34   S    
C40   C45   A    
C37   C39   A    
C46   C61   A    
C26   H4    S    
C32   C35   A    
C25   H3    S    
C4    C6    A    
C5    C7    A    
C39   C43   A    
O3    S3    S    
C40   H14   S    
C46   N15   A    
N9    Ni2   S    
C2    S2    S    
C49   H20   S    
C2    C4    A    
C44   H16   S    
C41   C56   A    
N2    N13   A    
C11   H27   S    
C23   C51   A    
C5    C21   S    
C53   H25   S    
C23   C28   S    
C15   H39   S    
C9    C11   A    
C44   N14   A    
N12   N16   A    
C12   C57   A    
C43   C55   S    
H33   O3    S    
C16   C23   A    
C49   N3    A    
N4    N15   A    
O5    S4    D    
C31   S3    S    
C36   H7    S    
C16   N10   A    
N10   Ni2   S    
C3    C62   A    
C53   N7    A    
C7    C9    A    
O1    S1    D    
C30   C33   A    
N4    Ni2   S    
C35   C56   S    
C34   C52   A    
C58   H31   S    
C8    C10   A    
N1    Ni1   S    
C3    C5    A    
C10   C13   A    
C6    C8    A    
C18   C61   S    
C14   H38   S    
C19   C60   S    
C25   C27   A    
C6    C20   S    
C29   C35   A    
C26   C28   A    
C22   H40   S    
N1    N7    A    
C36   C38   A    
C10   C59   S    
O6    S4    S    
C29   C31   A    
O9    S2    D    
N8    Ni4   S    
C30   C32   A    
N7    Ni3   S    
C44   C60   A    
C59   O13   D    
C18   C20   A    
C32   S4    S    
C1    C55   A    
C62   S1    S    
N16   Ni2   S    
O7    S1    D    
C52   N6    A    
C17   H10   S    
C51   N5    A    
C17   C34   A    
C50   N4    A    
C50   C61   A    
N3    Ni1   S    
C36   C43   A    
C22   C28   A    
N5    Ni4   S    
O8    S1    S    
C51   H22   S    
C38   H11   S    
C12   N9    A    
C30   H6    S    
C54   C57   A    
