data_mof_unit_56434.cif
_audit_creation_date              2012-12-11T17:36:08-0500
_audit_creation_method            fapswitch 2.2
_symmetry_space_group_name_H-M    P1
_symmetry_Int_Tables_number       1
_space_group_crystal_system       triclinic
_cell_length_a                    26.188101
_cell_length_b                    6.921182
_cell_length_c                    21.489327
_cell_angle_alpha                 89.998789
_cell_angle_beta                  96.391015
_cell_angle_gamma                 89.998439
_cell_volume                      3870.7907773

loop_
_atom_site_label
_atom_site_type_symbol
_atom_type_description
_atom_site_fract_x
_atom_site_fract_y
_atom_site_fract_z
_atom_type_partial_charge
O1    O     O_R   0.208650 0.594520 0.175450 -0.533671
O2    O     O_R   0.791350 0.405480 0.824550 -0.528892
O3    O     O_R   0.291350 0.094520 0.324550 -0.533673
O4    O     O_R   0.708650 0.905480 0.675450 -0.528901
O5    O     O_R   0.192980 0.260780 0.300160 -0.537268
O6    O     O_R   0.807020 0.739220 0.699840 -0.528706
O7    O     O_R   0.307020 0.760780 0.199840 -0.537264
O8    O     O_R   0.692980 0.239220 0.800160 -0.528687
C1    C     C_R   0.177450 0.435495 0.316678 0.708901
C2    C     C_R   0.822236 0.564663 0.682910 0.705340
C3    C     C_R   0.322551 0.935492 0.183325 0.708888
C4    C     C_R   0.677766 0.064662 0.817094 0.705368
O9    O     O_R   0.202550 0.264660 0.174420 -0.531990
O10   O     O_R   0.797450 0.735340 0.825580 -0.534821
O11   O     O_R   0.297450 0.764660 0.325580 -0.531975
O12   O     O_R   0.702550 0.235340 0.674420 -0.534835
O13   O     O_R   0.300990 0.096480 0.197920 -0.519767
O14   O     O_R   0.699010 0.903520 0.802080 -0.545169
O15   O     O_R   0.199010 0.596480 0.302080 -0.519759
O16   O     O_R   0.800990 0.403520 0.697920 -0.545202
C5    C     C_R   0.191473 0.432415 0.150280 0.723069
C6    C     C_R   0.808431 0.568067 0.850015 0.741511
C7    C     C_R   0.308523 0.932405 0.349724 0.723046
C8    C     C_R   0.691569 0.068075 0.649984 0.741425
O17   O     O_3   0.282290 0.427760 0.257860 -0.346202
O18   O     O_3   0.717710 0.572240 0.742140 -0.374515
O19   O     O_3   0.217710 0.927760 0.242140 -0.346221
O20   O     O_3   0.782290 0.072240 0.757860 -0.374532
V1    V     V_3+5 0.244010 0.152080 0.248540 1.556088
V2    V     V_3+5 0.755990 0.847920 0.751460 1.482193
V3    V     V_3+5 0.255990 0.652080 0.251460 1.556109
V4    V     V_3+5 0.744010 0.347920 0.748540 1.482190
C9    C     C_R   0.657536 0.071347 0.589325 -0.099267
C10   C     C_R   0.342771 0.931365 0.409848 -0.083925
C11   C     C_R   0.842460 0.571293 0.910675 -0.099281
C12   C     C_R   0.157222 0.431438 0.090160 -0.083892
C13   C     C_R   0.637615 0.204160 0.484601 -0.168999
C14   C     C_R   0.360842 0.810566 0.516181 -0.156749
C15   C     C_R   0.862344 0.703748 0.015450 -0.168977
C16   C     C_R   0.139206 0.311325 0.983742 -0.156699
C17   C     C_R   0.670778 0.187289 0.539424 0.171974
C18   C     C_R   0.326435 0.841322 0.462916 0.137242
C19   C     C_R   0.829207 0.687119 0.960596 0.172016
C20   C     C_R   0.173595 0.341839 0.037039 0.137210
C21   C     C_R   0.607949 0.987289 0.584068 -0.252937
C22   C     C_R   0.394581 0.989419 0.411748 -0.235684
C23   C     C_R   0.892050 0.487245 0.915926 -0.252954
C24   C     C_R   0.105389 0.489190 0.088294 -0.235655
C25   C     C_R   0.571423 0.020713 0.530239 0.090384
C26   C     C_R   0.430744 0.955131 0.465676 0.086707
C27   C     C_R   0.928562 0.520555 0.969773 0.090410
C28   C     C_R   0.069245 0.455106 0.034336 0.086732
C29   C     C_R   0.588390 0.125074 0.479717 0.091922
C30   C     C_R   0.412525 0.863303 0.517806 0.099114
C31   C     C_R   0.911568 0.624625 0.020335 0.091925
C32   C     C_R   0.087505 0.363810 0.982140 0.099108
C33   C     C_R   0.518326 0.962519 0.525378 0.067313
C34   C     C_R   0.484260 0.005980 0.469657 0.061224
C35   C     C_R   0.981673 0.462538 0.974614 0.067324
C36   C     C_R   0.015713 0.505713 0.030378 0.061229
C37   C     C_R   0.504684 0.101208 0.420089 -0.175925
C38   C     C_R   0.497703 0.868575 0.575064 -0.184638
C39   C     C_R   0.995252 0.600477 0.080005 -0.175913
C40   C     C_R   0.002339 0.369158 0.924854 -0.184634
C41   C     C_R   0.555526 0.159508 0.425248 -0.166391
C42   C     C_R   0.445954 0.821257 0.571311 -0.180909
C43   C     C_R   0.944405 0.658742 0.074849 -0.166386
C44   C     C_R   0.054103 0.322073 0.928587 -0.180897
H1    H     H_    0.568974 0.237538 0.386444 0.142459
H2    H     H_    0.431896 0.750033 0.611002 0.128968
H3    H     H_    0.930931 0.736489 0.113693 0.142469
H4    H     H_    0.068196 0.251322 0.888836 0.128976
H5    H     H_    0.405731 0.052392 0.369464 0.121096
H6    H     H_    0.598217 0.906322 0.623920 0.106032
H7    H     H_    0.094213 0.551794 0.130617 0.121016
H8    H     H_    0.901790 0.406335 0.876066 0.106032
H9    H     H_    0.649381 0.290616 0.446593 0.151234
H10   H     H_    0.347224 0.740072 0.556259 0.147740
H11   H     H_    0.850565 0.790056 0.053483 0.151231
H12   H     H_    0.152855 0.241228 0.943614 0.147745
H13   H     H_    0.482034 0.137669 0.376799 0.137933
H14   H     H_    0.520544 0.831448 0.618194 0.119149
H15   H     H_    0.017878 0.636645 0.123337 0.137921
H16   H     H_    0.979524 0.332388 0.881673 0.119132
C45   C     C_R   0.435376 0.821894 0.089615 -0.137309
C46   C     C_R   0.561717 0.187020 0.903282 -0.148333
C47   C     C_R   0.064644 0.321928 0.410421 -0.137377
C48   C     C_R   0.938296 0.687060 0.596752 -0.148191
H17   H     H_    0.459850 0.699325 0.083038 0.182977
H18   H     H_    0.535771 0.308085 0.905434 0.128800
H19   H     H_    0.040174 0.199358 0.417009 0.182679
H20   H     H_    0.964250 0.808103 0.594621 0.128798
C49   C     C_R   0.397538 0.804565 0.130549 -0.215215
C50   C     C_R   0.601114 0.198969 0.864352 -0.137211
C51   C     C_R   0.102474 0.304590 0.369476 -0.215219
C52   C     C_R   0.898896 0.698986 0.635678 -0.137102
H21   H     H_    0.394579 0.671695 0.155181 0.168610
H22   H     H_    0.604713 0.329779 0.837842 0.111610
H23   H     H_    0.105431 0.171718 0.344846 0.168601
H24   H     H_    0.895297 0.829773 0.662200 0.111594
C53   C     C_R   0.366214 0.960460 0.142883 -0.052071
C54   C     C_R   0.634011 0.042266 0.857327 -0.096957
C55   C     C_R   0.133794 0.460476 0.357130 -0.052013
C56   C     C_R   0.865995 0.542283 0.642684 -0.097037
C57   C     C_R   0.377752 0.143355 0.116535 -0.044693
C58   C     C_R   0.624152 0.864968 0.888985 -0.062340
C59   C     C_R   0.122264 0.643374 0.383483 -0.044681
C60   C     C_R   0.875852 0.365017 0.611009 -0.062327
C61   C     C_R   0.412115 0.157492 0.069910 -0.033678
C62   C     C_R   0.587709 0.860534 0.933642 -0.044377
C63   C     C_R   0.087913 0.657523 0.430125 -0.033740
C64   C     C_R   0.912291 0.360645 0.566349 -0.044311
C65   C     C_R   0.441875 0.994513 0.057418 0.083123
C66   C     C_R   0.555678 0.022190 0.939448 0.068778
C67   C     C_R   0.058150 0.494552 0.442617 0.083240
C68   C     C_R   0.944329 0.522275 0.560566 0.068665
C69   C     C_1   0.481158 0.004309 0.014575 0.109021
C70   C     C_1   0.514509 0.015579 0.979786 0.078542
C71   C     C_1   0.018859 0.504359 0.485451 0.108949
C72   C     C_1   0.985503 0.515644 0.520233 0.078349
I1    I     I_    0.250681 0.739217 0.466352 -0.473915
I2    I     I_    0.737168 0.363095 0.542704 -0.284269
I3    I     I_    0.249373 0.240037 0.033571 -0.474060
I4    I     I_    0.762843 0.863077 0.957312 -0.284348
C73   C     C_2   0.361129 0.324513 0.144312 0.377139
H25   H     H_    0.337846 0.428693 0.116247 0.044414
O21   O     O_2   0.374617 0.359385 0.199427 -0.523521
C74   C     C_2   0.648265 0.680443 0.872266 0.359749
H26   H     H_    0.645488 0.635904 0.823644 0.053831
O22   O     O_2   0.670987 0.576511 0.912077 -0.508684
C75   C     C_2   0.138891 0.824524 0.355704 0.376993
H27   H     H_    0.162202 0.928645 0.383759 0.044426
O23   O     O_2   0.125387 0.859438 0.300596 -0.523524
C76   C     C_2   0.851738 0.180466 0.627702 0.359786
H28   H     H_    0.854479 0.135918 0.676322 0.053893
O24   O     O_2   0.829064 0.076494 0.587868 -0.508646
C77   C     C_2   0.416536 0.344264 0.035827 0.336691
H29   H     H_    0.385947 0.450156 0.034295 0.059277
O25   O     O_2   0.454013 0.383590 0.009201 -0.530354
C78   C     C_2   0.581962 0.684410 0.972505 0.457765
H30   H     H_    0.589686 0.542624 0.954964 0.087096
O26   O     O_2   0.569968 0.696186 0.025675 -0.505416
C79   C     C_2   0.083516 0.844291 0.464224 0.336954
H31   H     H_    0.114051 0.950362 0.465620 0.059145
O27   O     O_2   0.046124 0.883411 0.491033 -0.530503
C80   C     C_2   0.918031 0.184614 0.527453 0.458166
H32   H     H_    0.910431 0.042757 0.545033 0.086831
O28   O     O_2   0.929877 0.196567 0.474219 -0.505405

loop_
_geom_bond_atom_site_label_1
_geom_bond_atom_site_label_2
_ccdc_geom_bond_type
O17   V3    S    
C48   C52   A    
O1    C5    A    
C47   H19   S    
O19   V1    S    
C9    C21   A    
O3    C7    A    
C10   C18   A    
C56   C60   A    
C11   C23   A    
C74   H26   S    
C25   C33   A    
C33   C38   A    
C5    C12   S    
O7    C3    A    
C6    C11   S    
C77   O25   D    
O5    C1    A    
C26   C30   A    
C36   C39   A    
C40   C44   A    
O2    V4    S    
O9    V1    S    
C78   O26   D    
C23   H8    S    
C14   C18   A    
C2    C56   S    
C58   C62   A    
O4    C8    A    
C51   H23   S    
C44   H4    S    
C43   H3    S    
C50   H22   S    
C79   H31   S    
C58   C74   S    
O1    V3    S    
O13   V1    S    
C61   C77   S    
O3    V1    S    
C40   H16   S    
C46   C50   A    
C45   C49   A    
C1    O15   A    
C15   C31   A    
C48   H20   S    
C2    O16   A    
C16   C32   A    
C47   C51   A    
C60   C76   S    
O2    C6    A    
C16   H12   S    
C54   C58   A    
C10   C22   A    
C11   C19   A    
C62   C66   A    
C16   C20   A    
C47   C67   A    
C63   C79   S    
C13   C29   A    
C34   C37   A    
O11   C7    A    
C38   H14   S    
O15   V3    S    
C35   C36   A    
O12   C8    A    
C53   C57   A    
C24   H7    S    
O10   V2    S    
C51   C55   A    
C80   O28   D    
O17   V1    S    
C39   C43   A    
O7    V3    S    
C38   C42   A    
O19   V3    S    
C26   C34   A    
O20   V4    S    
C78   H30   S    
C59   C75   S    
C46   H18   S    
C49   C53   A    
C45   H17   S    
O18   V4    S    
C76   O24   D    
C14   H10   S    
C32   C44   A    
C13   H9    S    
C68   C72   S    
C39   H15   S    
C21   H6    S    
O8    V4    S    
C17   I2    S    
C48   C68   A    
C4    C54   S    
C23   C27   A    
C31   C43   A    
C14   C30   A    
C21   C25   A    
O8    C4    A    
C7    C10   S    
C35   C40   A    
O9    C5    A    
C3    C53   S    
C66   C70   S    
C65   C69   S    
O6    V2    S    
O18   V2    S    
C67   C71   S    
C52   C56   A    
C73   H25   S    
C12   C20   A    
C27   C35   A    
C75   H27   S    
O5    V1    S    
C49   H21   S    
C64   C68   A    
C29   C41   A    
C55   C59   A    
C80   H32   S    
O16   V4    S    
C79   O27   D    
C57   C61   A    
C3    O13   A    
C59   C63   A    
C75   O23   D    
C74   O22   D    
O6    C2    A    
C15   C19   A    
C71   C72   T    
O11   V3    S    
C76   H28   S    
C30   C42   A    
C61   C65   A    
O12   V4    S    
C77   H29   S    
C22   C26   A    
C20   I3    S    
C8    C9    S    
C57   C73   S    
C46   C66   A    
C9    C17   A    
O10   C6    A    
C45   C65   A    
O20   V2    S    
C37   H13   S    
C69   C70   T    
C33   C34   A    
C42   H2    S    
C41   H1    S    
C52   H24   S    
C62   C78   S    
C1    C55   S    
C64   C80   S    
C12   C24   A    
C27   C31   A    
C37   C41   A    
C13   C17   A    
C25   C29   A    
O14   V2    S    
C60   C64   A    
C24   C28   A    
C50   C54   A    
C28   C36   A    
C4    O14   A    
C73   O21   D    
C63   C67   A    
C19   I4    S    
C22   H5    S    
O4    V2    S    
C28   C32   A    
C18   I1    S    
C15   H11   S    
