data_mof_unit_43171.cif
_audit_creation_date              2012-10-26T18:26:35-0400
_audit_creation_method            fapswitch 2.2
_symmetry_space_group_name_H-M    P1
_symmetry_Int_Tables_number       1
_space_group_crystal_system       triclinic
_cell_length_a                    15.823391
_cell_length_b                    8.713904
_cell_length_c                    7.609103
_cell_angle_alpha                 103.92236
_cell_angle_beta                  94.621549
_cell_angle_gamma                 95.088736
_cell_volume                      1008.68262339

loop_
_atom_site_label
_atom_site_type_symbol
_atom_type_description
_atom_site_fract_x
_atom_site_fract_y
_atom_site_fract_z
_atom_type_partial_charge
C1    C     C_R   0.497177 0.199792 0.452603 0.539241
C2    C     C_3   0.982041 0.598505 0.654049 -0.100687
C3    C     C_1   0.250435 0.499248 0.503348 -0.042911
C4    C     C_1   0.749564 0.500752 0.496652 -0.042912
C5    C     C_3   0.030292 0.450130 0.644307 -0.101389
C6    C     C_3   0.969708 0.549870 0.355693 -0.101390
C7    C     C_3   0.082825 0.499702 0.502098 0.053712
C8    C     C_3   0.917175 0.500297 0.497902 0.053711
C9    C     C_1   0.174722 0.499406 0.503584 -0.069729
C10   C     C_1   0.825278 0.500594 0.496416 -0.069730
C11   C     C_3   0.397269 0.367620 0.939842 -0.043889
C12   C     C_R   0.502823 0.800208 0.547397 0.539245
C13   C     C_3   0.374254 0.210459 0.991742 -0.295837
C14   C     C_3   0.300797 0.107397 0.861594 -0.504321
C15   C     C_3   0.602730 0.632378 0.060159 -0.043889
C16   C     C_3   0.625751 0.789533 0.008251 -0.295841
C17   C     C_3   0.699200 0.892603 0.138420 -0.504331
C18   C     C_R   0.340229 0.499155 0.500987 0.541061
C19   C     C_R   0.659771 0.500845 0.499013 0.541061
C20   C     C_2   0.495729 0.030737 0.427499 -0.161664
C21   C     C_2   0.504272 0.969262 0.572500 -0.161655
C22   C     C_3   0.963875 0.351920 0.488150 -0.100398
C23   C     C_3   0.036125 0.648080 0.511850 -0.100399
C24   C     C_3   0.017959 0.401495 0.345951 -0.100687
Cu1   Cu    Cu3+1 0.509330 0.517380 0.684380 0.907879
Cu2   Cu    Cu3+1 0.490670 0.482620 0.315620 0.907879
H1    H     H_    0.034095 0.320626 0.219500 0.097819
H2    H     H_    0.319470 0.073652 0.720888 0.152181
H3    H     H_    0.284351 0.996813 0.905629 0.156177
H4    H     H_    0.430420 0.141983 0.985125 0.174659
H5    H     H_    0.353358 0.232172 0.129794 0.204966
H6    H     H_    0.344305 0.443377 0.962774 0.134282
H7    H     H_    0.402558 0.327405 0.796239 0.198322
H8    H     H_    0.680481 0.926484 0.279079 0.152198
H9    H     H_    0.756420 0.827323 0.138191 0.146320
H10   H     H_    0.715707 0.003110 0.094275 0.156166
H11   H     H_    0.646659 0.767810 0.870209 0.204956
H12   H     H_    0.965905 0.679374 0.780500 0.097821
H13   H     H_    0.569586 0.858009 0.014838 0.174672
H14   H     H_    0.597441 0.672600 0.203762 0.198326
H15   H     H_    0.655694 0.556617 0.037235 0.134278
H16   H     H_    0.932819 0.230344 0.478233 0.100427
H17   H     H_    0.067181 0.769656 0.521767 0.100427
H18   H     H_    0.943476 0.590704 0.237145 0.098058
H19   H     H_    0.056524 0.409296 0.762855 0.098058
H20   H     H_    0.487512 0.956650 0.288937 0.126499
H21   H     H_    0.512489 0.043350 0.711062 0.126499
H22   H     H_    0.243551 0.172624 0.861996 0.146318
N1    N     N_2   0.476600 0.456420 0.038510 -0.145038
N2    N     N_2   0.523400 0.543580 0.961490 -0.145036
O1    O     O_R   0.506070 0.286130 0.619780 -0.516662
O2    O     O_R   0.493930 0.713870 0.380220 -0.516663
O3    O     O_R   0.490300 0.256770 0.308360 -0.514483
O4    O     O_R   0.509700 0.743230 0.691640 -0.514481
O5    O     O_R   0.386960 0.514660 0.655680 -0.526139
O6    O     O_R   0.613040 0.485340 0.344320 -0.526137
O7    O     O_R   0.371190 0.485310 0.344260 -0.508460
O8    O     O_R   0.628810 0.514690 0.655740 -0.508461

loop_
_geom_bond_atom_site_label_1
_geom_bond_atom_site_label_2
_ccdc_geom_bond_type
C19   O6    A    
C8    C22   S    
Cu1   O1    S    
C3    C9    T    
C17   H10   S    
Cu2   O2    S    
C11   C13   S    
C2    H12   S    
C18   O7    A    
C24   H1    S    
C16   H11   S    
C6    C24   S    
C6    H18   S    
C13   C14   S    
C20   C21   D    
C1    O1    A    
C22   H16   S    
C18   O5    A    
C7    C23   S    
C6    C23   S    
C12   O2    A    
Cu1   O5    S    
C11   H6    S    
C5    C7    S    
C19   O8    A    
Cu2   O7    S    
C22   C24   S    
C15   H14   S    
Cu2   N1    S    
C2    C5    S    
C17   H8    S    
C16   H13   S    
C4    C10   T    
C7    C24   S    
Cu2   O3    S    
C20   H20   S    
C13   H4    S    
C11   H7    S    
C23   H17   S    
Cu1   O4    S    
C15   H15   S    
C3    C18   S    
C8    C10   S    
N1    N2    D    
Cu1   O8    S    
C15   N2    S    
C2    C8    S    
C2    C23   S    
C7    C9    S    
C14   H22   S    
C1    O3    A    
C11   N1    S    
C1    C20   S    
C6    C8    S    
C17   H9    S    
C14   H2    S    
Cu1   Cu2   S    
Cu1   N2    S    
C4    C19   S    
C5    H19   S    
C12   C21   S    
C13   H5    S    
C12   O4    A    
C5    C22   S    
C15   C16   S    
C14   H3    S    
C16   C17   S    
C21   H21   S    
Cu2   O6    S    
