data_mof_unit_66217.cif
_audit_creation_date              2012-12-11T17:20:04-0500
_audit_creation_method            fapswitch 2.2
_symmetry_space_group_name_H-M    P1
_symmetry_Int_Tables_number       1
_space_group_crystal_system       triclinic
_cell_length_a                    8.2656
_cell_length_b                    16.485862
_cell_length_c                    22.900348
_cell_angle_alpha                 96.706469
_cell_angle_beta                  89.618771
_cell_angle_gamma                 93.226045
_cell_volume                      3094.26468346

loop_
_atom_site_label
_atom_site_type_symbol
_atom_type_description
_atom_site_fract_x
_atom_site_fract_y
_atom_site_fract_z
_atom_type_partial_charge
Ba1   Ba    Ba6+2 0.848660 0.538140 0.472240 1.778192
Ba2   Ba    Ba6+2 0.341160 0.461930 0.527770 1.808636
C1    C     C_3   0.653517 0.832880 0.305706 -0.198946
C2    C     C_3   0.624922 0.752575 0.331815 1.284181
C3    C     C_3   0.487287 0.333736 0.349449 0.866026
C4    C     C_3   0.444504 0.300197 0.286408 -0.265003
C5    C     C_3   0.063886 0.269467 0.687593 0.331429
C6    C     C_3   0.091627 0.242272 0.747809 -0.345345
C7    C     C_3   0.532823 0.242806 0.664393 0.360843
C8    C     C_3   0.504344 0.165005 0.693647 -0.350388
C9    C     C_R   0.337080 0.522122 0.332118 -0.322161
C10   C     C_R   0.158456 0.542057 0.930562 -0.021085
C11   C     C_R   0.121103 0.531882 0.869576 0.667630
C12   C     C_3   0.083793 0.705337 0.312823 0.323355
C13   C     C_R   0.867505 0.463282 0.889884 0.633904
C14   C     C_R   0.917976 0.457191 0.948188 -0.122741
C15   C     C_R   0.061149 0.500232 0.969197 -0.118528
C16   C     C_R   0.292547 0.591785 0.953849 -0.024561
C17   C     C_R   0.325563 0.601032 0.014382 -0.045785
C18   C     C_R   0.234025 0.555444 0.052694 -0.016393
C19   C     C_R   0.106155 0.502336 0.029316 -0.052936
C20   C     C_R   0.828052 0.410370 0.986481 0.629752
C21   C     C_R   0.883545 0.405244 0.043607 -0.075744
C22   C     C_R   0.022089 0.451923 0.065982 -0.105844
C23   C     C_3   0.088090 0.728685 0.250539 -0.324416
C24   C     C_R   0.079956 0.448367 0.123775 0.646913
C25   C     C_R   0.264755 0.563062 0.113979 0.667360
C26   C     C_2   0.832166 0.419056 0.761767 -0.256342
C27   C     C_3   0.789697 0.405267 0.697325 -0.122640
C28   C     C_1   0.990389 0.517579 0.683723 -0.100794
C29   C     C_2   0.004560 0.538519 0.741831 0.492159
C30   C     C_2   0.933855 0.482451 0.784977 0.144085
C31   C     C_R   0.408123 0.534375 0.230542 0.560227
C32   C     C_R   0.446552 0.547058 0.290794 0.010408
C33   C     C_R   0.188710 0.484462 0.314750 -0.025519
C34   C     C_3   0.189662 0.710652 0.596981 0.309164
C35   C     C_R   0.139459 0.481824 0.255564 -0.205819
C36   C     C_R   0.247939 0.507400 0.211471 0.108339
C37   C     C_2   0.880178 0.461640 0.660583 0.272891
C38   C     C_R   0.385378 0.732251 0.475493 -0.197305
C39   C     C_R   0.526560 0.758831 0.506297 0.073571
C40   C     C_R   0.578653 0.841873 0.512231 -0.086116
C41   C     C_R   0.486676 0.899073 0.487510 0.262852
C42   C     C_R   0.339425 0.871455 0.459255 -0.128823
C43   C     C_R   0.287950 0.788355 0.454284 0.018003
C44   C     C_R   0.617995 0.147143 0.490118 0.536234
C45   C     C_3   0.199155 0.803082 0.612518 -0.353288
C46   C     C_R   0.667393 0.230171 0.494351 -0.075085
C47   C     C_R   0.711340 0.091894 0.517120 0.190370
C48   C     C_R   0.805929 0.259628 0.525612 -0.376361
C49   C     C_R   0.905547 0.206335 0.548775 -0.013161
C50   C     C_R   0.857579 0.122567 0.545465 -0.235785
C51   C     C_3   0.005988 0.289499 0.403771 0.292122
C52   C     C_3   0.993337 0.197063 0.388342 -0.352386
C53   C     C_3   0.677830 0.639003 0.646948 0.278487
C54   C     C_3   0.672282 0.658106 0.713486 -0.320056
H1    H     H_    0.282807 0.820568 0.650210 0.133985
H2    H     H_    0.244382 0.833743 0.574662 0.023779
H3    H     H_    0.076947 0.824466 0.624523 0.128332
H4    H     H_    0.886404 0.310884 0.418013 0.009907
H5    H     H_    0.899572 0.179751 0.353939 0.135741
H6    H     H_    0.959802 0.166601 0.427642 0.061598
H7    H     H_    0.111833 0.175362 0.371770 0.144010
H8    H     H_    0.801845 0.623672 0.633323 0.027047
H9    H     H_    0.592284 0.585710 0.634197 0.098201
H10   H     H_    0.785443 0.847438 0.301106 0.078883
H11   H     H_    0.764185 0.707869 0.728290 0.154425
H12   H     H_    0.697532 0.602904 0.734523 0.085093
H13   H     H_    0.550045 0.677506 0.727486 0.152053
H14   H     H_    0.600700 0.883200 0.334951 0.094940
H15   H     H_    0.373782 0.351581 0.372240 -0.068192
H16   H     H_    0.357931 0.246107 0.286029 0.072954
H17   H     H_    0.387430 0.347588 0.264097 0.058091
H18   H     H_    0.555590 0.281923 0.261896 0.130011
H19   H     H_    0.595398 0.828471 0.261768 0.068112
H20   H     H_    0.191402 0.773430 0.245597 0.150759
H21   H     H_    0.101335 0.335575 0.689481 0.031861
H22   H     H_    0.932948 0.258985 0.677478 -0.040810
H23   H     H_    0.219864 0.255585 0.761359 0.162197
H24   H     H_    0.013482 0.275575 0.780954 0.076111
H25   H     H_    0.061314 0.175607 0.746613 0.119033
H26   H     H_    0.665343 0.250687 0.657031 -0.083718
H27   H     H_    0.471908 0.234744 0.620881 0.078459
H28   H     H_    0.556197 0.113017 0.665841 0.074748
H29   H     H_    0.372993 0.150672 0.699334 0.151161
H30   H     H_    0.984230 0.658543 0.316184 0.081609
H31   H     H_    0.564336 0.172462 0.737347 0.122754
H32   H     H_    0.814562 0.366449 0.070938 0.156534
H33   H     H_    0.426440 0.641936 0.030821 0.124461
H34   H     H_    0.369436 0.625659 0.925598 0.126266
H35   H     H_    0.787951 0.371304 0.787378 0.163980
H36   H     H_    0.016930 0.459494 0.245011 0.193305
H37   H     H_    0.371549 0.527868 0.377985 0.110007
H38   H     H_    0.199293 0.677710 0.321127 0.047193
H39   H     H_    0.688357 0.861398 0.536707 0.094537
H40   H     H_    0.935170 0.081116 0.563709 0.116332
H41   H     H_    0.345386 0.668210 0.471661 0.038206
H42   H     H_    0.843989 0.323670 0.527289 0.149199
H43   H     H_    0.102957 0.673337 0.218831 0.096806
H44   H     H_    0.973401 0.756096 0.240461 0.132815
H45   H     H_    0.312249 0.690079 0.586355 -0.031405
H46   H     H_    0.108412 0.694832 0.558434 0.033788
N1    N     N_R   0.974172 0.493542 0.848781 -0.422177
N2    N     N_R   0.197599 0.505823 0.149161 -0.414629
N3    N     N_2   0.533067 0.984400 0.491454 -0.142663
N4    N     N_2   0.667913 0.005935 0.514532 -0.223646
O1    O     O_2   0.899090 0.455560 0.360740 -0.379069
O2    O     O_3   0.635028 0.708056 0.621566 -0.649988
O3    O     O_3   0.058475 0.774937 0.352818 -0.563803
O4    O     O_2   0.290610 0.544470 0.639300 -0.473468
O5    O     O_3   0.050220 0.543670 0.568220 -0.431948
O6    O     O_3   0.537630 0.397360 0.604330 -0.428846
O7    O     O_3   0.129805 0.675066 0.645732 -0.584066
O8    O     O_3   0.634180 0.402670 0.470930 -0.413876
O9    O     O_3   0.127750 0.355750 0.575620 -0.464017
O10   O     O_2   0.238489 0.210119 0.535631 -0.437799
O11   O     O_3   0.155892 0.223659 0.645474 -0.599951
O12   O     O_3   0.139470 0.456390 0.431790 -0.505463
O13   O     O_3   0.555510 0.597400 0.529070 -0.486698
O14   O     O_2   0.384010 0.302440 0.472310 -0.459566
O15   O     O_3   0.562550 0.273464 0.376370 -0.642722
O16   O     O_2   0.474347 0.471056 0.711115 -0.456519
O17   O     O_3   0.470349 0.309525 0.700103 -0.584843
O18   O     O_2   0.221536 0.555987 0.835345 -0.512293
O19   O     O_2   0.726836 0.443635 0.876508 -0.504534
O20   O     O_2   0.027232 0.392776 0.150548 -0.579386
O21   O     O_2   0.347566 0.622328 0.135895 -0.541071
O22   O     O_3   0.652060 0.602710 0.395680 -0.417630
O23   O     O_2   0.778607 0.540629 0.292969 -0.446423
O24   O     O_3   0.055639 0.325077 0.353687 -0.628158
O25   O     O_3   0.690032 0.689383 0.293642 -0.641227
O26   O     O_2   0.805680 0.697590 0.527730 -0.452536
O27   O     O_3   0.061950 0.644310 0.424380 -0.510137
O28   O     O_2   0.952506 0.790974 0.461556 -0.427066
P1    P     P_3+3 0.070660 0.431690 0.369620 1.036623
P2    P     P_3+3 0.630590 0.685720 0.544880 1.014118
P3    P     P_3+3 0.089125 0.750459 0.424168 1.040494
P4    P     P_3+3 0.119040 0.568370 0.630390 1.114289
P5    P     P_3+3 0.105945 0.248750 0.575977 0.980670
P6    P     P_3+3 0.641743 0.594119 0.318445 1.171873
P7    P     P_3+3 0.565545 0.300435 0.452674 1.066577
P8    P     P_3+3 0.567209 0.399114 0.679993 1.045777
F1    F     F_    0.700167 0.760308 0.385978 -0.699647
H47   H     H_    0.094584 0.304846 0.440058 0.064023
F2    F     F_    0.460227 0.738530 0.338781 -0.810556
F3    F     F_    0.591883 0.401832 0.348815 -0.720122
F4    F     F_    0.690497 0.366103 0.968080 -0.650965
F5    F     F_    0.529299 0.544747 0.191355 -0.660811
F6    F     F_    0.045189 0.617999 0.761706 -0.665435
F7    F     F_    0.842021 0.452707 0.602542 -0.705634
F8    F     F_    0.483515 0.121054 0.457962 -0.678962
H48   H     H_    0.264001 0.914788 0.442073 0.110972

loop_
_geom_bond_atom_site_label_1
_geom_bond_atom_site_label_2
_ccdc_geom_bond_type
C12   O3    S    
C53   C54   S    
C8    H29   S    
O27   P3    S    
C28   P4    S    
C39   C40   A    
C5    O11   S    
C17   C18   A    
Ba1   O22   S    
Ba1   O26   S    
C2    F1    S    
Ba2   O12   S    
C5    C6    S    
C51   C52   S    
C4    H16   S    
C37   F7    S    
Ba2   O6    S    
C42   H48   S    
O3    P3    S    
C26   C27   S    
C33   C35   A    
C22   C24   A    
O2    P2    S    
Ba1   O13   S    
C28   C29   D    
C29   F6    S    
C52   H7    S    
C27   P8    S    
C13   C14   A    
C3    O15   S    
C25   N2    Am   
C34   C45   S    
C34   H46   S    
Ba1   Ba2   S    
C24   O20   D    
O6    P8    S    
O1    P1    D    
O25   P6    S    
C8    H28   S    
C24   N2    Am   
C25   O21   D    
C23   H43   S    
O24   P1    S    
C14   C15   A    
C10   C15   A    
C46   P7    S    
C6    H23   S    
C36   N2    S    
C21   C22   A    
C11   N1    Am   
Ba1   P2    S    
C1    H19   S    
C7    C8    S    
C7    H26   S    
C5    H21   S    
O10   P5    D    
C9    H37   S    
C46   C48   A    
C44   F8    S    
O11   P5    S    
O28   P3    D    
Ba1   O27   S    
C34   O7    S    
C26   C30   D    
C53   H9    S    
C51   H4    S    
C4    H18   S    
C2    O25   S    
C38   C43   A    
Ba2   O5    S    
C44   C46   A    
C8    H31   S    
C48   H42   S    
C40   H39   S    
Ba2   P4    S    
O8    P7    S    
O15   P7    S    
O4    P4    D    
C1    H14   S    
C12   H30   S    
C33   P1    S    
C38   H41   S    
C11   O18   D    
Ba2   O14   S    
C16   C17   A    
C52   H6    S    
C48   C49   A    
C54   H12   S    
C15   C19   A    
C6    H25   S    
C34   H45   S    
C16   H34   S    
C41   C42   A    
C35   C36   A    
C17   H33   S    
C31   F5    S    
C45   H1    S    
Ba2   O9    S    
C23   H44   S    
C29   C30   S    
C44   C47   A    
C41   N3    S    
O26   P2    D    
C47   C50   A    
C53   H8    S    
C27   C37   S    
C43   P3    S    
C31   C32   A    
C30   N1    S    
C18   C19   A    
C7    H27   S    
C5    H22   S    
C38   C39   A    
C18   C25   A    
O9    P5    S    
C21   H32   S    
C13   O19   D    
C1    H10   S    
Ba1   O8    S    
O16   P8    D    
C1    C2    S    
C42   C43   A    
C4    H17   S    
Ba2   O4    S    
C14   C20   A    
C3    F3    S    
C35   H36   S    
C20   C21   A    
C9    C32   A    
O14   P7    D    
C31   C36   A    
C20   F4    S    
Ba2   O13   S    
C47   N4    S    
C52   H5    S    
C54   H11   S    
N3    N4    D    
O13   P2    S    
C53   O2    S    
C23   H20   S    
C51   H47   S    
C9    C33   A    
O22   P6    S    
C49   C50   A    
C3    H15   S    
Ba1   O5    S    
C45   H2    S    
Ba2   O8    S    
C3    C4    S    
O23   P6    D    
C2    F2    S    
O17   P8    S    
C32   P6    S    
C7    O17   S    
C28   C37   D    
C50   H40   S    
C26   H35   S    
Ba1   O12   S    
C12   C23   S    
C45   H3    S    
Ba1   O1    S    
C10   C11   A    
C54   H13   S    
C40   C41   A    
C19   C22   A    
C10   C16   A    
C6    H24   S    
O7    P4    S    
C51   O24   S    
C13   N1    Am   
Ba1   P1    S    
C12   H38   S    
C39   P2    S    
O12   P1    S    
O5    P4    S    
C49   P5    S    
