data_mof_unit_38544.cif
_audit_creation_date              2012-12-11T15:22:33-0500
_audit_creation_method            fapswitch 2.2
_symmetry_space_group_name_H-M    P1
_symmetry_Int_Tables_number       1
_space_group_crystal_system       triclinic
_cell_length_a                    22.349714
_cell_length_b                    13.018589
_cell_length_c                    26.966873
_cell_angle_alpha                 89.885344
_cell_angle_beta                  90.867046
_cell_angle_gamma                 89.983142
_cell_volume                      7845.41379648

loop_
_atom_site_label
_atom_site_type_symbol
_atom_type_description
_atom_site_fract_x
_atom_site_fract_y
_atom_site_fract_z
_atom_type_partial_charge
Br1   Br    Br    0.868803 0.953588 0.144123 -0.547318
Br2   Br    Br    0.131238 0.953776 0.856147 -0.532466
Br3   Br    Br    0.368843 0.454841 0.143748 -0.532044
Br4   Br    Br    0.631249 0.453650 0.856119 -0.537881
C1    C     C_R   0.720726 0.345287 0.178255 0.540694
C2    C     C_R   0.480889 0.256707 0.896742 -0.108563
C3    C     C_R   0.008524 0.587374 0.554606 -0.120449
C4    C     C_R   0.500784 0.084659 0.393826 -0.134345
C5    C     C_R   0.494313 0.080354 0.605140 -0.130455
C6    C     C_R   0.003155 0.580858 0.393995 -0.131570
C7    C     C_R   0.997202 0.584540 0.605303 -0.124798
C8    C     C_R   0.740908 0.951222 0.370632 0.035088
C9    C     C_R   0.279141 0.033895 0.617116 0.013648
C10   C     C_R   0.220652 0.534265 0.382861 0.013499
C11   C     C_R   0.764017 0.485991 0.621363 0.021570
C12   C     C_R   0.690016 0.945353 0.400591 -0.136193
C13   C     C_R   0.019968 0.757304 0.102976 -0.108541
C14   C     C_R   0.327444 0.981576 0.595290 -0.134396
C15   C     C_R   0.172158 0.482502 0.404772 -0.134213
C16   C     C_R   0.802181 0.411878 0.600948 -0.136552
C17   C     C_R   0.695464 0.921843 0.450281 -0.137819
C18   C     C_R   0.327081 0.959513 0.544832 -0.127387
C19   C     C_R   0.172365 0.460689 0.455294 -0.127293
C20   C     C_R   0.806402 0.401737 0.549667 -0.123117
C21   C     C_R   0.751908 0.904706 0.471177 0.014540
C22   C     C_R   0.279063 0.991549 0.515200 0.014156
C23   C     C_R   0.220373 0.492584 0.484890 0.014047
C24   C     C_R   0.980811 0.756719 0.896765 -0.108318
C25   C     C_R   0.777037 0.472181 0.518381 0.013361
C26   C     C_R   0.802619 0.902378 0.441142 -0.095098
C27   C     C_R   0.234231 0.052884 0.535067 -0.088860
C28   C     C_R   0.265345 0.553564 0.464922 -0.088834
C29   C     C_R   0.744567 0.552460 0.539098 -0.102247
C30   C     C_R   0.797691 0.922819 0.390229 0.011295
C31   C     C_R   0.232319 0.074186 0.585859 0.005194
C32   C     C_R   0.267514 0.574354 0.414060 0.005320
C33   C     C_R   0.730287 0.552104 0.589069 0.008114
C34   C     C_R   0.793802 0.811873 0.543393 -0.135152
C35   C     C_R   0.508718 0.258644 0.051715 0.017115
C36   C     C_R   0.213016 0.904475 0.455448 -0.123586
C37   C     C_R   0.286318 0.404443 0.544480 -0.123816
C38   C     C_R   0.713702 0.477994 0.442660 -0.122491
C39   C     C_R   0.721709 0.348337 0.321242 0.542669
C40   C     C_R   0.278282 0.348220 0.678793 0.527754
C41   C     C_R   0.221680 0.848022 0.321252 0.528387
C42   C     C_R   0.778835 0.847166 0.678348 0.527887
C43   C     C_R   0.799441 0.798627 0.594042 -0.116943
C44   C     C_R   0.198308 0.873544 0.407963 -0.119776
C45   C     C_R   0.301219 0.373416 0.591965 -0.120112
C46   C     C_R   0.492116 0.258267 0.947993 0.017213
C47   C     C_R   0.701280 0.451937 0.394355 -0.126929
C48   C     C_R   0.732620 0.942752 0.608120 -0.143716
C49   C     C_R   0.297033 0.923198 0.380190 -0.138231
C50   C     C_R   0.202906 0.424503 0.620078 -0.138065
C51   C     C_R   0.799185 0.373017 0.388133 -0.127274
C52   C     C_R   0.726862 0.956223 0.557072 -0.118741
C53   C     C_R   0.311614 0.956551 0.428183 -0.121373
C54   C     C_R   0.188132 0.457969 0.572075 -0.121362
C55   C     C_R   0.812770 0.403118 0.436735 -0.118792
C56   C     C_R   0.757660 0.890833 0.524628 0.020490
C57   C     C_R   0.008613 0.758643 0.051743 0.017344
C58   C     C_R   0.268884 0.949150 0.465622 0.023827
C59   C     C_R   0.230589 0.449920 0.534472 0.023590
C60   C     C_R   0.769227 0.453305 0.464866 0.035788
C61   C     C_R   0.769160 0.864133 0.626243 0.034696
C62   C     C_R   0.239566 0.884562 0.369993 0.029326
C63   C     C_R   0.260285 0.385133 0.630092 0.029408
C64   C     C_R   0.742547 0.395093 0.367394 0.025638
C65   C     C_R   0.554462 0.158854 0.321638 0.544207
C66   C     C_R   0.445713 0.158815 0.678423 0.533784
C67   C     C_R   0.054089 0.658755 0.321462 0.530613
C68   C     C_R   0.992019 0.758277 0.948018 0.017100
C69   C     C_R   0.945352 0.658955 0.678227 0.539780
C70   C     C_R   0.732307 0.000166 0.322304 0.536475
C71   C     C_R   0.280665 0.048450 0.671730 0.556087
C72   C     C_R   0.219278 0.548496 0.328209 0.557215
C73   C     C_R   0.769394 0.508965 0.674662 0.541763
C74   C     C_R   0.513838 0.070811 0.102976 -0.133232
C75   C     C_R   0.484141 0.069990 0.897730 -0.133515
C76   C     C_R   0.013827 0.570799 0.102987 -0.133581
C77   C     C_R   0.984142 0.570005 0.897739 -0.133347
C78   C     C_R   0.504931 0.070667 0.051960 0.010786
C79   C     C_R   0.503032 0.164735 0.026004 0.062593
C80   C     C_R   0.492825 0.070187 0.948764 0.010633
C81   C     C_R   0.004911 0.570660 0.051972 0.010818
C82   C     C_R   0.992812 0.570197 0.948774 0.010656
C83   C     C_R   0.495351 0.977195 0.974907 -0.142843
C84   C     C_R   0.500799 0.977449 0.026316 -0.142287
C85   C     C_R   0.995375 0.477200 0.974911 -0.142861
C86   C     C_R   0.000819 0.477445 0.026321 -0.142366
C87   C     C_3   0.853122 0.912938 0.358808 -0.277437
C88   C     C_3   0.876430 0.802506 0.358616 -0.436488
C89   C     C_3   0.179327 0.134229 0.606241 -0.258296
C90   C     C_R   0.496216 0.164512 0.974215 0.062651
C91   C     C_3   0.138246 0.187906 0.568256 -0.470673
C92   C     C_3   0.320866 0.633439 0.393574 -0.258312
C93   C     C_3   0.362254 0.686416 0.431447 -0.471722
C94   C     C_3   0.678939 0.620082 0.606831 -0.251893
C95   C     C_3   0.637480 0.665504 0.566617 -0.472442
C96   C     C_R   0.002969 0.664735 0.026024 0.062625
C97   C     C_R   0.279283 0.345115 0.821768 0.544101
C98   C     C_R   0.996157 0.664518 0.974234 0.062588
C99   C     C_R   0.505597 0.351618 0.025348 -0.129327
C100  C     C_R   0.496769 0.351446 0.973866 -0.129064
C101  C     C_R   0.005444 0.851621 0.025383 -0.129297
C102  C     C_R   0.996620 0.851453 0.973899 -0.129217
C103  C     C_R   0.738349 0.957574 0.129620 0.037256
C104  C     C_R   0.261742 0.957437 0.870443 0.035157
C105  C     C_R   0.238309 0.457799 0.129547 0.034939
C106  C     C_R   0.761744 0.457436 0.870441 0.035980
C107  C     C_R   0.794676 0.945866 0.107360 0.155960
C108  C     C_R   0.220726 0.845285 0.178256 0.544528
C109  C     C_R   0.205449 0.945985 0.892801 0.155813
C110  C     C_R   0.294609 0.446584 0.107171 0.155956
C111  C     C_R   0.705450 0.445939 0.892791 0.155716
C112  C     C_R   0.797560 0.927585 0.056422 -0.087335
C113  C     C_R   0.202656 0.928037 0.943789 -0.088305
C114  C     C_R   0.297408 0.428461 0.056220 -0.088137
C115  C     C_R   0.702653 0.427999 0.943780 -0.087980
C116  C     C_R   0.745022 0.920791 0.027338 0.000640
C117  C     C_R   0.255248 0.921443 0.972822 0.001037
C118  C     C_R   0.244826 0.421394 0.027215 0.000863
C119  C     C_R   0.779304 0.845072 0.821789 0.542099
C120  C     C_R   0.755242 0.421451 0.972819 0.000991
C121  C     C_R   0.689342 0.925308 0.050135 -0.134928
C122  C     C_R   0.310889 0.925665 0.949954 -0.134511
C123  C     C_R   0.189191 0.425471 0.050106 -0.134323
C124  C     C_R   0.810886 0.425718 0.949958 -0.134841
C125  C     C_R   0.553462 0.157301 0.177601 0.551370
C126  C     C_R   0.446469 0.157113 0.822437 0.552269
C127  C     C_R   0.053449 0.657302 0.177609 0.550550
C128  C     C_R   0.946463 0.657115 0.822441 0.551604
C129  C     C_R   0.686049 0.942851 0.100719 -0.157245
C130  C     C_R   0.474617 0.162409 0.871862 -0.000038
C131  C     C_R   0.314093 0.942754 0.899310 -0.158166
C132  C     C_R   0.185976 0.442814 0.100715 -0.158091
C133  C     C_R   0.814094 0.442803 0.899314 -0.157864
C134  C     C_R   0.710475 0.842639 0.947557 -0.113036
C135  C     C_R   0.289991 0.843797 0.052761 -0.113018
C136  C     C_R   0.210319 0.343017 0.947477 -0.112954
C137  C     C_R   0.789994 0.343825 0.052760 -0.113106
C138  C     C_R   0.716879 0.827856 0.896815 -0.122384
C139  C     C_R   0.283507 0.828913 0.103493 -0.122744
C140  C     C_R   0.216793 0.328039 0.896757 -0.122696
C141  C     C_R   0.524997 0.163112 0.128304 0.000873
C142  C     C_R   0.783512 0.328941 0.103493 -0.122480
C143  C     C_R   0.796274 0.954792 0.895985 -0.119597
C144  C     C_R   0.203816 0.955422 0.104012 -0.119464
C145  C     C_R   0.296016 0.455287 0.895840 -0.119027
C146  C     C_R   0.703801 0.455413 0.104008 -0.120262
C147  C     C_R   0.789717 0.969738 0.946678 -0.115641
C148  C     C_R   0.210487 0.970533 0.053324 -0.115779
C149  C     C_R   0.289377 0.470451 0.946509 -0.115526
C150  C     C_R   0.710467 0.470520 0.053320 -0.115998
C151  C     C_R   0.748240 0.911162 0.973115 0.036200
C152  C     C_R   0.974592 0.662420 0.871874 0.000670
C153  C     C_R   0.252107 0.912114 0.027050 0.036500
C154  C     C_R   0.247975 0.411786 0.972987 0.036273
C155  C     C_R   0.752098 0.412120 0.027048 0.036480
C156  C     C_R   0.761469 0.880879 0.871001 0.021498
C157  C     C_R   0.238680 0.881551 0.129123 0.021405
C158  C     C_R   0.261353 0.381094 0.870922 0.021430
C159  C     C_R   0.738676 0.381559 0.129121 0.021645
C160  C     C_R   0.527909 0.169105 0.370908 0.025179
C161  C     C_R   0.472951 0.168115 0.629316 0.024671
C162  C     C_R   0.025840 0.668167 0.370152 0.017405
C163  C     C_R   0.024960 0.663104 0.128320 -0.000311
C164  C     C_R   0.970994 0.669288 0.628564 0.023391
C165  C     C_R   0.539056 0.258561 0.398622 -0.123425
C166  C     C_R   0.467674 0.260682 0.602810 -0.133438
C167  C     C_R   0.030851 0.760654 0.396589 -0.145412
C168  C     C_R   0.959453 0.758847 0.600839 -0.132350
C169  C     C_R   0.527513 0.260837 0.449134 -0.122079
C170  C     C_R   0.478264 0.263192 0.552080 -0.124100
C171  C     C_R   0.018852 0.763353 0.447067 -0.132872
C172  C     C_R   0.969500 0.760857 0.550062 -0.128257
C173  C     C_R   0.731343 0.001324 0.179460 0.570453
C174  C     C_R   0.520059 0.257308 0.102949 -0.108090
C175  C     C_R   0.268664 0.001200 0.820543 0.585342
C176  C     C_R   0.231328 0.501388 0.179432 0.585286
C177  C     C_R   0.768663 0.501196 0.820542 0.576533
C178  C     C_R   0.503472 0.174431 0.472797 0.035368
C179  C     C_R   0.495975 0.173791 0.527176 0.037565
C180  C     C_R   0.000176 0.674169 0.471788 0.033117
C181  C     C_R   0.992816 0.674296 0.526181 0.035474
C182  C     C_R   0.488198 0.087633 0.444296 -0.126278
C183  C     C_R   0.506102 0.083365 0.554593 -0.124294
C184  C     C_R   0.990036 0.584048 0.444311 -0.124051
Cr1   Cr    Cr6+3 0.756570 0.170940 0.251190 1.043631
Cr2   Cr    Cr6+3 0.374010 0.036240 0.749520 1.016611
Cr3   Cr    Cr6+3 0.125990 0.536240 0.250480 1.015685
Cr4   Cr    Cr6+3 0.874010 0.536240 0.749520 1.018178
Cr5   Cr    Cr6+3 0.243430 0.170940 0.748810 1.033869
Cr6   Cr    Cr6+3 0.256570 0.670940 0.251190 1.033488
Cr7   Cr    Cr6+3 0.743430 0.670940 0.748810 1.038095
Cr8   Cr    Cr6+3 0.623740 0.299110 0.249580 1.030935
Cr9   Cr    Cr6+3 0.376260 0.299110 0.750420 1.027521
Cr10  Cr    Cr6+3 0.123740 0.799110 0.249580 1.023048
Cr11  Cr    Cr6+3 0.876260 0.799110 0.750420 1.032476
Cr12  Cr    Cr6+3 0.625990 0.036240 0.250480 1.015823
H1    H     H_    0.479953 0.996790 0.878870 0.131235
H2    H     H_    0.352066 0.920798 0.971550 0.122311
H3    H     H_    0.387752 0.628690 0.453582 0.140568
H4    H     H_    0.395089 0.734883 0.411603 0.139012
H5    H     H_    0.348713 0.580256 0.371498 0.178666
H6    H     H_    0.303903 0.695015 0.369186 0.190229
H7    H     H_    0.660865 0.726027 0.545259 0.156589
H8    H     H_    0.620761 0.604337 0.541309 0.146782
H9    H     H_    0.598355 0.702020 0.584382 0.139833
H10   H     H_    0.649796 0.572796 0.630887 0.173915
H11   H     H_    0.697095 0.684945 0.628602 0.195565
H12   H     H_    0.148014 0.420263 0.028538 0.122420
H13   H     H_    0.852061 0.420888 0.971559 0.122210
H14   H     H_    0.642047 0.951739 0.116473 0.141352
H15   H     H_    0.358064 0.951425 0.883470 0.140310
H16   H     H_    0.141993 0.451336 0.116546 0.141048
H17   H     H_    0.858066 0.451510 0.883480 0.140443
H18   H     H_    0.560609 0.324577 0.382137 0.130530
H19   H     H_    0.451521 0.329729 0.620492 0.128162
H20   H     H_    0.047756 0.829490 0.379097 0.128705
H21   H     H_    0.516942 0.997751 0.122238 0.131167
H22   H     H_    0.938618 0.825131 0.617591 0.139940
H23   H     H_    0.521836 0.014163 0.536794 0.097199
H24   H     H_    0.467919 0.020968 0.461237 0.093821
H25   H     H_    0.028369 0.520629 0.537487 0.094041
H26   H     H_    0.973556 0.515087 0.461980 0.099773
H27   H     H_    0.499274 0.008089 0.624748 0.125325
H28   H     H_    0.491573 0.014935 0.373236 0.121632
H29   H     H_    0.006726 0.514713 0.625860 0.122946
H30   H     H_    0.998231 0.508776 0.374371 0.125273
H31   H     H_    0.540284 0.328541 0.469990 0.101575
H32   H     H_    0.979989 0.496808 0.878872 0.130918
H33   H     H_    0.469910 0.334078 0.532097 0.098798
H34   H     H_    0.027111 0.834053 0.467081 0.101728
H35   H     H_    0.956409 0.828634 0.529246 0.100259
H36   H     H_    0.645861 0.965144 0.386394 0.143032
H37   H     H_    0.364788 0.953786 0.617577 0.142438
H38   H     H_    0.134809 0.454873 0.382509 0.142915
H39   H     H_    0.827988 0.360804 0.624748 0.124642
H40   H     H_    0.817021 0.759867 0.518949 0.114416
H41   H     H_    0.180160 0.895311 0.484284 0.113169
H42   H     H_    0.318937 0.394791 0.515510 0.112876
H43   H     H_    0.016965 0.497735 0.122242 0.131264
H44   H     H_    0.677575 0.512148 0.463191 0.098448
H45   H     H_    0.827282 0.736756 0.608336 0.121001
H46   H     H_    0.154759 0.839774 0.400915 0.119010
H47   H     H_    0.344639 0.338997 0.598893 0.117514
H48   H     H_    0.657079 0.469701 0.379657 0.129369
H49   H     H_    0.492257 0.904352 0.955649 0.107479
H50   H     H_    0.502686 0.904778 0.045958 0.107862
H51   H     H_    0.992317 0.404359 0.955648 0.107324
H52   H     H_    0.002739 0.404770 0.045957 0.107902
H53   H     H_    0.655711 0.920645 0.472801 0.106333
H54   H     H_    0.830783 0.997130 0.876951 0.132798
H55   H     H_    0.362402 0.912737 0.529578 0.103094
H56   H     H_    0.136953 0.414153 0.470637 0.103423
H57   H     H_    0.831790 0.338420 0.534758 0.108247
H58   H     H_    0.699153 0.018266 0.542897 0.117158
H59   H     H_    0.355136 0.989961 0.435809 0.110777
H60   H     H_    0.144697 0.491958 0.564562 0.111235
H61   H     H_    0.856098 0.384045 0.452711 0.097206
H62   H     H_    0.709389 0.993439 0.633159 0.107246
H63   H     H_    0.329706 0.929258 0.351081 0.110828
H64   H     H_    0.170459 0.431017 0.649326 0.111009
H65   H     H_    0.169155 0.997499 0.122928 0.133088
H66   H     H_    0.831779 0.329366 0.367618 0.122450
H67   H     H_    0.846277 0.887114 0.457593 0.104978
H68   H     H_    0.198761 0.078230 0.510270 0.118629
H69   H     H_    0.300798 0.578765 0.489714 0.118952
H70   H     H_    0.726552 0.611380 0.514930 0.117474
H71   H     H_    0.473823 0.328294 0.876892 0.146998
H72   H     H_    0.528380 0.328832 0.122384 0.146027
H73   H     H_    0.973720 0.828304 0.876919 0.146886
H74   H     H_    0.028261 0.828830 0.122416 0.145937
H75   H     H_    0.493668 0.424065 0.954292 0.126560
H76   H     H_    0.330485 0.497673 0.876780 0.133480
H77   H     H_    0.509953 0.424349 0.044530 0.124836
H78   H     H_    0.993485 0.924075 0.954331 0.126313
H79   H     H_    0.009763 0.924351 0.044570 0.125034
H80   H     H_    0.678044 0.796752 0.967186 0.110269
H81   H     H_    0.322537 0.798044 0.033259 0.110216
H82   H     H_    0.177951 0.297050 0.967133 0.110289
H83   H     H_    0.822549 0.298090 0.033260 0.110210
H84   H     H_    0.689618 0.769944 0.878609 0.149493
H85   H     H_    0.310857 0.771109 0.121822 0.149211
H86   H     H_    0.189632 0.269932 0.878596 0.149225
H87   H     H_    0.669133 0.497476 0.122923 0.132271
H88   H     H_    0.810872 0.271152 0.121823 0.149331
H89   H     H_    0.840940 0.920051 0.039397 0.139595
H90   H     H_    0.159306 0.920653 0.960889 0.138666
H91   H     H_    0.340765 0.421254 0.039124 0.138981
H92   H     H_    0.659301 0.420582 0.960875 0.138891
H93   H     H_    0.818121 0.025215 0.965471 0.108503
H94   H     H_    0.182009 0.025894 0.034399 0.108140
H95   H     H_    0.317690 0.526120 0.965260 0.108487
H96   H     H_    0.681979 0.525864 0.034392 0.108073
H97   H     H_    0.891246 0.778327 0.396349 0.159538
H98   H     H_    0.648202 0.920329 0.028505 0.122384
H99   H     H_    0.840952 0.749384 0.345006 0.163606
H100  H     H_    0.915285 0.796919 0.333579 0.155376
H101  H     H_    0.844468 0.934501 0.319628 0.185107
H102  H     H_    0.888576 0.964836 0.373589 0.143100
H103  H     H_    0.164639 0.237790 0.543273 0.165391
H104  H     H_    0.112327 0.130627 0.546311 0.141309
H105  H     H_    0.105768 0.237143 0.587992 0.139952
H106  H     H_    0.151207 0.081608 0.628472 0.179386
H107  H     H_    0.196687 0.195540 0.630467 0.189863
H108  H     H_    0.336166 0.736966 0.456259 0.165472
O1    O     O_R   0.769900 0.064540 0.196060 -0.465927
O2    O     O_R   0.433710 0.069580 0.694600 -0.531685
O3    O     O_R   0.066290 0.569580 0.305400 -0.530833
O4    O     O_R   0.933710 0.569580 0.694600 -0.516675
O5    O     O_R   0.680760 0.993330 0.302620 -0.506428
O6    O     O_R   0.319240 0.993330 0.697380 -0.495789
O7    O     O_R   0.180760 0.493330 0.302620 -0.495651
O8    O     O_R   0.819240 0.493330 0.697380 -0.498719
O9    O     O_3   0.668770 0.168760 0.250420 -0.247110
O10   O     O_3   0.331230 0.168760 0.749580 -0.270276
O11   O     O_3   0.168770 0.668760 0.250420 -0.269186
O12   O     O_R   0.230100 0.064540 0.803940 -0.457432
O13   O     O_3   0.831230 0.668760 0.749580 -0.252122
O14   O     O_R   0.750800 0.274080 0.199250 -0.504154
O15   O     O_R   0.249200 0.274080 0.800750 -0.502265
O16   O     O_R   0.250800 0.774080 0.199250 -0.502170
O17   O     O_R   0.749200 0.774080 0.800750 -0.501909
O18   O     O_R   0.669990 0.371670 0.194150 -0.518654
O19   O     O_R   0.330010 0.371670 0.805850 -0.515424
O20   O     O_R   0.169990 0.871670 0.194150 -0.515532
O21   O     O_R   0.830010 0.871670 0.805850 -0.517685
O22   O     O_R   0.574600 0.238480 0.197800 -0.493598
O23   O     O_R   0.269900 0.564540 0.196060 -0.457430
O24   O     O_R   0.425400 0.238480 0.802200 -0.491628
O25   O     O_R   0.074600 0.738480 0.197800 -0.492680
O26   O     O_R   0.925400 0.738480 0.802200 -0.492926
O27   O     O_R   0.566130 0.068680 0.194240 -0.526356
O28   O     O_R   0.433870 0.068680 0.805760 -0.525367
O29   O     O_R   0.066130 0.568680 0.194240 -0.525701
O30   O     O_R   0.933870 0.568680 0.805760 -0.526626
O31   O     O_R   0.680610 0.992490 0.199570 -0.516153
O32   O     O_R   0.319390 0.992490 0.800430 -0.509222
O33   O     O_R   0.180610 0.492490 0.199570 -0.509042
O34   O     O_R   0.730100 0.564540 0.803940 -0.459937
O35   O     O_R   0.819390 0.492490 0.800430 -0.514449
O36   O     O_R   0.770060 0.065440 0.307230 -0.517212
O37   O     O_R   0.229940 0.065440 0.692770 -0.517090
O38   O     O_R   0.270060 0.565440 0.307230 -0.517815
O39   O     O_R   0.729940 0.565440 0.692770 -0.529080
O40   O     O_R   0.750960 0.274920 0.302300 -0.501268
O41   O     O_R   0.249040 0.274920 0.697700 -0.538167
O42   O     O_R   0.250960 0.774920 0.302300 -0.538245
O43   O     O_R   0.749040 0.774920 0.697700 -0.519972
O44   O     O_R   0.670160 0.372580 0.305320 -0.526630
O45   O     O_R   0.574760 0.239320 0.300850 -0.499896
O46   O     O_R   0.329840 0.372580 0.694680 -0.510965
O47   O     O_R   0.170160 0.872580 0.305320 -0.511342
O48   O     O_R   0.829840 0.872580 0.694680 -0.510869
O49   O     O_R   0.425240 0.239320 0.699150 -0.503139
O50   O     O_R   0.074760 0.739320 0.300850 -0.505629
O51   O     O_R   0.925240 0.739320 0.699150 -0.503161
O52   O     O_R   0.566290 0.069580 0.305400 -0.522292

loop_
_geom_bond_atom_site_label_1
_geom_bond_atom_site_label_2
_ccdc_geom_bond_type
C97   O19   A    
Cr9   O49   S    
C113  H90   S    
C83   C84   A    
Cr2   O10   S    
C149  H95   S    
C146  C159  A    
C150  H96   S    
C77   C152  A    
C9    C14   A    
C51   C55   A    
C125  O22   A    
C25   C29   A    
C161  C166  A    
Cr8   O18   S    
C145  C149  A    
C178  C179  S    
C44   H46   S    
C169  H31   S    
C13   C57   A    
C108  O20   A    
C8    C12   A    
C87   H102  S    
C39   C64   S    
C75   H1    S    
C67   C162  S    
Cr9   O10   S    
C102  H78   S    
C21   C56   S    
C147  C151  A    
C57   C101  A    
C125  C141  S    
C167  H20   S    
C14   H37   S    
C165  H18   S    
C89   H107  S    
C25   C60   S    
Cr5   O37   S    
C28   H69   S    
C126  C130  S    
C69   C164  S    
C37   C45   A    
C51   C64   A    
C11   C16   A    
Cr3   O3    S    
C135  H81   S    
C123  C132  A    
Cr9   O24   S    
C15   H38   S    
C116  C121  A    
C140  H86   S    
C116  C151  S    
C122  H2    S    
C72   O38   A    
C10   C72   S    
C104  C109  A    
C127  O29   A    
C15   C19   A    
C74   C78   A    
C118  C154  S    
Cr10  O25   S    
C68   C102  A    
C169  C178  A    
C114  H91   S    
C37   C59   A    
C93   H4    S    
C38   C60   A    
C43   H45   S    
C35   C174  A    
C166  C170  A    
C36   C44   A    
C148  C153  A    
C93   H108  S    
C40   O41   A    
C134  H80   S    
C147  H93   S    
C10   C15   A    
C46   C90   A    
C136  H82   S    
C81   C86   A    
C94   H11   S    
C88   H97   S    
C4    C182  A    
C177  O35   A    
C121  H98   S    
C24   H73   S    
C72   O7    A    
C167  C171  A    
C41   O42   A    
Cr7   O39   S    
Cr10  O11   S    
C125  O27   A    
Cr12  O5    S    
C34   H40   S    
Cr12  O31   S    
Cr10  O47   S    
C135  C153  A    
C94   C95   S    
C133  H17   S    
Cr2   O32   S    
C145  C158  A    
Cr7   O13   S    
C91   H105  S    
C175  O12   A    
C12   C17   A    
Br4   C111  S    
C4    H28   S    
Cr4   O8    S    
C173  O1    A    
C1    C159  S    
C9    C31   A    
C184  H26   S    
C10   C32   A    
C75   C80   A    
C6    H30   S    
C180  C181  S    
C114  C118  A    
C65   O52   A    
C118  C123  A    
C69   O4    A    
Cr11  O51   S    
C30   C87   S    
C11   C33   A    
C136  C154  A    
C135  C139  A    
C137  C155  A    
C97   O15   A    
C106  C177  S    
C6    C184  A    
Cr1   O1    S    
Cr2   O6    S    
C138  H84   S    
C127  C163  S    
C89   C91   S    
C103  C173  S    
C143  C156  A    
C33   C94   S    
C26   C30   A    
C88   H99   S    
Cr8   O22   S    
Cr4   O4    S    
C145  H76   S    
C104  C131  A    
C4    C160  A    
C66   C161  S    
C87   C88   S    
C108  O16   A    
C3    H25   S    
C70   O36   A    
C53   H59   S    
C112  C116  A    
C104  C175  S    
C143  C147  A    
Cr4   O35   S    
Cr1   O40   S    
C6    C162  A    
Cr5   O41   S    
C2    C46   A    
Cr7   O43   S    
C18   H55   S    
C105  C110  A    
C34   C56   A    
Cr3   O7    S    
C109  C113  A    
C57   C96   A    
C82   C98   A    
C166  H19   S    
C95   H9    S    
C83   H49   S    
C75   C130  A    
C182  H24   S    
C91   H103  S    
Cr12  O52   S    
C2    H71   S    
C14   C18   A    
C103  C107  A    
C3    C181  A    
C42   O43   A    
C144  C148  A    
C19   H56   S    
Br3   C110  S    
C26   H67   S    
C48   H62   S    
C111  C115  A    
C49   H63   S    
C76   H43   S    
C150  C155  A    
C105  C176  S    
C92   H5    S    
C11   C73   S    
C68   C98   A    
Cr8   O9    S    
C78   C84   A    
C128  C152  S    
C139  C157  A    
C168  H22   S    
C48   C61   A    
C17   H53   S    
C123  H12   S    
C126  O24   A    
C87   H101  S    
C41   O47   A    
C165  C169  A    
C40   C63   S    
C44   C62   A    
C168  C172  A    
C134  C151  A    
C89   H106  S    
Cr10  O50   S    
C46   C100  A    
C8    C70   S    
C29   H70   S    
Cr11  O48   S    
C65   C160  S    
C39   O44   A    
C172  C181  A    
Cr8   O44   S    
C108  C157  S    
C129  H14   S    
C97   C158  S    
C93   H3    S    
Cr11  O13   S    
C172  H35   S    
C178  C182  A    
Cr2   O28   S    
C42   O48   A    
C20   C25   A    
C73   O39   A    
C17   C21   A    
C141  C174  A    
C80   C83   A    
C107  C112  A    
C36   H41   S    
C120  C124  A    
Cr6   O38   S    
Cr6   O11   S    
C24   C68   A    
C51   H66   S    
Cr3   O29   S    
C176  O33   A    
C174  H72   S    
Cr5   O10   S    
C134  C138  A    
Cr9   O19   S    
C49   C53   A    
Cr7   O17   S    
C79   C90   A    
Cr1   O14   S    
C29   C33   A    
C52   C56   A    
Cr5   O15   S    
C115  H92   S    
C177  O34   A    
C179  C183  A    
Cr2   O2    S    
C55   H61   S    
C66   O49   A    
C5    H27   S    
C80   C90   A    
C45   H47   S    
C23   C59   S    
C137  C142  A    
C42   C61   S    
C122  C131  A    
C139  H85   S    
C7    C164  A    
C27   C31   A    
Cr6   O23   S    
C8    C30   A    
C170  H33   S    
C28   C32   A    
C21   C26   A    
C73   O8    A    
C85   H51   S    
C23   C28   A    
C40   O46   A    
C106  C133  A    
C136  C140  A    
C82   C85   A    
C170  C179  A    
C35   C99   A    
Cr1   O36   S    
C101  C102  A    
C95   H8    S    
C50   H64   S    
C5    C161  A    
C47   H48   S    
C35   C79   A    
C103  C129  A    
Br1   C107  S    
Cr1   O9    S    
Cr3   O11   S    
C20   H57   S    
C142  H88   S    
C164  C168  A    
C78   C79   A    
C18   C22   A    
C54   H60   S    
C99   C100  A    
C12   H36   S    
Cr7   O34   S    
C85   C86   A    
C106  C111  A    
C66   O2    A    
C171  C180  A    
C144  H65   S    
C1    O18   A    
Cr5   O12   S    
C70   O5    A    
Cr4   O13   S    
C173  O31   A    
C13   H74   S    
C36   C58   A    
C53   C58   A    
C115  C120  A    
C3    C7    A    
C94   H10   S    
C55   C60   A    
C76   C81   A    
C183  H23   S    
C88   H100  S    
C144  C157  A    
C67   O50   A    
Br2   C109  S    
C126  O28   A    
C119  C156  S    
C119  O21   A    
C120  C155  S    
C112  H89   S    
C149  C154  A    
C128  O30   A    
C113  C117  A    
C137  H83   S    
Cr10  O20   S    
C74   C141  A    
C175  O32   A    
Cr11  O26   S    
C131  H15   S    
C16   C20   A    
C77   H32   S    
Cr6   O16   S    
C91   H104  S    
C19   C23   A    
C1    O14   A    
C76   C163  A    
C39   O40   A    
C124  H13   S    
C176  O23   A    
C162  C167  A    
C117  C153  S    
C105  C132  A    
C160  C165  A    
Cr12  O27   S    
C31   C89   S    
C71   O37   A    
C9    C71   S    
C69   O51   A    
C13   C163  A    
Cr8   O45   S    
C50   C63   A    
C86   H52   S    
C119  O17   A    
C180  C184  A    
C65   O45   A    
C148  H94   S    
C124  C133  A    
C32   C92   S    
C92   H6    S    
Cr6   O42   S    
C171  H34   S    
C92   C93   S    
C96   C98   A    
C77   C82   A    
Cr3   O33   S    
C49   C62   A    
C100  H75   S    
C34   C43   A    
C110  C114  A    
C101  H79   S    
C146  H87   S    
C99   H77   S    
C67   O3    A    
Cr12  O9    S    
C84   H50   S    
C50   C54   A    
C121  C129  A    
C54   C59   A    
Cr11  O21   S    
C45   C63   A    
C140  C158  A    
C27   H68   S    
C52   H58   S    
C138  C156  A    
C5    C183  A    
Cr9   O46   S    
C128  O26   A    
C16   H39   S    
C142  C159  A    
C38   C47   A    
C143  H54   S    
C37   H42   S    
C22   C58   S    
C117  C122  A    
C2    C130  A    
C81   C96   A    
Cr4   O30   S    
C95   H7    S    
C38   H44   S    
C47   C64   A    
C71   O6    A    
C74   H21   S    
C127  O25   A    
C22   C27   A    
C7    H29   S    
C146  C150  A    
C41   C62   S    
C24   C152  A    
C43   C61   A    
C48   C52   A    
C132  H16   S    
