data_mof_unit_40122.cif
_audit_creation_date              2012-10-26T18:31:58-0400
_audit_creation_method            fapswitch 2.2
_symmetry_space_group_name_H-M    P1
_symmetry_Int_Tables_number       1
_space_group_crystal_system       triclinic
_cell_length_a                    12.398576
_cell_length_b                    13.247376
_cell_length_c                    14.329824
_cell_angle_alpha                 93.946752
_cell_angle_beta                  107.981873
_cell_angle_gamma                 117.129521
_cell_volume                      1930.3384104

loop_
_atom_site_label
_atom_site_type_symbol
_atom_type_description
_atom_site_fract_x
_atom_site_fract_y
_atom_site_fract_z
_atom_type_partial_charge
C1    C     C_R   0.650288 0.714065 0.508020 0.526277
C2    C     C_R   0.180159 0.456701 0.004236 0.051431
C3    C     C_R   0.140666 0.486764 0.079624 0.030555
C4    C     C_R   0.616710 0.514882 0.686319 0.539432
C5    C     C_R   0.287269 0.438025 0.030935 -0.134892
C6    C     C_R   0.354695 0.447236 0.131805 -0.141065
C7    C     C_R   0.205981 0.489578 0.179618 -0.134920
C8    C     C_R   0.144190 0.960061 0.368540 0.001195
C9    C     C_R   0.249710 0.160783 0.464705 -0.018317
C10   C     C_R   0.729469 0.923751 0.569560 -0.134195
C11   C     C_R   0.819588 0.041221 0.586869 -0.140173
C12   C     C_R   0.855999 0.513303 0.921380 0.032212
C13   C     C_R   0.920537 0.074245 0.551712 -0.120911
C14   C     C_R   0.930746 0.989455 0.494616 0.031299
C15   C     C_R   0.828738 0.871313 0.466233 0.023222
C16   C     C_R   0.345517 0.284969 0.485337 0.547661
C17   C     C_R   0.038059 0.018179 0.464016 0.012562
C18   C     C_R   0.035989 0.931628 0.397497 0.061481
C19   C     C_R   0.924809 0.819634 0.359903 -0.140434
C20   C     C_R   0.822441 0.790744 0.392242 -0.125385
C21   C     C_R   0.148441 0.130576 0.499215 -0.145424
C22   C     C_R   0.249598 0.075273 0.401906 -0.116801
C23   C     C_R   0.830736 0.562635 0.997334 0.052705
C24   C     C_R   0.734641 0.837549 0.511596 -0.004579
C25   C     C_R   0.258903 0.726438 0.597172 -0.153016
C26   C     C_R   0.650814 0.326947 0.378677 0.042963
C27   C     C_R   0.725228 0.283010 0.356103 -0.160921
C28   C     C_R   0.380885 0.482226 0.313370 0.543346
C29   C     C_R   0.861781 0.348540 0.398516 -0.138065
C30   C     C_R   0.926429 0.460999 0.462581 -0.023799
C31   C     C_R   0.846806 0.503512 0.485241 0.181289
C32   C     C_R   0.067627 0.533051 0.506493 -0.021977
C33   C     C_R   0.122750 0.653047 0.549967 0.011516
C34   C     C_R   0.963790 0.493468 0.948597 0.031844
C35   C     C_R   0.041490 0.697125 0.554158 -0.142839
C36   C     C_R   0.916167 0.619419 0.549544 0.041576
C37   C     C_R   0.157350 0.492999 0.509317 0.038044
C38   C     C_R   0.341040 0.680920 0.602300 0.045719
C39   C     C_R   0.682699 0.525084 0.793525 -0.006951
C40   C     C_R   0.313532 0.472476 0.206472 -0.005001
C41   C     C_R   0.732233 0.592505 0.970691 -0.136616
C42   C     C_R   0.660807 0.576627 0.869153 -0.137639
C43   C     C_R   0.773039 0.486716 0.820302 -0.145097
C44   C     C_3   0.148233 0.870508 0.300758 -0.409516
C45   C     C_R   0.036463 0.511566 0.052692 0.031836
C46   C     C_3   0.908956 0.642016 0.651525 -0.327101
C47   C     C_R   0.005710 0.557913 0.126430 -0.140181
C48   C     C_R   0.905174 0.583346 0.098855 -0.137199
C49   C     C_R   0.005501 0.462314 0.875376 -0.141229
C50   C     C_R   0.112611 0.445697 0.903130 -0.134329
Cu1   Cu    Cu3+1 0.416420 0.526630 0.522910 0.920434
Cu2   Cu    Cu3+1 0.583580 0.473370 0.477090 0.912841
H1    H     H_    0.886283 0.620434 0.157565 0.097138
H2    H     H_    0.446068 0.738705 0.637120 0.119882
H3    H     H_    0.172569 0.502012 0.237987 0.126336
H4    H     H_    0.086780 0.788822 0.591592 0.120811
H5    H     H_    0.301705 0.818334 0.631816 0.092577
H6    H     H_    0.122656 0.404284 0.472074 0.114947
H7    H     H_    0.545020 0.274141 0.345360 0.124283
H8    H     H_    0.914922 0.311300 0.377572 0.104769
H9    H     H_    0.676538 0.197286 0.305429 0.105922
H10   H     H_    0.437798 0.433511 0.151088 0.128461
H11   H     H_    0.142400 0.423587 0.844817 0.107535
H12   H     H_    0.318977 0.416543 0.973781 0.107521
H13   H     H_    0.713328 0.631417 0.028377 0.104517
H14   H     H_    0.589451 0.605282 0.849989 0.129641
H15   H     H_    0.776319 0.435360 0.760795 0.115104
H16   H     H_    0.061170 0.580949 0.206639 0.105034
H17   H     H_    0.960834 0.454752 0.795837 0.098302
H18   H     H_    0.138078 0.795788 0.335359 0.135972
H19   H     H_    0.067445 0.838688 0.225380 0.131985
H20   H     H_    0.242126 0.907647 0.289113 0.128143
H21   H     H_    0.884426 0.561974 0.679410 0.138128
H22   H     H_    0.005630 0.707744 0.711394 0.088271
H23   H     H_    0.329367 0.099295 0.375933 0.118223
H24   H     H_    0.844812 0.678583 0.651164 0.172729
H25   H     H_    0.915543 0.752668 0.305309 0.105540
H26   H     H_    0.158181 0.197679 0.553467 0.120260
H27   H     H_    0.657104 0.900343 0.603458 0.120895
H28   H     H_    0.986778 0.167050 0.568551 0.099106
H29   H     H_    0.813677 0.107160 0.630613 0.118073
H30   H     H_    0.737063 0.704743 0.356303 0.150928
N1    N     N_R   0.290690 0.566960 0.557640 -0.233870
N2    N     N_R   0.709100 0.433710 0.442970 -0.230379
O1    O     O_R   0.545970 0.684450 0.528810 -0.509128
O2    O     O_R   0.687130 0.639470 0.490120 -0.509925
O3    O     O_R   0.519670 0.535100 0.660030 -0.496442
O4    O     O_R   0.660830 0.490120 0.621340 -0.515426
O5    O     O_R   0.312870 0.360530 0.509880 -0.508992
O6    O     O_R   0.454030 0.315550 0.471190 -0.508702
O7    O     O_R   0.339170 0.509880 0.378660 -0.501086
O8    O     O_R   0.480330 0.464900 0.339970 -0.509948

loop_
_geom_bond_atom_site_label_1
_geom_bond_atom_site_label_2
_ccdc_geom_bond_type
C16   O6    A    
C20   H30   S    
C38   N1    A    
C27   C29   A    
C41   C42   A    
Cu2   O6    S    
C19   C20   A    
C7    H3    S    
Cu1   O1    S    
C46   H24   S    
C4    O3    A    
C11   H29   S    
C12   C23   A    
C26   C27   A    
C9    C16   S    
C12   C43   A    
C3    C7    A    
C5    C6    A    
C9    C22   A    
C28   C40   S    
C44   H19   S    
Cu2   N2    S    
C18   C19   A    
C19   H25   S    
C27   H9    S    
Cu1   O7    S    
C35   C36   A    
C21   H26   S    
C8    C22   A    
C7    C40   A    
C29   H8    S    
C44   H18   S    
C2    C50   A    
C26   H7    S    
C37   H6    S    
C13   H28   S    
C16   O5    A    
C49   H17   S    
C13   C14   A    
C50   H11   S    
C14   C17   A    
C48   H1    S    
C25   H5    S    
C22   H23   S    
C39   C42   A    
C45   C47   A    
C1    O1    A    
C15   C20   A    
Cu1   Cu2   S    
Cu2   O4    S    
Cu1   O3    S    
C41   H13   S    
C10   C24   A    
C3    C45   A    
C8    C18   A    
C31   N2    A    
C5    H12   S    
C29   C30   A    
C25   C38   A    
C47   C48   A    
C38   H2    S    
C4    C39   S    
C17   C18   A    
C28   O8    A    
C34   C45   A    
C32   C37   A    
C36   C46   S    
C15   C24   A    
C6    C40   A    
Cu2   O8    S    
C2    C5    A    
C12   C34   A    
Cu1   N1    S    
C47   H16   S    
C46   H22   S    
C1    O2    A    
C34   C49   A    
C26   N2    A    
C23   C48   A    
C35   H4    S    
C14   C15   A    
C8    C44   S    
C39   C43   A    
C10   H27   S    
C4    O4    A    
C23   C41   A    
C32   C33   A    
C6    H10   S    
Cu2   O2    S    
C2    C3    A    
Cu1   O5    S    
C30   C32   A    
C11   C13   A    
C9    C21   A    
C30   C31   A    
C33   C35   A    
C44   H20   S    
C28   O7    A    
C17   C21   A    
C10   C11   A    
C1    C24   S    
C43   H15   S    
C49   C50   A    
C42   H14   S    
C31   C36   A    
C37   N1    A    
C46   H21   S    
C25   C33   A    
