data_mof_unit_10063.cif
_audit_creation_date              2012-12-11T20:51:00-0500
_audit_creation_method            fapswitch 2.2
_symmetry_space_group_name_H-M    P1
_symmetry_Int_Tables_number       1
_space_group_crystal_system       triclinic
_cell_length_a                    30.68598
_cell_length_b                    33.929305
_cell_length_c                    8.407261
_cell_angle_alpha                 90.0
_cell_angle_beta                  90.168039
_cell_angle_gamma                 89.998456
_cell_volume                      8753.21555725

loop_
_atom_site_label
_atom_site_type_symbol
_atom_type_description
_atom_site_fract_x
_atom_site_fract_y
_atom_site_fract_z
_atom_type_partial_charge
Ba1   Ba    Ba6+2 0.999930 0.472870 0.844940 1.662432
Ba2   Ba    Ba6+2 0.999930 0.527130 0.344940 1.662674
Ba3   Ba    Ba6+2 0.499930 0.972870 0.844940 1.662763
Ba4   Ba    Ba6+2 0.499930 0.027130 0.344940 1.662771
C1    C     C_3   0.038511 0.292220 0.608845 -0.209971
C2    C     C_3   0.038371 0.707852 0.108315 -0.210967
C3    C     C_3   0.538296 0.792097 0.607967 -0.211938
C4    C     C_3   0.538321 0.207883 0.108037 -0.211630
C5    C     C_R   0.242492 0.695145 0.088554 -0.009418
C6    C     C_R   0.242467 0.304842 0.588591 -0.009387
C7    C     C_R   0.742419 0.195171 0.088940 -0.009390
C8    C     C_R   0.742470 0.804855 0.588745 -0.009390
C9    C     C_R   0.210715 0.667207 0.042008 0.600188
C10   C     C_R   0.210699 0.332783 0.542018 0.600065
C11   C     C_R   0.710660 0.167229 0.042296 0.600145
C12   C     C_R   0.710699 0.832794 0.542152 0.600110
C13   C     C_R   0.164372 0.719119 0.946547 0.577701
C14   C     C_R   0.164303 0.280871 0.446905 0.577651
C15   C     C_R   0.664359 0.219132 0.946455 0.577669
C16   C     C_R   0.664400 0.780886 0.446358 0.577731
C17   C     C_R   0.196699 0.747897 0.982809 -0.087718
C18   C     C_R   0.196631 0.252088 0.483118 -0.087826
C19   C     C_R   0.696687 0.247908 0.982725 -0.087754
C20   C     C_R   0.696729 0.752112 0.482641 -0.087719
C21   C     C_R   0.235367 0.735634 0.059745 -0.094800
C22   C     C_R   0.235320 0.264350 0.559910 -0.094758
C23   C     C_R   0.735317 0.235655 0.059933 -0.094774
C24   C     C_R   0.735367 0.764369 0.559780 -0.094805
C25   C     C_R   0.281349 0.683373 0.164045 -0.073542
C26   C     C_R   0.281339 0.316612 0.663975 -0.073590
C27   C     C_R   0.781235 0.183409 0.164725 -0.073569
C28   C     C_R   0.781298 0.816621 0.664439 -0.073577
C29   C     C_R   0.812104 0.211172 0.213051 -0.078533
C30   C     C_R   0.812181 0.788861 0.712697 -0.078568
C31   C     C_R   0.312239 0.711130 0.212260 -0.078574
C32   C     C_R   0.312223 0.288853 0.712213 -0.078584
C33   C     C_R   0.805386 0.251699 0.186561 0.000233
C34   C     C_R   0.805460 0.748332 0.686258 0.000197
C35   C     C_R   0.305496 0.751662 0.185984 0.000168
C36   C     C_R   0.305463 0.248319 0.686045 0.000169
C37   C     C_R   0.767030 0.263951 0.109212 -0.059061
C38   C     C_R   0.767087 0.736076 0.609032 -0.059072
C39   C     C_R   0.267094 0.763925 0.108954 -0.059067
C40   C     C_R   0.267048 0.236057 0.609110 -0.059068
C41   C     C_R   0.191125 0.788900 0.950525 0.397416
C42   C     C_R   0.191039 0.211083 0.450925 0.397423
C43   C     C_R   0.691144 0.288903 0.950191 0.397504
C44   C     C_R   0.691178 0.711115 0.450184 0.397457
C45   C     C_3   0.996260 0.320865 0.061846 0.345725
C46   C     C_3   0.996357 0.679216 0.561638 0.345777
C47   C     C_3   0.496392 0.820732 0.061465 0.345865
C48   C     C_3   0.496385 0.179259 0.561522 0.345813
C49   C     C_R   0.721735 0.316323 0.005395 -0.050917
C50   C     C_R   0.721771 0.683697 0.505389 -0.050988
C51   C     C_R   0.221729 0.816314 0.005673 -0.050951
C52   C     C_R   0.221651 0.183668 0.506038 -0.050897
C53   C     C_R   0.759989 0.304420 0.083900 -0.099773
C54   C     C_R   0.760037 0.695604 0.583805 -0.099745
C55   C     C_R   0.260025 0.804400 0.083880 -0.099763
C56   C     C_R   0.259965 0.195581 0.584126 -0.099788
C57   C     C_R   0.791473 0.332250 0.135915 0.604202
C58   C     C_R   0.791520 0.667776 0.635825 0.604132
C59   C     C_R   0.291517 0.832225 0.135853 0.604092
C60   C     C_R   0.291465 0.167754 0.636058 0.604101
C61   C     C_R   0.836432 0.280015 0.235770 0.573931
C62   C     C_R   0.836517 0.720016 0.735400 0.573993
C63   C     C_R   0.336558 0.779976 0.235103 0.574031
C64   C     C_R   0.336522 0.220005 0.735183 0.574032
C65   C     C_2   0.113474 0.651980 0.794548 -0.042669
C66   C     C_2   0.113480 0.348016 0.294565 -0.043164
C67   C     C_2   0.613457 0.151986 0.794571 -0.042975
C68   C     C_2   0.613470 0.848021 0.294535 -0.043066
C69   C     C_3   0.072920 0.631278 0.779238 -0.057902
C70   C     C_3   0.072941 0.368739 0.279176 -0.057055
C71   C     C_3   0.572899 0.131289 0.779255 -0.058131
C72   C     C_3   0.572899 0.868702 0.279266 -0.058174
C73   C     C_1   0.095697 0.589062 0.004480 0.021098
C74   C     C_1   0.095695 0.410945 0.504459 0.020799
C75   C     C_1   0.595679 0.089066 0.004488 0.021074
C76   C     C_1   0.595680 0.910932 0.504489 0.021084
C77   C     C_2   0.125890 0.617371 0.050109 -0.125435
C78   C     C_2   0.125877 0.382632 0.550135 -0.125738
C79   C     C_2   0.625859 0.117383 0.050152 -0.125314
C80   C     C_2   0.625879 0.882626 0.550106 -0.125253
C81   C     C_2   0.137681 0.649965 0.937408 0.189529
C82   C     C_2   0.137668 0.350034 0.437462 0.189619
C83   C     C_2   0.637653 0.149978 0.937458 0.189390
C84   C     C_2   0.637678 0.850035 0.437392 0.189372
C85   C     C_R   0.884963 0.346450 0.391820 -0.113754
C86   C     C_R   0.885011 0.653583 0.891663 -0.113706
C87   C     C_R   0.385030 0.846398 0.391560 -0.113675
C88   C     C_R   0.385000 0.153585 0.891640 -0.113643
C89   C     C_3   0.985440 0.278433 0.015336 -0.251263
C90   C     C_3   0.985572 0.721630 0.514709 -0.250862
C91   C     C_3   0.485636 0.778327 0.014301 -0.250529
C92   C     C_3   0.485609 0.221661 0.514367 -0.250678
C93   C     C_R   0.918654 0.375347 0.436530 -0.043929
C94   C     C_R   0.918678 0.624668 0.936449 -0.044215
C95   C     C_R   0.418689 0.875320 0.436389 -0.044403
C96   C     C_R   0.418671 0.124671 0.936432 -0.044356
C97   C     C_R   0.904940 0.411304 0.190996 0.052670
C98   C     C_R   0.904955 0.588700 0.690953 0.052722
C99   C     C_R   0.404958 0.911299 0.190925 0.052751
C100  C     C_R   0.404943 0.088696 0.690952 0.052763
C101  C     C_R   0.874515 0.381613 0.147519 -0.107066
C102  C     C_R   0.874550 0.618401 0.647416 -0.107016
C103  C     C_R   0.374553 0.881601 0.147368 -0.106993
C104  C     C_R   0.374520 0.118384 0.647443 -0.106976
C105  C     C_R   0.864146 0.349126 0.249609 0.188495
C106  C     C_R   0.864198 0.650900 0.749448 0.188646
C107  C     C_R   0.364212 0.849093 0.249354 0.188785
C108  C     C_R   0.364174 0.150888 0.749452 0.188789
C109  C     C_2   0.069603 0.595830 0.872490 -0.222352
C110  C     C_2   0.069617 0.404187 0.372424 -0.223565
C111  C     C_2   0.569583 0.095839 0.872506 -0.222765
C112  C     C_2   0.569564 0.904143 0.372568 -0.222902
C113  C     C_3   0.133812 0.480737 0.211958 0.657518
C114  C     C_3   0.133899 0.519184 0.712407 0.656788
C115  C     C_3   0.633858 0.980791 0.212253 0.656990
C116  C     C_3   0.633870 0.019201 0.712285 0.656947
C117  C     C_3   0.178942 0.471056 0.276813 -0.204596
C118  C     C_3   0.179048 0.528617 0.777677 -0.203836
C119  C     C_3   0.679007 0.971178 0.276999 -0.204237
C120  C     C_3   0.679013 0.028753 0.777249 -0.204067
C121  C     C_3   0.866353 0.524941 0.047684 0.292608
C122  C     C_3   0.866347 0.475058 0.547841 0.292513
C123  C     C_3   0.366348 0.024937 0.047710 0.292587
C124  C     C_3   0.366353 0.975066 0.547611 0.292630
C125  C     C_3   0.823591 0.544623 0.098227 -0.214599
C126  C     C_3   0.823602 0.455385 0.598616 -0.214553
C127  C     C_3   0.323587 0.044618 0.098277 -0.214626
C128  C     C_3   0.323582 0.955383 0.598029 -0.214637
C129  C     C_3   0.014736 0.331550 0.593090 0.364228
C130  C     C_3   0.014602 0.668532 0.092316 0.364609
C131  C     C_3   0.514525 0.831415 0.591878 0.364813
C132  C     C_3   0.514544 0.168568 0.091964 0.364752
C133  C     C_R   0.927415 0.407977 0.327033 -0.290329
C134  C     C_R   0.927426 0.592026 0.826999 -0.290335
C135  C     C_R   0.427432 0.907966 0.326960 -0.290337
C136  C     C_R   0.427423 0.092031 0.826975 -0.290360
H1    H     H_    0.035315 0.354226 0.652217 0.055648
H2    H     H_    0.035307 0.645799 0.150537 0.054579
H3    H     H_    0.535296 0.854173 0.649585 0.054117
H4    H     H_    0.535291 0.145815 0.149823 0.054248
H5    H     H_    0.191664 0.496371 0.346676 0.087795
H6    H     H_    0.191613 0.503183 0.847207 0.087462
H7    H     H_    0.691721 0.996533 0.346601 0.087470
H8    H     H_    0.691667 0.003375 0.846868 0.087451
H9    H     H_    0.177347 0.444750 0.355199 0.088243
H10   H     H_    0.177553 0.554855 0.856456 0.088779
H11   H     H_    0.677460 0.944911 0.355594 0.088443
H12   H     H_    0.677479 0.055015 0.855871 0.088495
H13   H     H_    0.201726 0.464826 0.177462 0.110244
H14   H     H_    0.201905 0.534847 0.678552 0.110303
H15   H     H_    0.701766 0.964923 0.177616 0.110279
H16   H     H_    0.701814 0.034991 0.677977 0.110290
H17   H     H_    0.871216 0.528486 0.917749 0.000764
H18   H     H_    0.871180 0.471476 0.417907 0.000853
H19   H     H_    0.371208 0.028488 0.917775 0.000857
H20   H     H_    0.371234 0.971537 0.417678 0.000808
H21   H     H_    0.894011 0.538235 0.114058 0.060612
H22   H     H_    0.894025 0.461784 0.614176 0.060649
H23   H     H_    0.394008 0.038230 0.114080 0.060573
H24   H     H_    0.394001 0.961759 0.614010 0.060568
H25   H     H_    0.795771 0.528256 0.044647 0.146145
H26   H     H_    0.795765 0.471744 0.545115 0.146180
H27   H     H_    0.295766 0.028251 0.044710 0.146171
H28   H     H_    0.295772 0.971753 0.544394 0.146138
H29   H     H_    0.820458 0.542872 0.229823 0.138313
H30   H     H_    0.820512 0.457157 0.730221 0.138280
H31   H     H_    0.320460 0.042866 0.229875 0.138238
H32   H     H_    0.320425 0.957126 0.729618 0.138277
H33   H     H_    0.011083 0.338711 0.464919 -0.073149
H34   H     H_    0.010743 0.661530 0.964050 -0.073590
H35   H     H_    0.510547 0.838335 0.463597 -0.073608
H36   H     H_    0.510601 0.161624 0.963695 -0.073582
H37   H     H_    0.072455 0.296361 0.568688 0.129753
H38   H     H_    0.072135 0.703844 0.065958 0.130372
H39   H     H_    0.571945 0.796022 0.564515 0.130897
H40   H     H_    0.572010 0.203924 0.065038 0.130707
H41   H     H_    0.715950 0.347261 0.981189 0.149385
H42   H     H_    0.715978 0.652756 0.481253 0.149394
H43   H     H_    0.215918 0.847259 0.981670 0.149409
H44   H     H_    0.215829 0.152722 0.482098 0.149404
H45   H     H_    0.841384 0.200684 0.271598 0.123039
H46   H     H_    0.841471 0.799352 0.771166 0.123005
H47   H     H_    0.341552 0.700634 0.270571 0.122991
H48   H     H_    0.341547 0.299347 0.770442 0.122991
H49   H     H_    0.876165 0.324286 0.478338 0.129898
H50   H     H_    0.876226 0.675769 0.978115 0.129707
H51   H     H_    0.376257 0.824197 0.477962 0.129577
H52   H     H_    0.376225 0.175785 0.978049 0.129581
H53   H     H_    0.287910 0.652540 0.187479 0.124701
H54   H     H_    0.287914 0.347447 0.687310 0.124684
H55   H     H_    0.787777 0.152580 0.188316 0.124707
H56   H     H_    0.787841 0.847452 0.688001 0.124688
H57   H     H_    0.140213 0.616354 0.168158 0.138703
H58   H     H_    0.140199 0.383651 0.668183 0.138672
H59   H     H_    0.640161 0.116376 0.168236 0.138740
H60   H     H_    0.640187 0.883633 0.668181 0.138671
H61   H     H_    0.122309 0.673320 0.704016 0.107207
H62   H     H_    0.122304 0.326651 0.204114 0.106989
H63   H     H_    0.622302 0.173316 0.704010 0.107315
H64   H     H_    0.622316 0.826693 0.203965 0.107355
H65   H     H_    0.857942 0.384598 0.034473 0.133956
H66   H     H_    0.857976 0.615413 0.534373 0.133972
H67   H     H_    0.357970 0.884598 0.034344 0.133931
H68   H     H_    0.357927 0.115386 0.534439 0.133832
H69   H     H_    0.950056 0.430732 0.363203 0.079048
H70   H     H_    0.950052 0.569261 0.863214 0.079015
H71   H     H_    0.450055 0.930730 0.363186 0.078958
H72   H     H_    0.450060 0.069274 0.863168 0.078979
H73   H     H_    0.040247 0.282988 0.734998 0.136141
H74   H     H_    0.040649 0.716761 0.234799 0.136278
H75   H     H_    0.540855 0.783349 0.734498 0.136434
H76   H     H_    0.540770 0.216691 0.234533 0.136384
H77   H     H_    0.040470 0.578078 0.857191 0.060933
H78   H     H_    0.040477 0.421934 0.357131 0.061006
H79   H     H_    0.540447 0.078093 0.857228 0.060919
H80   H     H_    0.540403 0.921865 0.357394 0.060912
H81   H     H_    0.968824 0.340565 0.027279 0.064809
H82   H     H_    0.968887 0.659516 0.527418 0.064559
H83   H     H_    0.468903 0.840431 0.027419 0.064443
H84   H     H_    0.468902 0.159554 0.527501 0.064429
H85   H     H_    0.000810 0.321907 0.193047 -0.060148
H86   H     H_    0.000953 0.678273 0.692827 -0.059765
H87   H     H_    0.501008 0.821621 0.192645 -0.059643
H88   H     H_    0.501009 0.178370 0.692696 -0.059631
H89   H     H_    0.979626 0.276453 0.885507 0.159015
H90   H     H_    0.979866 0.723561 0.384812 0.159145
H91   H     H_    0.480011 0.776421 0.884351 0.159233
H92   H     H_    0.479950 0.223561 0.384445 0.159255
H93   H     H_    0.013236 0.258901 0.047006 0.129724
H94   H     H_    0.013345 0.741170 0.546527 0.129708
H95   H     H_    0.513397 0.758780 0.046263 0.129675
H96   H     H_    0.513368 0.241214 0.546230 0.129688
H97   H     H_    0.112153 0.486371 0.314549 -0.002697
H98   H     H_    0.112161 0.513535 0.814741 -0.001401
H99   H     H_    0.612232 0.986474 0.314855 -0.001724
H100  H     H_    0.612199 0.013538 0.814771 -0.001692
N1    N     N_R   0.171562 0.679176 0.975014 -0.424530
N2    N     N_R   0.171531 0.320816 0.475153 -0.424537
N3    N     N_R   0.671531 0.179192 0.975088 -0.424504
N4    N     N_R   0.671566 0.820827 0.474983 -0.424510
N5    N     N_R   0.830401 0.320099 0.205751 -0.418563
N6    N     N_R   0.830463 0.679929 0.705538 -0.418568
N7    N     N_R   0.330480 0.820066 0.205412 -0.418564
N8    N     N_R   0.330437 0.179914 0.705538 -0.418568
O1    O     O_2   0.914200 0.445720 0.903420 -0.463157
O2    O     O_2   0.914200 0.554280 0.403420 -0.463038
O3    O     O_2   0.414200 0.945720 0.903420 -0.463027
O4    O     O_2   0.414200 0.054280 0.403420 -0.463092
O5    O     O_3   0.137328 0.486808 0.610007 -0.653508
O6    O     O_3   0.137347 0.513219 0.110185 -0.653264
O7    O     O_3   0.637338 0.986793 0.610089 -0.653439
O8    O     O_3   0.637338 0.013204 0.110098 -0.653384
O9    O     O_3   0.034222 0.332229 0.981172 -0.604984
O10   O     O_3   0.034282 0.667753 0.480942 -0.604650
O11   O     O_3   0.534299 0.832248 0.980779 -0.604496
O12   O     O_3   0.534291 0.167752 0.480808 -0.604524
O13   O     O_3   0.049930 0.518940 0.045960 -0.505054
O14   O     O_3   0.049930 0.481060 0.545960 -0.505091
O15   O     O_3   0.549930 0.018940 0.045960 -0.505037
O16   O     O_3   0.549930 0.981060 0.545960 -0.505093
O17   O     O_2   0.218145 0.632111 0.060292 -0.596111
O18   O     O_2   0.218147 0.367881 0.560169 -0.596176
O19   O     O_2   0.718084 0.132134 0.060689 -0.596162
O20   O     O_2   0.718116 0.867890 0.560550 -0.596188
O21   O     O_2   0.129231 0.729821 0.894004 -0.600596
O22   O     O_2   0.129129 0.270176 0.394630 -0.600619
O23   O     O_2   0.629233 0.229836 0.893774 -0.600578
O24   O     O_2   0.629277 0.770178 0.393666 -0.600517
O25   O     O_2   0.783638 0.367378 0.121618 -0.600285
O26   O     O_2   0.783674 0.632647 0.621641 -0.600310
O27   O     O_2   0.283663 0.867355 0.121763 -0.600322
O28   O     O_2   0.283610 0.132624 0.622003 -0.600306
O29   O     O_2   0.868951 0.268648 0.305758 -0.625890
O30   O     O_2   0.869067 0.731384 0.805186 -0.625961
O31   O     O_2   0.369134 0.768604 0.304719 -0.626025
O32   O     O_2   0.369100 0.231375 0.804782 -0.625994
O33   O     O_3   0.950020 0.480960 0.143730 -0.493911
O34   O     O_3   0.950020 0.519040 0.643730 -0.493903
O35   O     O_3   0.450020 0.980960 0.143730 -0.493939
O36   O     O_3   0.450020 0.019040 0.643730 -0.493900
O37   O     O_3   0.985090 0.412220 0.642040 -0.487551
O38   O     O_3   0.985090 0.587780 0.142040 -0.487384
O39   O     O_3   0.485090 0.912220 0.642040 -0.487236
O40   O     O_3   0.485090 0.087780 0.142040 -0.487284
O41   O     O_2   0.914920 0.378802 0.770663 -0.492347
O42   O     O_2   0.914883 0.621166 0.270573 -0.492285
O43   O     O_2   0.414865 0.878850 0.770515 -0.492255
O44   O     O_2   0.414879 0.121162 0.270568 -0.492247
O45   O     O_3   0.861209 0.485007 0.082654 -0.638900
O46   O     O_3   0.861203 0.515002 0.582625 -0.638905
O47   O     O_3   0.361205 0.985002 0.082659 -0.638915
O48   O     O_3   0.361210 0.014995 0.582673 -0.638932
O49   O     O_3   0.973817 0.329679 0.667038 -0.595911
O50   O     O_3   0.973806 0.670289 0.167242 -0.595637
O51   O     O_3   0.473805 0.829726 0.667345 -0.595508
O52   O     O_3   0.473802 0.170281 0.167258 -0.595549
O53   O     O_2   0.085560 0.445380 0.786390 -0.445324
O54   O     O_2   0.085560 0.554620 0.286390 -0.446023
O55   O     O_2   0.585560 0.945380 0.786390 -0.445485
O56   O     O_2   0.585560 0.054620 0.286390 -0.445698
O57   O     O_3   0.014550 0.412170 0.047860 -0.486777
O58   O     O_3   0.014550 0.587830 0.547860 -0.486626
O59   O     O_3   0.514550 0.912170 0.047860 -0.486544
O60   O     O_3   0.514550 0.087830 0.547860 -0.486574
O61   O     O_2   0.093077 0.386060 0.959153 -0.430650
O62   O     O_2   0.093108 0.613886 0.459371 -0.430754
O63   O     O_2   0.593113 0.886125 0.959478 -0.430355
O64   O     O_2   0.593111 0.113877 0.459449 -0.430480
P1    P     P_3+3 0.909970 0.458430 0.077330 0.994980
P2    P     P_3+3 0.909970 0.541570 0.577330 0.994999
P3    P     P_3+3 0.409970 0.958430 0.077330 0.994973
P4    P     P_3+3 0.409970 0.041570 0.577330 0.994976
P5    P     P_3+3 0.089830 0.458070 0.612460 0.977293
P6    P     P_3+3 0.089830 0.541930 0.112460 0.977605
P7    P     P_3+3 0.589830 0.958070 0.612460 0.977474
P8    P     P_3+3 0.589830 0.041930 0.112460 0.977526
P9    P     P_3+3 0.054286 0.375337 0.067698 0.980204
P10   P     P_3+3 0.054293 0.624653 0.567733 0.980454
P11   P     P_3+3 0.554284 0.875337 0.067739 0.980762
P12   P     P_3+3 0.554284 0.124661 0.567730 0.980641
P13   P     P_3+3 0.946848 0.625812 0.129973 0.948999
P14   P     P_3+3 0.946861 0.374176 0.629978 0.948796
P15   P     P_3+3 0.446842 0.125808 0.129964 0.949073
P16   P     P_3+3 0.446842 0.874194 0.629959 0.949090
C137  C     C_3   0.820039 0.587387 0.047303 -0.477895
H101  H     H_    0.787412 0.598987 0.079631 0.163083
H102  H     H_    0.844855 0.605233 0.110020 0.147147
H103  H     H_    0.823849 0.589721 0.916605 0.155883
C138  C     C_3   0.820036 0.412614 0.547804 -0.477946
H104  H     H_    0.787418 0.401021 0.580284 0.163066
H105  H     H_    0.823807 0.410261 0.417095 0.155833
H106  H     H_    0.844869 0.394775 0.610461 0.147221
C139  C     C_3   0.320033 0.087383 0.047358 -0.477885
H107  H     H_    0.287409 0.098984 0.079723 0.163075
H108  H     H_    0.344855 0.105229 0.110046 0.147130
H109  H     H_    0.323833 0.089717 0.916655 0.155931
C140  C     C_3   0.320041 0.912621 0.547058 -0.477860
H110  H     H_    0.287410 0.901020 0.579301 0.163090
H111  H     H_    0.323873 0.910295 0.416367 0.155909
H112  H     H_    0.344848 0.894771 0.609810 0.147115
C141  C     C_3   0.017138 0.259872 0.509654 -0.354581
H113  H     H_    0.982482 0.256033 0.544217 0.147290
H114  H     H_    0.019058 0.267344 0.381340 0.129443
H115  H     H_    0.034585 0.231615 0.529358 0.158454
C142  C     C_3   0.016518 0.740432 0.011660 -0.354164
H116  H     H_    0.982030 0.744207 0.048619 0.147722
H117  H     H_    0.034063 0.768640 0.031304 0.157654
H118  H     H_    0.017816 0.733244 0.882922 0.128755
C143  C     C_3   0.516228 0.759427 0.512666 -0.354525
H119  H     H_    0.481860 0.755693 0.550849 0.148056
H120  H     H_    0.517199 0.766480 0.383863 0.128571
H121  H     H_    0.533827 0.731241 0.532158 0.157363
C144  C     C_3   0.516350 0.240521 0.012235 -0.354465
H122  H     H_    0.481939 0.244277 0.049919 0.147922
H123  H     H_    0.533935 0.268712 0.031804 0.157493
H124  H     H_    0.517448 0.233420 0.883472 0.128689
C145  C     C_3   0.944713 0.263991 0.098551 -0.426555
H125  H     H_    0.916557 0.282364 0.061083 0.159179
H126  H     H_    0.938161 0.232895 0.064991 0.150770
H127  H     H_    0.949143 0.265686 0.229438 0.175109
C146  C     C_3   0.944775 0.736118 0.597384 -0.426953
H128  H     H_    0.916640 0.717731 0.559849 0.159158
H129  H     H_    0.949111 0.734500 0.728319 0.175367
H130  H     H_    0.938248 0.767196 0.563476 0.150595
C147  C     C_3   0.444789 0.763815 0.096599 -0.427136
H131  H     H_    0.416656 0.782195 0.058894 0.159126
H132  H     H_    0.438304 0.732738 0.062572 0.150485
H133  H     H_    0.449042 0.765416 0.227574 0.175613
C148  C     C_3   0.444780 0.236167 0.596772 -0.427109
H134  H     H_    0.416657 0.217763 0.559222 0.159190
H135  H     H_    0.449072 0.234593 0.727725 0.175523
H136  H     H_    0.438259 0.267233 0.562672 0.150504
O65   O     O_3   0.156595 0.803519 0.863836 -0.686890
H137  H     H_    0.153961 0.787117 0.766730 0.331389
O66   O     O_3   0.156493 0.196463 0.364315 -0.687052
H138  H     H_    0.153818 0.212877 0.267267 0.331379
O67   O     O_3   0.656669 0.303505 0.863161 -0.686890
H139  H     H_    0.654053 0.287052 0.766198 0.331412
O68   O     O_3   0.656685 0.696508 0.363252 -0.686810
H140  H     H_    0.654088 0.712927 0.266185 0.331377
O69   O     O_3   0.118787 0.448545 0.125360 -0.730839
H141  H     H_    0.087704 0.454101 0.102689 0.313854
O70   O     O_3   0.119052 0.551541 0.626409 -0.731806
H142  H     H_    0.088112 0.545902 0.601681 0.314700
O71   O     O_3   0.618821 0.948533 0.126145 -0.731596
H143  H     H_    0.587836 0.954130 0.102775 0.314326
O72   O     O_3   0.618909 0.051486 0.626163 -0.731594
H144  H     H_    0.587930 0.045884 0.602415 0.314387

loop_
_geom_bond_atom_site_label_1
_geom_bond_atom_site_label_2
_ccdc_geom_bond_type
C144  H122  S    
C51   C55   A    
C28   H56   S    
Ba1   O53   S    
C38   C54   A    
C139  H107  S    
C70   P9    S    
C138  H104  S    
C127  H31   S    
O57   P9    S    
C94   C134  S    
C110  H78   S    
C78   H58   S    
C114  H98   S    
C70   C110  A    
Ba4   O35   S    
Ba3   O55   S    
C30   H46   S    
C5    C9    A    
C61   N5    Am   
C7    C11   A    
C8    C12   A    
C47   H83   S    
Ba1   P5    S    
C66   C70   A    
Ba2   P2    S    
Ba3   P7    S    
C103  H67   S    
C15   N3    Am   
C43   C49   A    
C147  H133  S    
O36   P4    S    
C113  H97   S    
C97   C101  A    
Ba4   P4    S    
C73   C109  A    
C143  H120  S    
Ba2   O33   S    
C145  H127  S    
Ba4   O4    S    
C13   O21   D    
C148  H136  S    
C97   C133  D    
C90   H94   S    
C118  H6    S    
C15   O23   D    
C52   H44   S    
C87   H51   S    
C13   C17   A    
C100  C136  D    
C32   H48   S    
C28   C30   A    
C127  C139  S    
C15   C19   A    
C145  H126  S    
C4    H40   S    
C63   N7    Am   
C7    C23   A    
C82   N2    S    
C1    H73   S    
Ba2   O54   S    
C141  H115  S    
O34   P2    S    
C115  O71   S    
O41   P14   D    
C59   O27   D    
O39   P16   S    
O43   P16   D    
C48   H84   S    
C144  H124  S    
O67   H139  S    
C100  P4    S    
C46   H86   S    
C71   C111  A    
O68   H140  S    
C139  H109  S    
C123  O47   S    
C62   N6    Am   
C138  H106  S    
C124  O48   S    
C46   H82   S    
C130  H34   S    
C89   C145  S    
C80   C84   S    
C4    H76   S    
C102  H66   S    
O63   P11   D    
C53   C57   A    
C64   O32   D    
C115  C119  S    
C59   N7    Am   
C25   C31   A    
C55   C59   A    
C26   C32   A    
C56   C60   A    
C146  H128  S    
C27   H55   S    
Ba2   O14   S    
C25   H53   S    
C73   P6    S    
O53   P5    D    
C117  H9    S    
O13   P6    S    
C43   O67   S    
C60   O28   D    
C123  C127  S    
O15   P8    S    
C121  C125  S    
O4    P4    D    
C99   C103  A    
C128  H32   S    
C45   C89   S    
C129  H33   S    
C47   C91   S    
C122  O46   S    
C66   H62   S    
C132  H36   S    
O51   P16   S    
C75   C111  A    
C104  H68   S    
C2    C142  S    
C115  O8    S    
C21   C39   A    
C22   C40   A    
C98   P2    S    
C64   N8    Am   
C1    C129  S    
O54   P6    D    
Ba3   O3    S    
C49   H41   S    
Ba1   O1    S    
C42   O66   S    
O2    P2    D    
C48   O12   S    
C124  H24   S    
C99   P3    S    
O52   P15   S    
C58   O26   D    
C10   N2    Am   
C45   O9    S    
C127  H27   S    
C33   C61   A    
C112  H80   S    
Ba4   P8    S    
O60   P12   S    
C39   C55   A    
C131  H3    S    
C105  N5    S    
C137  H102  S    
C95   C135  S    
C91   C147  S    
C130  O50   S    
C93   C133  S    
O40   P15   S    
C17   C41   A    
C140  H111  S    
C11   N3    Am   
C19   C43   A    
C20   C44   A    
C76   C112  A    
C6    C10   A    
C146  H130  S    
C46   C90   S    
C46   O10   S    
Ba1   O57   S    
C134  H70   S    
O50   P13   S    
Ba2   P6    S    
Ba3   P3    S    
C114  O5    S    
C131  O51   S    
C60   N8    Am   
Ba4   O16   S    
O58   P10   S    
Ba4   O60   S    
C12   N4    Am   
Ba3   O36   S    
C142  H118  S    
C18   C22   A    
Ba1   O13   S    
C6    C26   A    
C63   O31   D    
Ba3   Ba4   S    
C14   O22   D    
O38   P13   S    
C65   C81   A    
C90   H90   S    
C86   H50   S    
C101  C105  A    
C129  O49   S    
C114  O70   S    
C45   H81   S    
C14   C18   A    
C103  C107  A    
O11   P11   S    
C20   C24   A    
O5    P5    S    
C116  O7    S    
O35   P3    S    
C85   H49   S    
C115  H99   S    
C75   P8    S    
C33   C37   A    
C76   P7    S    
O16   P7    S    
C13   N1    Am   
Ba1   O14   S    
C36   C40   A    
C41   C51   A    
C107  N7    S    
Ba3   O16   S    
C42   C52   A    
C126  H30   S    
C87   C95   S    
C45   H85   S    
O45   P1    S    
C147  H132  S    
C54   C58   A    
C79   C83   S    
O48   P4    S    
C4    C132  S    
C76   C80   A    
Ba1   O37   S    
C143  H119  S    
C5    C21   A    
O66   H138  S    
C126  C138  S    
C119  H15   S    
C69   P10   S    
Ba3   O39   S    
C120  H8    S    
C124  H20   S    
C142  H116  S    
C74   P5    S    
C117  H13   S    
C8    C24   A    
C118  H10   S    
O14   P5    S    
C91   H91   S    
C147  H131  S    
C11   O19   D    
C148  H135  S    
C77   H57   S    
C121  H17   S    
C58   N6    Am   
C122  C126  S    
C96   P15   S    
C69   C109  A    
Ba4   O56   S    
O6    P6    S    
C17   C21   A    
C48   H88   S    
C65   C69   A    
C141  H114  S    
C90   C146  S    
O44   P15   D    
C68   H64   S    
C116  O72   S    
C14   N2    Am   
C144  H123  S    
C2    H38   S    
C74   C110  A    
C139  H108  S    
C138  H105  S    
C119  H11   S    
O12   P12   S    
C49   C53   A    
C88   C108  D    
C89   H93   S    
O64   P12   D    
C29   C33   A    
C104  C108  A    
C133  H69   S    
C31   C35   A    
C130  H2    S    
C126  H26   S    
C2    H74   S    
C73   C77   A    
C81   N1    S    
O42   P13   D    
C116  H100  S    
C67   C83   A    
C18   C42   A    
C47   H87   S    
C100  C104  A    
C143  H121  S    
C136  H72   S    
O69   H141  S    
C145  H125  S    
C16   N4    Am   
C47   O11   S    
O70   H142  S    
C123  H23   S    
C128  C140  S    
Ba2   O58   S    
C121  H21   S    
C9    O17   D    
C84   N4    S    
C101  H65   S    
O62   P10   D    
C72   P11   S    
C113  O69   S    
C129  H1    S    
C125  H25   S    
Ba2   O2    S    
C37   C53   A    
C132  H4    S    
C78   C82   S    
C75   C79   A    
C26   H54   S    
C40   C56   A    
C114  C118  S    
C52   C56   A    
C31   H47   S    
C36   C64   A    
C51   H43   S    
C29   H45   S    
C93   P14   S    
C3    H75   S    
C88   H52   S    
C95   P16   S    
C67   C71   A    
C65   H61   S    
Ba1   P1    S    
C137  H101  S    
C68   C72   A    
C125  C137  S    
O72   H144  S    
C140  H110  S    
C80   H60   S    
C44   C50   A    
Ba4   O40   S    
C125  H29   S    
C34   C38   A    
C146  H129  S    
O55   P7    D    
Ba1   O34   S    
O56   P8    D    
Ba2   O13   S    
C57   N5    Am   
C85   C105  D    
Ba1   Ba2   S    
C98   C134  D    
C87   C107  D    
O33   P1    S    
C74   C78   A    
C113  C117  S    
C96   C136  S    
O46   P2    S    
C116  C120  S    
C9    N1    Am   
C16   C20   A    
O9    P9    S    
C50   H42   S    
C48   C92   S    
C19   C23   A    
C3    C143  S    
C16   O24   D    
C5    C25   A    
Ba2   O38   S    
C6    C22   A    
C120  H12   S    
C7    C27   A    
C142  H117  S    
C8    C28   A    
C44   O68   S    
C118  H14   S    
C111  H79   S    
C91   H95   S    
C124  C128  S    
C109  H77   S    
C68   C84   A    
C122  H18   S    
O3    P3    D    
C34   C62   A    
C32   C36   A    
C35   C39   A    
C94   P13   S    
C135  H71   S    
C1    C141  S    
C85   C93   S    
C131  H35   S    
C3    C131  S    
C99   C135  D    
C113  O6    S    
C23   C37   A    
C83   N3    S    
O47   P3    S    
C71   P12   S    
C27   C29   A    
C92   H96   S    
C3    H39   S    
O59   P11   S    
C1    H37   S    
O65   H137  S    
C12   O20   D    
C67   H63   S    
C97   P1    S    
C57   O25   D    
C119  H7    S    
Ba3   O15   S    
C120  H16   S    
C137  H103  S    
C117  H5    S    
C86   C106  D    
C79   H59   S    
C66   C82   A    
C123  H19   S    
O61   P9    D    
C88   C96   S    
O37   P14   S    
C50   C54   A    
C140  H112  S    
C89   H89   S    
C108  N8    S    
C30   C34   A    
C35   C63   A    
C128  H28   S    
O10   P10   S    
C121  O45   S    
C4    C144  S    
C41   O65   S    
C2    C130  S    
C148  H134  S    
C61   O29   D    
C106  N6    S    
O71   H143  S    
Ba4   O15   S    
C24   C38   A    
C72   C112  A    
C62   O30   D    
C92   H92   S    
C77   C81   S    
O1    P1    D    
C132  O52   S    
C92   C148  S    
C102  C106  A    
C98   C102  A    
Ba3   O59   S    
C141  H113  S    
C122  H22   S    
C86   C94   S    
O7    P7    S    
C10   O18   D    
O49   P14   S    
O8    P8    S    
