data_mof_unit_39528.cif
_audit_creation_date              2013-03-05T16:03:25-0500
_audit_creation_method            fapswitch 2.2
_symmetry_space_group_name_H-M    P1
_symmetry_Int_Tables_number       1
_space_group_crystal_system       triclinic
_cell_length_a                    6.948028
_cell_length_b                    18.272988
_cell_length_c                    20.240018
_cell_angle_alpha                 68.630146
_cell_angle_beta                  91.258014
_cell_angle_gamma                 90.644628
_cell_volume                      2392.43353372

loop_
_atom_site_label
_atom_site_type_symbol
_atom_site_description
_atom_site_fract_x
_atom_site_fract_y
_atom_site_fract_z
_atom_type_partial_charge
O1    O     O_R   0.488960 0.443750 0.941980 -0.561428
O2    O     O_R   0.823890 0.406510 0.087590 -0.559002
O3    O     O_R   0.999680 0.556250 0.058020 -0.548918
C1    C     C_R   0.657133 0.386325 0.117109 0.958093
O4    O     O_R   0.818360 0.434410 0.944340 -0.564632
O5    O     O_R   0.994110 0.584350 0.913750 -0.573684
C2    C     C_R   0.648471 0.419877 0.924333 1.000687
O6    O     O_R   0.494530 0.415650 0.086250 -0.590282
O7    O     O_3   0.662590 0.549160 0.990130 -0.288330
V1    V     V_3+5 0.935320 0.490880 0.001830 1.295570
O8    O     O_R   0.324180 0.593490 0.912410 -0.610436
C3    C     C_R   0.153568 0.616591 0.885270 0.964958
O9    O     O_R   0.329720 0.565590 0.055660 -0.603986
C4    C     C_R   0.162771 0.580912 0.075031 1.025538
V2    V     V_3+5 0.435990 0.509120 0.998170 1.245795
O10   O     O_3   0.158850 0.450840 0.009870 -0.247463
C5    C     C_3   0.028580 0.711302 0.305637 -0.109773
C6    C     C_3   0.217724 0.684291 0.282898 -0.091633
H1    H     H_    0.943541 0.677211 0.352819 0.169907
C7    C     C_1   0.159017 0.627152 0.120003 -0.195564
C8    C     C_1   0.107597 0.877387 0.375849 -0.046446
C9    C     C_3   0.955610 0.739358 0.226718 -0.049715
C10   C     C_3   0.145878 0.710941 0.205365 0.074772
C11   C     C_3   0.047283 0.822225 0.212237 -0.167679
C12   C     C_3   0.121095 0.793499 0.290583 0.018806
C13   C     C_3   0.235883 0.792274 0.191959 -0.104997
C14   C     C_3   0.308553 0.765099 0.269119 0.318389
C15   C     C_1   0.154729 0.665110 0.158283 0.060733
C16   C     C_1   0.112465 0.839530 0.337493 0.153399
H2    H     H_    0.978132 0.879630 0.182447 0.174053
H3    H     H_    0.809595 0.728197 0.208969 0.158013
H4    H     H_    0.427430 0.536308 0.701942 0.183111
C17   C     C_R   0.988288 0.765443 0.872014 -0.182371
C18   C     C_R   0.905789 0.836009 0.867941 -0.108994
C19   C     C_R   0.893088 0.898171 0.803330 -0.052878
C20   C     C_R   0.964773 0.890573 0.742434 -0.185793
C21   C     C_R   0.046451 0.818963 0.744321 0.111733
C22   C     C_R   0.057304 0.754960 0.810686 0.124153
C23   C     C_R   0.121265 0.811550 0.682075 -0.259168
C24   C     C_R   0.204979 0.738042 0.686821 -0.059260
C25   C     C_R   0.201109 0.672386 0.752789 -0.041348
C26   C     C_R   0.136921 0.682281 0.815153 -0.252463
C27   C     C_R   0.290107 0.725841 0.627961 0.352977
C28   C     C_R   0.391291 0.656782 0.637972 -0.206752
C29   C     C_R   0.373155 0.592409 0.700006 -0.261064
C30   C     C_R   0.259240 0.597132 0.754040 0.329279
H5    H     H_    0.996552 0.719360 0.923898 0.094375
H6    H     H_    0.852044 0.842556 0.915283 0.128193
H7    H     H_    0.828455 0.952839 0.800493 0.165381
H8    H     H_    0.955883 0.941961 0.694284 0.130502
H9    H     H_    0.461103 0.648824 0.593733 0.195613
H10   H     H_    0.598368 0.368776 0.425693 0.180682
C31   C     C_R   0.578238 0.099818 0.243612 0.228540
C32   C     C_R   0.519001 0.092941 0.178847 -0.163277
C33   C     C_R   0.490111 0.160642 0.117871 0.399146
C34   C     C_R   0.540254 0.233647 0.120893 -0.338416
C35   C     C_R   0.595171 0.242477 0.185133 0.078281
C36   C     C_R   0.597498 0.175160 0.249166 -0.014940
C37   C     C_R   0.649084 0.317420 0.185832 -0.188641
C38   C     C_R   0.672767 0.326895 0.252518 -0.050079
C39   C     C_R   0.616836 0.264150 0.315486 -0.029368
C40   C     C_R   0.609746 0.185946 0.315832 -0.218066
C41   C     C_R   0.737390 0.398301 0.259009 0.341892
C42   C     C_R   0.718627 0.410124 0.322864 -0.225283
C43   C     C_R   0.629139 0.354403 0.379621 -0.218410
C44   C     C_R   0.569659 0.282716 0.375868 0.292114
H11   H     H_    0.531018 0.284213 0.072160 0.163666
H12   H     H_    0.768584 0.464354 0.327730 0.171149
O11   O     O_R   0.770540 0.084530 0.414050 -0.568911
O12   O     O_R   0.445710 0.065660 0.555720 -0.567802
O13   O     O_R   0.270420 0.915650 0.586190 -0.609440
C45   C     C_R   0.615776 0.079175 0.576739 0.972007
O14   O     O_R   0.441140 0.093540 0.412470 -0.558134
O15   O     O_R   0.265820 0.943740 0.441930 -0.551632
C46   C     C_R   0.607892 0.117407 0.385169 0.999224
O16   O     O_R   0.775150 0.056440 0.558310 -0.616452
O17   O     O_3   0.602370 0.950960 0.510050 -0.241983
V3    V     V_3+5 0.329450 0.009140 0.498150 1.311818
O18   O     O_R   0.935790 0.934280 0.444060 -0.538387
C47   C     C_R   0.102586 0.922799 0.421601 1.114169
O19   O     O_R   0.940370 0.906390 0.587310 -0.593027
C48   C     C_R   0.110706 0.881399 0.613712 0.977399
V4    V     V_3+5 0.828810 0.990710 0.501460 1.305207
O20   O     O_3   0.105780 0.049100 0.489960 -0.262473
C49   C     C_3   0.805618 0.283742 0.749222 -0.070239
C50   C     C_3   0.675392 0.299704 0.682565 -0.162682
H13   H     H_    0.709795 0.340220 0.628127 0.150291
H14   H     H_    0.391851 0.354425 0.708064 0.144430
C51   C     C_1   0.627814 0.125184 0.621709 -0.183069
C52   C     C_1   0.638670 0.373973 0.879207 -0.107583
C53   C     C_3   0.770468 0.195308 0.771567 0.317171
C54   C     C_3   0.638072 0.209854 0.706193 0.033645
C55   C     C_3   0.598198 0.202548 0.814493 -0.059687
C56   C     C_3   0.634464 0.291255 0.792970 0.117996
C57   C     C_3   0.461996 0.216594 0.749635 -0.230946
C58   C     C_3   0.500347 0.306868 0.726928 -0.137450
C59   C     C_1   0.634309 0.163702 0.659444 0.119339
C60   C     C_1   0.635199 0.336328 0.840677 0.108761
H15   H     H_    0.319512 0.188266 0.750585 0.201162
N1    N     N_3   0.311028 0.609327 0.321083 -0.187873
H16   H     H_    0.344374 0.607449 0.372264 0.153072
H17   H     H_    0.441670 0.609439 0.296407 0.134379
N2    N     N_R   0.246522 0.774151 0.556371 0.198784
O21   O     O_R   0.068932 0.774830 0.534451 -0.450780
O22   O     O_R   0.383014 0.791141 0.510076 -0.373888
N3    N     N_R   0.171917 0.525760 0.800465 0.227421
O23   O     O_R   0.264347 0.459662 0.818478 -0.430967
O24   O     O_R   0.985759 0.523259 0.806716 -0.415411
N4    N     N_R   0.648713 0.031045 0.298972 0.219658
O25   O     O_R   0.833095 0.018656 0.303886 -0.443945
O26   O     O_R   0.532509 0.973337 0.331042 -0.392694
N5    N     N_3   0.498740 0.016885 0.173976 -0.156077
H18   H     H_    0.630404 0.987580 0.187851 0.197764
H19   H     H_    0.394241 0.985056 0.209590 0.173261
N6    N     N_R   0.416842 0.156502 0.051870 0.246668
O27   O     O_R   0.341415 0.092065 0.049282 -0.393296
O28   O     O_R   0.406747 0.219751 0.994998 -0.432281
N7    N     N_R   0.843700 0.455666 0.204918 0.214801
O29   O     O_R   0.790369 0.528819 0.183120 -0.441836
O30   O     O_R   0.019328 0.438968 0.194572 -0.408435
N8    N     N_R   0.426122 0.239303 0.424782 0.223225
O31   O     O_R   0.431196 0.238289 0.489385 -0.440440
O32   O     O_R   0.262783 0.224401 0.399436 -0.366262
N9    N     N_3   0.992756 0.320550 0.748168 -0.178906
H20   H     H_    0.076648 0.305188 0.713085 0.116214
H21   H     H_    0.056011 0.294705 0.798615 0.175955
N10   N     N_3   0.557160 0.148659 0.885959 -0.142722
H22   H     H_    0.558475 0.091801 0.885173 0.147156
H23   H     H_    0.415669 0.159252 0.896318 0.223339
N11   N     N_R   0.921287 0.136361 0.797448 0.216409
O33   O     O_R   0.013400 0.127634 0.856445 -0.404957
O34   O     O_R   0.974312 0.096506 0.759320 -0.457865
N12   N     N_R   0.498924 0.778887 0.293924 0.231864
O35   O     O_R   0.611966 0.831428 0.251544 -0.442629
O36   O     O_R   0.545049 0.747010 0.360928 -0.375916
N13   N     N_3   0.349795 0.835641 0.130304 -0.186493
H24   H     H_    0.376084 0.891425 0.131756 0.167697
H25   H     H_    0.263284 0.843808 0.085307 0.124320

loop_
_geom_bond_atom_site_label_1
_geom_bond_atom_site_label_2
_geom_bond_distance
_ccdc_geom_bond_type
C36   C40   1.433567 A    
C33   C34   1.397419 A    
H14   C58   1.108827 S    
C55   C56   1.536811 S    
O12   V3    1.973278 S    
H4    C29   1.083254 S    
N11   O34   1.299900 A    
C57   C58   1.564068 S    
C1    O6    1.300906 A    
N5    H19   1.045463 S    
O19   C48   1.304346 A    
C49   C53   1.529337 S    
C53   N11   1.456980 S    
O17   V3    2.150052 S    
C13   C14   1.531780 S    
N3    O24   1.301040 A    
C38   C41   1.424978 A    
C42   H12   1.083532 S    
C20   C21   1.419558 A    
C11   C13   1.545504 S    
C22   C26   1.415889 A    
N4    O26   1.300069 A    
O5    C3    1.293340 A    
C57   H15   1.109257 S    
C35   C37   1.420632 A    
N3    O23   1.300152 A    
C56   C60   1.479848 S    
V2    O10   2.165210 S    
C34   C35   1.411354 A    
C1    C37   1.499577 S    
C49   N9    1.454148 S    
C18   C19   1.386648 A    
C25   C26   1.420465 A    
C10   C13   1.538226 S    
N7    O29   1.301133 A    
C3    C26   1.490872 S    
O8    V2    2.002693 S    
C39   C44   1.427718 A    
C24   C27   1.430474 A    
C19   C20   1.392731 A    
N6    O28   1.301705 A    
C19   H7    1.081679 S    
C25   C30   1.428764 A    
O1    V2    1.968252 S    
O7    V1    2.150091 S    
C45   O16   1.295892 A    
O13   C48   1.300336 A    
C37   C38   1.427841 A    
C55   C57   1.545974 S    
O15   C47   1.298656 A    
O9    C4    1.298037 A    
O14   C46   1.295761 A    
C6    N1    1.456174 S    
O16   V4    1.985367 S    
N5    H18   1.045294 S    
O19   V4    2.002674 S    
C54   C59   1.478886 S    
C17   C18   1.391105 A    
C11   H2    1.110138 S    
C12   C16   1.482629 S    
C9    H3    1.110237 S    
C6    C10   1.537244 S    
C14   N12   1.456232 S    
C4    C7    1.450918 S    
C11   C12   1.554612 S    
N13   H25   1.044958 S    
C53   C54   1.537332 S    
O4    C2    1.295433 A    
C41   N7    1.422928 S    
C50   H13   1.110122 S    
C7    C15   1.214654 T    
C49   C50   1.545806 S    
C2    C52   1.448034 S    
C8    C16   1.214668 T    
C54   C57   1.553865 S    
C41   C42   1.394826 A    
C51   C59   1.212566 T    
C38   C39   1.427113 A    
O2    C1    1.302156 A    
C27   C28   1.398255 A    
N10   H23   1.044411 S    
C21   C22   1.424929 A    
O11   V4    2.001687 S    
V3    O20   1.703463 S    
C53   C55   1.529048 S    
C49   C56   1.534783 S    
V4    O20   2.165260 S    
O14   V3    2.017698 S    
N1    H17   1.045225 S    
C5    C6    1.545696 S    
C44   N8    1.434309 S    
C32   N5    1.433817 S    
N2    O22   1.301593 A    
C10   C15   1.482758 S    
C56   C58   1.552379 S    
N8    O31   1.300644 A    
O3    C4    1.300052 A    
C50   C58   1.561967 S    
C28   H9    1.083390 S    
C24   C25   1.433986 A    
O6    V2    2.006377 S    
O9    V2    1.973275 S    
N12   O35   1.298788 A    
C17   H5    1.081275 S    
C9    C11   1.564476 S    
C40   C46   1.502576 S    
C18   H6    1.082669 S    
N10   H22   1.045026 S    
O2    V1    2.017696 S    
C23   C24   1.439727 A    
C20   H8    1.080299 S    
C28   C29   1.379572 A    
N9    H21   1.045115 S    
C31   N4    1.427627 S    
C32   C33   1.405667 A    
O1    C2    1.299220 A    
C55   N10   1.455001 S    
C6    C14   1.530708 S    
C17   C22   1.417358 A    
C23   C48   1.503191 S    
N13   H24   1.044363 S    
C27   N2    1.423064 S    
O5    V1    2.014807 S    
O12   C45   1.298521 A    
C31   C36   1.426137 A    
C31   C32   1.413755 A    
C12   C14   1.535839 S    
C34   H11   1.079415 S    
C5    C9    1.563597 S    
C5    C12   1.554136 S    
C42   C43   1.381172 A    
N11   O33   1.300333 A    
O7    V2    1.714399 S    
O4    V1    1.973262 S    
C21   C23   1.424960 A    
O3    V1    1.968733 S    
V1    O10   1.703407 S    
N4    O25   1.298792 A    
O18   V4    1.973242 S    
C45   C51   1.447393 S    
C35   C36   1.425049 A    
C33   N6    1.446484 S    
C30   N3    1.437393 S    
C8    C47   1.452389 S    
N1    H16   1.044820 S    
C5    H1    1.109989 S    
O11   C46   1.307689 A    
C39   C40   1.426793 A    
N7    O30   1.300828 A    
N8    O32   1.301753 A    
C13   N13   1.456093 S    
O18   C47   1.300688 A    
C29   C30   1.392226 A    
C43   C44   1.396937 A    
O15   V3    1.968615 S    
N2    O21   1.300692 A    
N12   O36   1.300236 A    
O17   V4    1.710961 S    
C9    C10   1.551823 S    
C50   C54   1.554097 S    
C52   C60   1.213124 T    
O13   V3    2.014884 S    
H10   C43   1.082945 S    
N6    O27   1.301397 A    
O8    C3    1.303391 A    
N9    H20   1.043981 S    
