data_mof_unit_28180.cif
_audit_creation_date              2012-12-10T17:35:47-0500
_audit_creation_method            fapswitch 2.2
_symmetry_space_group_name_H-M    P1
_symmetry_Int_Tables_number       1
_space_group_crystal_system       triclinic
_cell_length_a                    10.49645
_cell_length_b                    11.993261
_cell_length_c                    12.799195
_cell_angle_alpha                 94.843214
_cell_angle_beta                  90.012617
_cell_angle_gamma                 86.732931
_cell_volume                      1602.86852258

loop_
_atom_site_label
_atom_site_type_symbol
_atom_type_description
_atom_site_fract_x
_atom_site_fract_y
_atom_site_fract_z
_atom_type_partial_charge
C1    C     C_R   0.495087 0.523871 0.700622 0.875192
C2    C     C_R   0.609128 0.164047 0.587017 0.032234
C3    C     C_R   0.552519 0.859836 0.541254 -0.003210
C4    C     C_R   0.447480 0.140164 0.458747 -0.003344
C5    C     C_R   0.544024 0.976812 0.534866 0.077860
C6    C     C_R   0.455976 0.023188 0.465134 0.077829
C7    C     C_R   0.742625 0.500683 0.499905 0.862878
C8    C     C_R   0.257374 0.499315 0.500086 0.862893
C9    C     C_3   0.959622 0.463857 0.590227 -0.171900
C10   C     C_3   0.040378 0.536138 0.409751 -0.171982
C11   C     C_3   0.038238 0.567650 0.581663 -0.164379
C12   C     C_R   0.504899 0.476131 0.299374 0.875134
C13   C     C_3   0.961759 0.432344 0.418314 -0.164386
C14   C     C_3   0.122406 0.498226 0.500177 0.016581
C15   C     C_3   0.877592 0.501769 0.499802 0.016593
C16   C     C_3   0.046500 0.394327 0.508738 -0.142306
C17   C     C_3   0.953499 0.605668 0.491239 -0.142382
C18   C     C_R   0.511654 0.458332 0.187137 -0.124948
C19   C     C_R   0.488337 0.541699 0.812844 -0.124983
C20   C     C_R   0.380710 0.614347 0.972865 -0.243534
C21   C     C_R   0.619308 0.385701 0.027122 -0.243572
C22   C     C_R   0.397681 0.618635 0.865471 -0.025976
C23   C     C_R   0.564067 0.467382 0.867479 -0.257818
C24   C     C_R   0.602244 0.381345 0.134500 -0.026141
C25   C     C_2   0.684934 0.300019 0.188246 0.900438
C26   C     C_2   0.314711 0.699734 0.811692 0.900159
C27   C     C_R   0.436009 0.532723 0.132513 -0.257757
C28   C     C_R   0.546548 0.463426 0.973620 0.164359
C29   C     C_R   0.453532 0.536677 0.026373 0.164317
C30   C     C_R   0.379010 0.951758 0.403877 -0.317821
C31   C     C_R   0.620990 0.048241 0.596122 -0.317838
C32   C     C_R   0.390873 0.835953 0.412982 0.032210
H1    H     H_    0.074150 0.622600 0.647982 0.184464
H2    H     H_    0.689596 0.328726 0.985352 0.160558
H3    H     H_    0.380600 0.177540 0.405564 0.136830
H4    H     H_    0.619398 0.822460 0.594438 0.136697
H5    H     H_    0.668543 0.219269 0.634116 0.130912
H6    H     H_    0.331458 0.780730 0.365882 0.130898
H7    H     H_    0.310409 0.985009 0.349620 0.153999
H8    H     H_    0.689592 0.014991 0.650379 0.153972
H9    H     H_    0.697479 0.171010 0.279920 0.338603
H10   H     H_    0.301653 0.828589 0.719861 0.338567
H11   H     H_    0.925840 0.377400 0.351992 0.184379
H12   H     H_    0.921791 0.434747 0.663608 0.140338
H13   H     H_    0.078209 0.565248 0.336370 0.140326
H14   H     H_    0.088468 0.308210 0.515813 0.149932
H15   H     H_    0.911530 0.691785 0.484165 0.149927
H16   H     H_    0.366092 0.590611 0.173831 0.148082
H17   H     H_    0.634014 0.409513 0.826171 0.148074
H18   H     H_    0.310377 0.671269 0.014633 0.160544
N1    N     N_R   0.523490 0.207800 0.519350 -0.099920
N2    N     N_R   0.476510 0.792200 0.480650 -0.099883
O1    O     O_R   0.506270 0.421700 0.658830 -0.624844
O2    O     O_R   0.630932 0.222481 0.248102 -0.775300
O3    O     O_2   0.199110 0.702483 0.824560 -0.654762
O4    O     O_R   0.368404 0.777333 0.751713 -0.775201
O5    O     O_R   0.493730 0.578300 0.341170 -0.624860
O6    O     O_R   0.491200 0.609310 0.646410 -0.575663
O7    O     O_R   0.508800 0.390690 0.353590 -0.575680
O8    O     O_R   0.693580 0.406210 0.506230 -0.625001
O9    O     O_R   0.306420 0.593790 0.493770 -0.624980
O10   O     O_R   0.678510 0.593830 0.493810 -0.629558
O11   O     O_R   0.321490 0.406170 0.506190 -0.629543
O12   O     O_2   0.800558 0.297015 0.175445 -0.654687
Zn1   Zn    Zn3+2 0.510060 0.374730 0.508290 0.964184
Zn2   Zn    Zn3+2 0.489940 0.625270 0.491710 0.964193

loop_
_geom_bond_atom_site_label_1
_geom_bond_atom_site_label_2
_ccdc_geom_bond_type
C27   H16   S    
C30   H7    S    
C19   C23   A    
C3    N2    A    
O11   Zn1   S    
C7    O10   A    
C32   H6    S    
C27   C29   A    
O1    Zn1   S    
C21   C24   A    
O5    Zn2   S    
C11   H1    S    
C8    O9    A    
C26   O3    D    
C10   H13   S    
C7    C15   S    
C9    C15   S    
C4    H3    S    
C10   C13   S    
C23   C28   A    
C25   O2    S    
C30   C32   A    
C9    C11   S    
C2    H5    S    
O6    Zn2   S    
C26   O4    S    
C3    H4    S    
C20   H18   S    
C18   C24   A    
C12   O5    A    
C28   C29   A    
C6    C30   A    
C9    C16   S    
C20   C22   A    
O8    Zn1   S    
C20   C29   A    
C13   C15   S    
N1    Zn1   S    
C5    C6    A    
C11   C14   S    
C14   C16   S    
H9    O2    S    
C1    C19   S    
C23   H17   S    
C2    N1    A    
O10   Zn2   S    
C4    N1    A    
C12   C18   S    
C10   C17   S    
C3    C5    A    
C7    O8    A    
C13   H11   S    
C19   C22   A    
N2    Zn2   S    
C24   C25   S    
C4    C6    A    
C22   C26   S    
C13   C16   S    
C16   H14   S    
C15   C17   S    
C1    O1    A    
C32   N2    A    
C9    H12   S    
C8    C14   S    
C21   H2    S    
C8    O11   A    
H10   O4    S    
C31   H8    S    
C1    O6    A    
C12   O7    A    
O9    Zn2   S    
C21   C28   A    
O7    Zn1   S    
C18   C27   A    
C17   H15   S    
C10   C14   S    
C2    C31   A    
C5    C31   A    
C25   O12   D    
C11   C17   S    
