data_mof_unit_9996.cif
_audit_creation_date              2013-03-05T15:52:28-0500
_audit_creation_method            fapswitch 2.2
_symmetry_space_group_name_H-M    P1
_symmetry_Int_Tables_number       1
_space_group_crystal_system       triclinic
_cell_length_a                    8.408072
_cell_length_b                    17.316532
_cell_length_c                    19.086984
_cell_angle_alpha                 98.096373
_cell_angle_beta                  92.225944
_cell_angle_gamma                 95.739547
_cell_volume                      2733.59215194

loop_
_atom_site_label
_atom_site_type_symbol
_atom_site_description
_atom_site_fract_x
_atom_site_fract_y
_atom_site_fract_z
_atom_type_partial_charge
P1    P     P_3+3 0.050120 0.424430 0.337400 0.497439
O1    O     O_2   0.880230 0.446130 0.326290 -0.371160
O2    O     O_3   0.127880 0.453050 0.414940 -0.355616
O3    O     O_3   0.652660 0.587690 0.369690 -0.335953
O4    O     O_2   0.734516 0.523876 0.243944 -0.407099
O5    O     O_3   0.044057 0.321502 0.329192 -0.581054
O6    O     O_3   0.677127 0.671752 0.244483 -0.564051
H1    H     H_    0.748188 0.731953 0.343907 0.152071
C1    C     C_3   0.739906 0.812719 0.268108 -0.068278
H2    H     H_    0.865642 0.808375 0.256356 0.148870
P2    P     P_3+3 0.655220 0.678730 0.555760 0.509882
P3    P     P_3+3 0.097422 0.731463 0.409356 0.500106
O7    O     O_2   0.829870 0.688430 0.534340 -0.380402
O8    O     O_3   0.069940 0.629350 0.405460 -0.414806
O9    O     O_2   0.947604 0.765420 0.440324 -0.353186
O10   O     O_3   0.668964 0.699504 0.648446 -0.537100
O11   O     O_3   0.099191 0.752507 0.321358 -0.459068
C2    C     C_3   0.068614 0.684266 0.270515 0.295865
H3    H     H_    0.941040 0.666077 0.264638 0.151683
H4    H     H_    0.122053 0.632668 0.284761 0.064329
C3    C     C_3   0.130390 0.698381 0.198142 -0.698912
H5    H     H_    0.085576 0.646813 0.158381 0.181823
C4    C     C_3   0.173488 0.721272 0.633438 0.217151
H6    H     H_    0.302287 0.737422 0.626544 0.096371
H7    H     H_    0.115040 0.690086 0.582808 0.114060
C5    C     C_3   0.092798 0.795520 0.656477 -0.589377
H8    H     H_    0.128763 0.818979 0.712749 0.244472
H9    H     H_    0.961175 0.780264 0.653072 0.231017
Ba1   Ba    Ba6+2 0.849990 0.533510 0.465310 1.592837
C6    C     C_3   0.888059 0.283079 0.323215 0.385842
H10   H     H_    0.807689 0.316979 0.356845 0.084906
C7    C     C_3   0.895001 0.205192 0.351836 -0.858749
H11   H     H_    0.971335 0.167007 0.319288 0.279982
H12   H     H_    0.772918 0.174020 0.351831 0.247857
H13   H     H_    0.948415 0.216182 0.406805 0.239535
C8    C     C_3   0.713815 0.634806 0.677853 0.226993
H14   H     H_    0.835880 0.624108 0.662968 0.071281
H15   H     H_    0.629801 0.581425 0.659722 0.119371
C9    C     C_3   0.709837 0.651929 0.758489 -0.103875
H16   H     H_    0.741962 0.599891 0.781636 0.079469
H17   H     H_    0.586493 0.662327 0.773485 0.146663
P4    P     P_3+3 0.139590 0.575630 0.662610 0.483751
O12   O     O_2   0.309470 0.553890 0.673760 -0.370736
O13   O     O_3   0.061830 0.547010 0.585070 -0.405976
O14   O     O_3   0.537040 0.412370 0.630320 -0.375461
O15   O     O_3   0.162894 0.677266 0.689350 -0.522150
P5    P     P_3+3 0.088986 0.267909 0.591049 0.533015
O16   O     O_3   0.620720 0.405850 0.463860 -0.403586
O17   O     O_3   0.119760 0.370720 0.594550 -0.386110
O18   O     O_2   0.214947 0.233569 0.542647 -0.321566
O19   O     O_3   0.148090 0.242223 0.673016 -0.480795
Ba2   Ba    Ba6+2 0.339840 0.466550 0.534700 1.598996
P6    P     P_3+3 0.623163 0.582441 0.277441 0.468461
C10   C     C_3   0.672706 0.738029 0.296728 0.110249
H18   H     H_    0.672790 0.818104 0.217926 0.174926
O20   O     O_3   0.568990 0.594210 0.536150 -0.390353
C11   C     C_3   0.469484 0.341591 0.317746 0.395782
H19   H     H_    0.370719 0.368791 0.345221 0.118104
H20   H     H_    0.573356 0.386581 0.317816 0.111022
C12   C     C_3   0.410612 0.311098 0.241427 -0.903849
H21   H     H_    0.290641 0.277547 0.240280 0.268923
H22   H     H_    0.402711 0.360806 0.211091 0.212279
H23   H     H_    0.493905 0.271908 0.215190 0.279702
P7    P     P_3+3 0.536451 0.307910 0.442002 0.450724
O21   O     O_2   0.359830 0.311600 0.465710 -0.318173
O22   O     O_3   0.515600 0.278916 0.350196 -0.577122
H24   H     H_    0.262572 0.702863 0.200633 0.193062
C13   C     C_3   0.038851 0.262048 0.725050 0.246025
H25   H     H_    0.948591 0.299145 0.707895 -0.040701
C14   C     C_3   0.949932 0.187052 0.744002 -0.738024
H26   H     H_    0.034057 0.143976 0.753981 0.324499
H27   H     H_    0.882068 0.200425 0.792148 0.197704
H28   H     H_    0.864698 0.160347 0.699876 0.216530
P8    P     P_3+3 0.585817 0.404605 0.718273 0.459539
C15   C     C_3   0.546539 0.254560 0.685312 0.267743
H29   H     H_    0.670780 0.267238 0.668770 -0.039820
O23   O     O_2   0.493328 0.466399 0.760778 -0.397113
O24   O     O_3   0.505022 0.313459 0.738105 -0.470496
H30   H     H_    0.463148 0.249262 0.637951 0.151668
H31   H     H_    0.584646 0.131652 0.673173 0.098982
C16   C     C_3   0.539765 0.175963 0.713456 -0.086623
H32   H     H_    0.618511 0.182423 0.762252 0.132141
C17   C     C_R   0.050818 0.539540 0.798986 -0.239118
H33   H     H_    0.130498 0.591002 0.820574 0.174943
C18   C     C_R   0.020873 0.524027 0.724759 0.283887
C19   C     C_R   0.865822 0.427083 0.810119 -0.349231
H34   H     H_    0.817577 0.379224 0.836297 0.148887
C20   C     C_R   0.800076 0.431497 0.742313 0.226497
C21   C     C_R   0.348298 0.553104 0.183640 -0.347682
H35   H     H_    0.401850 0.600473 0.158426 0.178432
C22   C     C_R   0.415659 0.544821 0.249842 0.319190
C23   C     C_R   0.141854 0.451156 0.197696 -0.322173
H36   H     H_    0.051215 0.403857 0.177657 0.182282
C24   C     C_R   0.177744 0.466122 0.271891 0.289111
C25   C     C_R   0.986816 0.485571 0.843443 0.131151
C26   C     C_R   0.888618 0.472661 0.697457 -0.464128
H37   H     H_    0.846715 0.469613 0.642714 0.163631
C27   C     C_R   0.217411 0.500372 0.151335 0.078432
C28   C     C_R   0.322358 0.508587 0.296404 -0.483678
H38   H     H_    0.364550 0.511680 0.351111 0.175101
C29   C     C_R   0.773987 0.446992 0.959683 -0.136150
C30   C     C_R   0.675817 0.417862 0.008870 -0.160267
C31   C     C_R   0.726104 0.431705 0.079540 -0.044339
C32   C     C_R   0.877585 0.469654 0.098946 -0.054767
C33   C     C_R   0.994768 0.478306 0.049039 0.045301
C34   C     C_R   0.939652 0.470653 0.975761 0.136184
C35   C     C_R   0.159841 0.498183 0.072045 -0.027107
C36   C     C_R   0.266757 0.516773 0.018246 0.078293
C37   C     C_R   0.211158 0.512676 0.945304 0.095585
C38   C     C_R   0.046274 0.489491 0.922173 0.004032
C39   C     C_R   0.432192 0.539264 0.034481 -0.330317
C40   C     C_R   0.530306 0.575259 0.988553 0.396435
C41   C     C_R   0.478579 0.566980 0.918001 -0.220677
C42   C     C_R   0.327756 0.529472 0.896449 -0.139031
H39   H     H_    0.712066 0.455362 0.911650 0.148819
H40   H     H_    0.552997 0.394765 0.993568 0.162975
H41   H     H_    0.642926 0.419613 0.119524 0.155589
H42   H     H_    0.900964 0.493941 0.153233 0.176344
H43   H     H_    0.492457 0.525043 0.080441 0.171625
H44   H     H_    0.557867 0.585409 0.878842 0.170785
H45   H     H_    0.306764 0.514560 0.840746 0.213884
H46   H     H_    0.476099 0.140902 0.458283 0.193557
C43   C     C_R   0.377551 0.725378 0.492021 -0.420544
C44   C     C_R   0.536329 0.748622 0.517207 0.313705
C45   C     C_R   0.596941 0.827052 0.520577 -0.183081
C46   C     C_R   0.504760 0.881180 0.494828 0.010339
C47   C     C_R   0.349221 0.856425 0.462585 -0.209613
C48   C     C_R   0.285312 0.776687 0.461171 0.207535
C49   C     C_R   0.589561 0.163497 0.486231 -0.250715
C50   C     C_R   0.643263 0.242951 0.490580 0.259248
C51   C     C_R   0.889108 0.222850 0.553503 0.109765
C52   C     C_R   0.836803 0.141570 0.548646 0.189091
C53   C     C_R   0.684422 0.112705 0.515521 -0.118941
C54   C     C_1   0.625886 0.030409 0.507776 0.204498
C55   C     C_1   0.573365 0.962137 0.501613 0.190378
C56   C     C_R   0.789953 0.272485 0.525722 -0.488598
H47   H     H_    0.715761 0.846237 0.544195 0.208648
H48   H     H_    0.329384 0.664901 0.491297 0.171886
H49   H     H_    0.831553 0.334034 0.527961 0.186747
C57   C     C_2   0.134458 0.858931 0.612715 1.068627
O25   O     O_2   0.269398 0.893496 0.618178 -0.591592
O26   O     O_R   0.016228 0.880690 0.568393 -0.750046
H50   H     H_    0.055685 0.926289 0.543635 0.376698
C58   C     C_2   0.825152 0.269008 0.246520 0.962518
O27   O     O_2   0.802796 0.324769 0.216031 -0.675595
O28   O     O_R   0.790561 0.192656 0.210333 -0.763621
H51   H     H_    0.748524 0.191630 0.159662 0.342363
N1    N     N_R   0.733150 0.882920 0.319909 0.252722
O29   O     O_R   0.816965 0.892239 0.379781 -0.365558
O30   O     O_R   0.651386 0.938804 0.304550 -0.331298
N2    N     N_R   0.820674 0.720423 0.787196 0.285454
O31   O     O_R   0.942339 0.712934 0.828959 -0.330973
O32   O     O_R   0.789542 0.790244 0.777092 -0.306064
C59   C     C_2   0.505948 0.743613 0.318238 0.941989
O33   O     O_2   0.423063 0.791696 0.299183 -0.557791
O34   O     O_R   0.446277 0.688894 0.358898 -0.821318
H52   H     H_    0.333144 0.668658 0.345164 0.300265
C60   C     C_2   0.132911 0.308751 0.788679 1.105736
O35   O     O_2   0.134445 0.285843 0.846382 -0.573201
O36   O     O_R   0.219882 0.379595 0.782059 -0.751858
H53   H     H_    0.207109 0.394268 0.732803 0.320812
N3    N     N_R   0.378058 0.148513 0.729752 0.295750
O37   O     O_R   0.293575 0.095250 0.684744 -0.272291
O38   O     O_R   0.336810 0.160215 0.795064 -0.324955
N4    N     N_R   0.686774 0.613632 0.012536 0.242192
O39   O     O_R   0.729034 0.626998 0.079830 -0.361632
O40   O     O_R   0.783785 0.640474 0.967964 -0.351690
C61   C     C_2   0.258712 0.914252 0.431048 1.088155
O41   O     O_2   0.185970 0.896307 0.373618 -0.489086
O42   O     O_R   0.261945 0.990969 0.466015 -0.789203
H54   H     H_    0.200755 0.025242 0.438155 0.351028
N5    N     N_R   0.936258 0.088621 0.576126 0.245132
O43   O     O_R   0.875264 0.035634 0.612308 -0.391288
O44   O     O_R   0.084987 0.088609 0.560191 -0.299683
C62   C     C_2   0.081827 0.771344 0.173237 1.207877
O45   O     O_2   0.987311 0.766404 0.122082 -0.568727
O46   O     O_R   0.148081 0.844820 0.207590 -0.681393
H55   H     H_    0.106308 0.889604 0.186010 0.332545

loop_
_geom_bond_atom_site_label_1
_geom_bond_atom_site_label_2
_geom_bond_distance
_ccdc_geom_bond_type
C20   C26   1.382257 A    
C46   C47   1.422626 A    
C53   C54   1.445560 S    
O3    P6    1.756845 S    
C2    C3    1.537267 S    
C16   N3    1.454836 S    
C39   C40   1.394559 A    
C11   O22   1.402390 S    
C16   H32   1.107369 S    
C43   C48   1.409740 A    
C23   C27   1.435531 A    
C43   C44   1.401269 A    
P5    O17   1.764658 S    
C33   C35   1.432555 A    
C43   H48   1.082408 S    
C5    H8    1.112378 S    
N4    O39   1.301531 A    
O1    Ba1   2.897155 S    
O7    Ba1   2.841449 S    
O34   H52   0.992194 S    
C57   O26   1.394708 S    
N3    O37   1.300630 A    
C5    C57   1.493411 S    
C6    H10   1.104620 S    
C18   C26   1.387772 A    
C19   C20   1.402547 A    
O12   Ba2   2.897716 S    
C11   H20   1.110511 S    
O42   H54   1.014111 S    
C9    N2    1.460033 S    
C6    C58   1.515154 S    
C36   C37   1.441141 A    
C62   O46   1.397851 S    
C39   H43   1.066861 S    
P1    O1    1.527385 D    
P4    O15   1.751196 S    
C4    C5    1.531377 S    
P2    C44   1.855069 S    
O2    Ba1   2.961959 S    
C32   C33   1.408614 A    
C41   C42   1.385177 A    
C42   H45   1.061704 S    
C28   H38   1.081996 S    
C52   C53   1.418136 A    
C3    C62   1.498770 S    
P8    O23   1.542363 D    
P3    O11   1.768435 S    
P6    C22   1.830445 S    
C4    H6    1.108681 S    
C14   H26   1.108190 S    
C1    H18   1.112783 S    
C21   C22   1.396331 A    
C1    H2    1.096918 S    
H46   C49   1.083878 S    
C59   O34   1.376279 S    
O3    Ba1   2.742715 S    
O13   Ba2   2.962814 S    
C61   O42   1.397361 S    
C45   C46   1.402243 A    
N4    O40   1.301766 A    
C4    O15   1.396555 S    
C3    H5    1.111274 S    
C3    H24   1.105028 S    
C60   O36   1.388184 S    
C31   H41   1.082852 S    
P4    O13   1.586480 S    
C56   H49   1.082398 S    
C13   C60   1.508410 S    
C23   C24   1.418290 A    
C40   C41   1.382312 A    
N5    O44   1.298429 A    
P5    O18   1.541421 D    
N3    O38   1.300734 A    
Ba1   O16   2.780292 S    
P1    O5    1.762516 S    
C29   C30   1.388334 A    
C30   H40   1.082940 S    
N1    O29   1.300514 A    
C58   O28   1.399983 S    
C51   C56   1.397255 A    
H1    C10   1.104723 S    
C9    H16   1.109821 S    
C19   H34   1.079892 S    
C2    H3    1.084211 S    
C11   C12   1.523447 S    
P5    O19   1.752799 S    
O14   Ba2   2.742047 S    
C45   H47   1.080800 S    
C27   C35   1.565056 S    
P5    C51   1.852949 S    
O14   P8    1.739442 S    
P1    O2    1.586482 S    
C7    H12   1.110944 S    
C15   H29   1.112837 S    
C7    H13   1.108511 S    
C32   H42   1.064928 S    
C10   C59   1.484746 S    
C41   H44   1.080862 S    
P2    O10   1.751857 S    
C62   O45   1.222621 D    
P3    O9    1.545971 D    
P3    O8    1.750865 S    
N2    O31   1.300400 A    
O17   Ba2   2.750796 S    
C17   C25   1.428733 A    
C26   H37   1.082046 S    
C14   H28   1.101776 S    
P1    Ba1   3.466382 S    
O11   C2    1.414599 S    
P4    C18   1.847739 S    
C57   O25   1.222219 D    
P2    Ba1   3.436067 S    
C59   O33   1.221848 D    
C37   C42   1.416195 A    
C49   C53   1.402308 A    
C61   O41   1.219090 D    
C17   C18   1.412208 A    
P7    C50   1.833768 S    
C46   C55   1.447788 S    
C12   H23   1.108320 S    
Ba1   O13   2.811097 S    
C60   O35   1.222099 D    
C29   H39   1.071456 S    
C17   H33   1.080965 S    
P4    O12   1.527660 D    
O6    P6    1.774627 S    
C35   C36   1.439848 A    
C47   C48   1.426882 A    
N5    O43   1.301438 A    
O28   H51   1.013896 S    
C34   C38   1.436313 A    
O4    P6    1.538713 D    
C29   C34   1.421095 A    
C8    H14   1.101920 S    
O5    C6    1.403051 S    
C13   H25   1.110537 S    
C8    C9    1.528172 S    
C50   C56   1.394862 A    
N1    O30   1.300916 A    
H31   C16   1.112033 S    
C25   C38   1.555251 S    
P1    C24   1.854636 S    
O2    Ba2   2.811695 S    
C54   C55   1.207861 T    
P3    C48   1.870863 S    
Ba1   O20   2.976546 S    
C15   C16   1.528743 S    
C52   N5    1.438683 S    
C33   C34   1.440052 A    
C1    N1    1.462249 S    
C5    H9    1.109000 S    
C36   C39   1.416587 A    
C21   C27   1.418737 A    
C58   O27   1.221653 D    
C22   C28   1.382657 A    
C7    H11   1.111414 S    
C8    H15   1.110643 S    
C49   C50   1.394438 A    
C37   C38   1.438511 A    
O36   H53   1.012358 S    
C12   H22   1.108807 S    
C6    C7    1.530285 S    
P2    O7    1.538967 D    
C11   H19   1.108580 S    
C47   C61   1.493591 S    
C24   C28   1.384977 A    
C40   N4    1.440330 S    
P7    O21   1.573927 D    
C23   H36   1.078052 S    
C2    H4    1.101548 S    
O19   C13   1.409169 S    
N2    O32   1.300998 A    
C30   C31   1.378429 A    
C15   O24   1.409454 S    
O16   P7    1.757787 S    
C19   C25   1.423913 A    
Ba2   O21   2.841470 S    
Ba2   O20   2.779672 S    
O16   Ba2   2.975691 S    
C4    H7    1.109089 S    
C9    H17   1.111657 S    
C13   C14   1.528217 S    
O46   H55   1.013726 S    
P8    O24   1.752056 S    
P4    Ba2   3.466953 S    
C31   C32   1.385143 A    
O26   H50   1.010820 S    
C12   H21   1.110421 S    
C14   H27   1.109477 S    
C1    C10   1.538604 S    
O8    Ba1   2.750212 S    
O6    C10   1.414929 S    
P8    C20   1.838648 S    
C21   H35   1.077664 S    
C15   H30   1.109832 S    
O10   C8    1.399151 S    
P2    O20   1.555710 S    
C51   C52   1.421020 A    
P7    O22   1.750465 S    
C44   C45   1.393846 A    
Ba1   Ba2   4.585445 S    
