data_mof_unit_21283.cif
_audit_creation_date              2013-03-05T16:09:55-0500
_audit_creation_method            fapswitch 2.2
_symmetry_space_group_name_H-M    P1
_symmetry_Int_Tables_number       1
_space_group_crystal_system       triclinic
_cell_length_a                    10.678719
_cell_length_b                    9.835831
_cell_length_c                    10.644267
_cell_angle_alpha                 86.595234
_cell_angle_beta                  91.192045
_cell_angle_gamma                 89.548952
_cell_volume                      1115.74933808

loop_
_atom_site_label
_atom_site_type_symbol
_atom_site_description
_atom_site_fract_x
_atom_site_fract_y
_atom_site_fract_z
_atom_type_partial_charge
O1    O     O_R   0.316770 0.614620 0.499990 -0.607478
O2    O     O_R   0.683230 0.614620 0.500010 -0.591611
O3    O     O_R   0.316800 0.385290 0.500000 -0.615236
O4    O     O_R   0.683200 0.385290 0.500000 -0.644740
C1    C     C_R   0.259975 0.500681 0.497526 0.940897
C2    C     C_R   0.739648 0.499400 0.495826 1.008949
O5    O     O_R   0.500010 0.614690 0.316770 -0.587955
O6    O     O_R   0.499990 0.614690 0.683230 -0.632025
O7    O     O_R   0.500040 0.385360 0.316770 -0.587331
O8    O     O_R   0.499960 0.385360 0.683230 -0.573504
C3    C     C_R   0.487706 0.505256 0.259384 0.973554
C4    C     C_R   0.505597 0.495515 0.740888 0.943136
Zn1   Zn    Zn3+2 0.500000 0.653120 0.500000 1.069653
Zn2   Zn    Zn3+2 0.500000 0.346880 0.500000 1.069839
C5    C     C_R   0.542202 0.758462 0.086348 0.229208
C6    C     C_R   0.681354 0.657404 0.890554 0.230239
C7    C     C_R   0.638773 0.837745 0.031513 0.160773
C8    C     C_R   0.714964 0.782142 0.941083 0.152197
C9    C     C_R   0.576098 0.585654 0.939206 -0.116199
C10   C     C_R   0.527286 0.621997 0.052260 -0.102431
C11   C     C_R   0.465004 0.518902 0.124775 -0.166567
C12   C     C_R   0.511038 0.484726 0.875879 -0.161908
C13   C     C_R   0.407585 0.410168 0.066893 0.229935
C14   C     C_R   0.425466 0.397388 0.939234 0.234332
C15   C     C_R   0.065961 0.403580 0.567293 -0.133177
C16   C     C_R   0.937809 0.400867 0.564387 -0.094952
C17   C     C_R   0.871684 0.497394 0.487585 -0.167016
C18   C     C_R   0.127341 0.501870 0.492446 -0.181566
C19   C     C_R   0.931996 0.592860 0.406949 0.239355
C20   C     C_R   0.061891 0.595276 0.409832 0.226829
C21   C     C_R   0.604553 0.073124 0.467690 0.017638
C22   C     C_R   0.396005 0.070586 0.533941 0.045179
C23   C     C_R   0.604855 0.929293 0.468660 0.040703
C24   C     C_R   0.396051 0.926804 0.534033 0.036360
N1    N     N_R   0.500000 0.857200 0.500000 -0.105147
N2    N     N_R   0.500000 0.142810 0.500000 -0.104925
N3    N     N_R   0.326226 0.318101 0.135978 0.250622
O9    O     O_R   0.328922 0.188270 0.118687 -0.206046
O10   O     O_R   0.247293 0.364363 0.214964 -0.351837
N4    N     N_R   0.350422 0.303156 0.873228 0.226368
O11   O     O_R   0.399899 0.190231 0.838982 -0.302678
O12   O     O_R   0.229431 0.319644 0.865919 -0.332415
N5    N     N_R   0.445987 0.822145 0.155621 0.257751
O13   O     O_R   0.471073 0.921957 0.226469 -0.321076
O14   O     O_R   0.329575 0.791423 0.134925 -0.245613
N6    N     N_R   0.758903 0.598535 0.798759 0.218172
O15   O     O_R   0.817833 0.675479 0.716211 -0.361321
O16   O     O_R   0.780354 0.467873 0.805356 -0.368744
N7    N     N_R   0.660075 0.974036 0.067094 0.264013
O17   O     O_R   0.582153 0.070995 0.029354 -0.270397
O18   O     O_R   0.765085 0.004643 0.122253 -0.249379
N8    N     N_R   0.823572 0.854523 0.898265 0.280442
O19   O     O_R   0.934364 0.800071 0.916655 -0.216290
O20   O     O_R   0.812749 0.977574 0.846965 -0.298355
H1    H     H_    0.117292 0.330057 0.628802 0.211866
H2    H     H_    0.890177 0.326000 0.624596 0.216875
N9    N     N_R   0.862327 0.682190 0.318916 0.222198
O21   O     O_R   0.778147 0.632871 0.244644 -0.415643
O22   O     O_R   0.889773 0.810786 0.305579 -0.285163
N10   N     N_R   0.126245 0.681318 0.319799 0.244571
O23   O     O_R   0.170115 0.797213 0.352818 -0.293660
O24   O     O_R   0.113232 0.659951 0.200805 -0.230025
H3    H     H_    0.687979 0.128266 0.440868 0.163364
H4    H     H_    0.312802 0.123603 0.561490 0.159931
H5    H     H_    0.688384 0.876223 0.442496 0.187343
H6    H     H_    0.313002 0.871580 0.561839 0.170118

loop_
_geom_bond_atom_site_label_1
_geom_bond_atom_site_label_2
_geom_bond_distance
_ccdc_geom_bond_type
C8    N8    1.433925 S    
C13   C14   1.389033 A    
C21   C23   1.414098 A    
C5    C7    1.412771 A    
C19   C20   1.387234 A    
C21   H3    1.081268 S    
C17   C19   1.403568 A    
C1    C18   1.416198 S    
N5    O14   1.299088 A    
C21   N2    1.366220 A    
C9    C10   1.386312 A    
O6    C4    1.290804 A    
O7    Zn2   1.964554 S    
C24   H6    1.080997 S    
N7    O18   1.300667 A    
C18   C20   1.405056 A    
C7    C8    1.405599 A    
C16   C17   1.393407 A    
C23   H5    1.079788 S    
N3    O10   1.301259 A    
C15   H1    1.083820 S    
C10   C11   1.416114 A    
C15   C18   1.392546 A    
O5    C3    1.275121 A    
O7    C3    1.299925 A    
C22   C24   1.414157 A    
N9    O21   1.300476 A    
O2    C2    1.282825 A    
O3    Zn2   1.989564 S    
O8    C4    1.277754 A    
C6    C9    1.422285 A    
O1    C1    1.279844 A    
C22   N2    1.366412 A    
N4    O12   1.301049 A    
N4    O11   1.300993 A    
C14   N4    1.435443 S    
N3    O9    1.301156 A    
C19   N9    1.437515 S    
Zn1   N1    2.007296 S    
N6    O16   1.301171 A    
C11   C13   1.404366 A    
N5    O13   1.299212 A    
O4    Zn2   1.995404 S    
C5    C10   1.420369 A    
C12   C14   1.413130 A    
N9    O22   1.300821 A    
O4    C2    1.277063 A    
O1    Zn1   1.995892 S    
C5    N5    1.438035 S    
O6    Zn1   1.964480 S    
C4    C12   1.434428 S    
O5    Zn1   2.008561 S    
C9    C12   1.411873 A    
C20   N10   1.430768 S    
N8    O19   1.301107 A    
C22   H4    1.081232 S    
C6    C8    1.414449 A    
C24   N1    1.366141 A    
O8    Zn2   2.008687 S    
C7    N7    1.433087 S    
N7    O17   1.300517 A    
O2    Zn1   1.990035 S    
N6    O15   1.300903 A    
C6    N6    1.438425 S    
Zn2   N2    2.007199 S    
C23   N1    1.366674 A    
C15   C16   1.368712 A    
C13   N3    1.440658 S    
C3    C11   1.446355 S    
N10   O24   1.300964 A    
C2    C17   1.414579 S    
N8    O20   1.301168 A    
N10   O23   1.300608 A    
O3    C1    1.281408 A    
C16   H2    1.084031 S    
