data_mof_unit_24457.cif
_audit_creation_date              2012-12-11T16:53:50-0500
_audit_creation_method            fapswitch 2.2
_symmetry_space_group_name_H-M    P1
_symmetry_Int_Tables_number       1
_space_group_crystal_system       triclinic
_cell_length_a                    14.95603
_cell_length_b                    14.780933
_cell_length_c                    17.028664
_cell_angle_alpha                 108.569737
_cell_angle_beta                  106.348423
_cell_angle_gamma                 108.385303
_cell_volume                      3065.93554219

loop_
_atom_site_label
_atom_site_type_symbol
_atom_type_description
_atom_site_fract_x
_atom_site_fract_y
_atom_site_fract_z
_atom_type_partial_charge
C1    C     C_R   0.085963 0.284651 0.075719 -0.143100
C2    C     C_R   0.061103 0.532431 0.265390 -0.125472
C3    C     C_R   0.235625 0.800019 0.187250 -0.132541
C4    C     C_R   0.934690 0.517280 0.746322 -0.077242
C5    C     C_R   0.698445 0.406713 0.997225 -0.148199
C6    C     C_R   0.262276 0.807099 0.274344 0.062348
C7    C     C_R   0.638881 0.435151 0.941006 -0.001829
C8    C     C_R   0.968235 0.517120 0.273868 0.062797
C9    C     C_R   0.996103 0.822754 0.984415 0.039183
C10   C     C_R   0.406602 0.482838 0.892796 0.138452
C11   C     C_R   0.349979 0.421196 0.925199 0.027176
C12   C     C_R   0.024954 0.580007 0.745120 0.045288
C13   C     C_R   0.372907 0.339574 0.936521 -0.203403
C14   C     C_R   0.463487 0.334489 0.931913 -0.202523
C15   C     C_R   0.530151 0.411381 0.916445 0.064998
C16   C     C_R   0.722492 0.213341 0.823075 -0.133335
C17   C     C_R   0.495699 0.478895 0.890104 0.277206
C18   C     C_3   0.552097 0.596342 0.921853 -0.536968
C19   C     C_3   0.454255 0.601511 0.925186 -0.533032
C20   C     C_R   0.957692 0.558425 0.359307 0.131788
C21   C     C_R   0.031040 0.620589 0.677750 0.132633
C22   C     C_R   0.132985 0.690399 0.604253 -0.221567
C23   C     C_R   0.668856 0.215038 0.743161 0.047634
C24   C     C_R   0.127909 0.677475 0.680468 -0.169808
C25   C     C_R   0.939282 0.590456 0.603339 -0.278512
C26   C     C_R   0.943852 0.596080 0.524793 0.188503
C27   C     C_R   0.041666 0.642300 0.524091 0.188411
C28   C     C_R   0.251402 0.528302 0.944093 -0.141111
C29   C     C_R   0.047298 0.627535 0.441336 -0.275243
C30   C     C_R   0.859649 0.522833 0.360964 -0.173191
C31   C     C_R   0.852715 0.543636 0.443890 -0.223588
C32   C     C_R   0.560693 0.143127 0.677496 0.134063
C33   C     C_R   0.306187 0.903107 0.359959 0.138769
C34   C     C_R   0.282978 0.455515 0.960653 0.076873
C35   C     C_R   0.404665 0.094278 0.446601 -0.221180
C36   C     C_R   0.344977 0.004412 0.362937 -0.187374
C37   C     C_R   0.316212 0.893556 0.440927 -0.272607
C38   C     C_R   0.383766 0.981450 0.524412 0.187524
C39   C     C_R   0.431156 0.081888 0.526736 0.173488
C40   C     C_R   0.731516 0.307471 0.744007 -0.108948
C41   C     C_R   0.515231 0.164173 0.605685 -0.227002
C42   C     C_R   0.506508 0.047496 0.679245 -0.175056
C43   C     C_R   0.415990 0.967603 0.603404 -0.220687
C44   C     C_R   0.077962 0.135189 0.163574 0.153059
C45   C     C_R   0.237158 0.704688 0.265323 -0.130931
C46   C     C_R   0.992878 0.114094 0.087147 0.034478
C47   C     C_R   0.898407 0.024003 0.057155 -0.200263
C48   C     C_R   0.894204 0.952999 0.096628 -0.197638
C49   C     C_R   0.984052 0.969776 0.165769 0.027304
C50   C     C_R   0.073106 0.065091 0.202275 0.180231
C51   C     C_3   0.182351 0.083513 0.221740 -0.493434
C52   C     C_R   0.251337 0.435491 0.025127 -0.128039
C53   C     C_3   0.188001 0.159357 0.178465 -0.532282
C54   C     C_R   0.106972 0.604988 0.823946 -0.152727
C55   C     C_R   0.914171 0.199821 0.996741 -0.117310
C56   C     C_R   0.702082 0.491377 0.910535 -0.087008
C57   C     C_R   0.998873 0.190109 0.046692 0.061089
C58   C     C_2   0.665550 0.486265 0.817387 0.927699
C59   C     C_R   0.888159 0.455306 0.186778 -0.135448
C60   C     C_R   0.082630 0.805884 0.016309 -0.145483
C61   C     C_R   0.911024 0.724318 0.947338 -0.056369
H1    H     H_    0.162081 0.312651 0.128569 0.098926
H2    H     H_    0.618792 0.638043 0.990470 0.190728
H3    H     H_    0.855434 0.493269 0.701868 0.106112
H4    H     H_    0.569484 0.616240 0.868489 0.207131
H5    H     H_    0.464837 0.647036 0.995917 0.206602
H6    H     H_    0.416056 0.624350 0.873718 0.195802
H7    H     H_    0.122900 0.661058 0.441331 0.113073
H8    H     H_    0.788621 0.473241 0.298817 0.115796
H9    H     H_    0.208511 0.727946 0.605045 0.122040
H10   H     H_    0.777008 0.509548 0.443833 0.126734
H11   H     H_    0.200160 0.705341 0.738238 0.113642
H12   H     H_    0.805676 0.426418 0.167353 0.094138
H13   H     H_    0.863739 0.551037 0.601323 0.115024
H14   H     H_    0.552010 0.239566 0.605194 0.131663
H15   H     H_    0.692230 0.160642 0.850835 0.087380
H16   H     H_    0.537384 0.030763 0.735583 0.114778
H17   H     H_    0.439657 0.171351 0.447794 0.128893
H18   H     H_    0.378903 0.891338 0.602904 0.121635
H19   H     H_    0.335808 0.014401 0.301494 0.117990
H20   H     H_    0.281535 0.816519 0.439627 0.111728
H21   H     H_    0.828715 0.005445 0.000930 0.125960
H22   H     H_    0.822796 0.881525 0.069656 0.131020
H23   H     H_    0.162102 0.862656 0.039999 0.093313
H24   H     H_    0.232999 0.124580 0.296410 0.198905
H25   H     H_    0.187938 0.011242 0.182121 0.188264
H26   H     H_    0.243202 0.243546 0.228347 0.190999
H27   H     H_    0.260078 0.559368 0.896007 0.112511
H28   H     H_    0.196124 0.130668 0.113225 0.199156
H29   H     H_    0.712209 0.340911 0.697631 0.110232
H30   H     H_    0.263568 0.382911 0.054212 0.095645
H31   H     H_    0.186295 0.664621 0.851682 0.088989
H32   H     H_    0.833280 0.150546 0.977195 0.086122
H33   H     H_    0.259470 0.682044 0.319056 0.086721
H34   H     H_    0.831191 0.708739 0.914296 0.133171
H35   H     H_    0.702502 0.525736 0.723848 0.306968
H36   H     H_    0.136799 0.565899 0.319988 0.085718
H37   H     H_    0.248972 0.864654 0.168911 0.084756
H38   H     H_    0.670175 0.348712 0.021060 0.094867
H39   H     H_    0.327673 0.287461 0.957888 0.131534
H40   H     H_    0.485925 0.278143 0.949276 0.128458
N1    N     N_R   0.055640 0.348550 0.045600 -0.040374
N2    N     N_R   0.811290 0.303400 0.871650 -0.042974
N3    N     N_R   0.205180 0.552990 0.997660 -0.044036
N4    N     N_R   0.814810 0.361830 0.823710 -0.038850
N5    N     N_R   0.201660 0.494570 0.045600 -0.042132
N6    N     N_R   0.068420 0.560530 0.871650 -0.042544
N7    N     N_R   0.948050 0.295860 0.997660 -0.041009
N8    N     N_R   0.185190 0.638170 0.176290 -0.039933
N9    N     N_R   0.798340 0.505430 0.954400 -0.056886
N10   N     N_R   0.931580 0.439470 0.128350 -0.040153
N11   N     N_R   0.051950 0.704140 0.002340 -0.043725
N12   N     N_R   0.944360 0.651450 0.954400 -0.026758
N13   N     N_R   0.039170 0.492150 0.176290 -0.039493
N14   N     N_R   0.188710 0.696600 0.128350 -0.040379
N15   N     N_R   0.794820 0.447010 0.002340 -0.046177
N16   N     N_R   0.960830 0.507850 0.823710 -0.031288
Ni1   Ni    Ni4+2 0.119330 0.493420 0.109950 0.209686
Ni2   Ni    Ni4+2 0.880670 0.506580 0.890050 0.254796
Ni3   Ni    Ni4+2 0.872590 0.372590 0.000000 0.206141
Ni4   Ni    Ni4+2 0.127410 0.627410 0.000000 0.209955
O1    O     O_2   0.574362 0.430812 0.762447 -0.663110
O2    O     O_R   0.736655 0.536799 0.788901 -0.844425

loop_
_geom_bond_atom_site_label_1
_geom_bond_atom_site_label_2
_ccdc_geom_bond_type
N14   Ni4   S    
C6    C45   A    
C27   C29   A    
C60   H23   S    
N7    Ni3   S    
N2    Ni3   S    
C55   H32   S    
C3    C6    A    
C1    H1    S    
C51   H24   S    
N3    N5    A    
C39   C41   A    
C20   C30   A    
C18   H4    S    
C58   O2    S    
C8    C20   S    
C54   N6    A    
C9    C61   A    
C18   C19   S    
N16   Ni2   S    
C8    C59   A    
C30   C31   A    
C45   N8    A    
C18   H2    S    
C10   C17   A    
C43   H18   S    
C23   C40   A    
C11   C13   A    
C33   C36   A    
C19   H5    S    
C25   H13   S    
C47   H21   S    
N12   Ni2   S    
C44   C53   S    
C5    H38   S    
C2    H36   S    
C28   H27   S    
C59   N10   A    
C32   C41   A    
N1    N7    A    
C4    C12   A    
C59   H12   S    
N1    Ni1   S    
C31   H10   S    
C28   C34   A    
C26   C31   A    
C13   C14   A    
N5    Ni1   S    
N6    N16   A    
C37   H20   S    
C7    C56   A    
C48   H22   S    
C45   H33   S    
C51   H25   S    
C56   N9    A    
N11   N12   A    
C44   C46   A    
N8    Ni1   S    
C50   C51   S    
C20   C29   A    
C58   O1    D    
N2    N4    A    
C36   H19   S    
C5    C7    A    
C14   H40   S    
N3    Ni4   S    
C25   C26   A    
C12   C21   S    
C33   C37   A    
N15   Ni3   S    
N10   Ni3   S    
C51   C53   S    
C35   C36   A    
C35   C39   A    
C54   H31   S    
C37   C38   A    
C60   N11   A    
C1    C57   A    
C41   H14   S    
C29   H7    S    
C28   N3    A    
C16   N2    A    
C47   C48   A    
C10   C19   S    
C17   C18   S    
C26   C27   A    
C53   H26   S    
C19   H6    S    
N13   Ni1   S    
C48   C49   A    
C16   C23   A    
C22   C27   A    
C55   C57   A    
C5    N15   A    
C53   H28   S    
C22   C24   A    
C4    N16   A    
C42   C43   A    
N6    Ni4   S    
N9    N15   A    
C30   H8    S    
C24   H11   S    
C44   C50   A    
C15   C17   A    
C21   C25   A    
C46   C47   A    
H35   O2    S    
C16   H15   S    
C11   C34   S    
C2    C8    A    
N9    Ni2   S    
C61   H34   S    
C4    H3    S    
C35   H17   S    
C34   C52   A    
C6    C33   S    
C55   N7    A    
C9    C60   A    
C23   C32   S    
C13   H39   S    
C38   C43   A    
C46   C57   S    
C3    N14   A    
C61   N12   A    
C2    N13   A    
C3    H37   S    
C38   C39   A    
C7    C15   S    
C56   C58   S    
N10   N13   A    
C10   C11   A    
N8    N14   A    
C52   N5    A    
N11   Ni4   S    
C42   H16   S    
C49   C50   A    
C21   C24   A    
C32   C42   A    
C14   C15   A    
N4    Ni2   S    
C52   H30   S    
C40   H29   S    
C1    N1    A    
C22   H9    S    
C12   C54   A    
C40   N4    A    
