data_mof_unit_40106.cif
_audit_creation_date              2012-12-10T17:58:20-0500
_audit_creation_method            fapswitch 2.2
_symmetry_space_group_name_H-M    P1
_symmetry_Int_Tables_number       1
_space_group_crystal_system       triclinic
_cell_length_a                    9.51481
_cell_length_b                    10.833372
_cell_length_c                    15.725108
_cell_angle_alpha                 89.848349
_cell_angle_beta                  73.585914
_cell_angle_gamma                 89.992891
_cell_volume                      1554.83795299

loop_
_atom_site_label
_atom_site_type_symbol
_atom_type_description
_atom_site_fract_x
_atom_site_fract_y
_atom_site_fract_z
_atom_type_partial_charge
C1    C     C_R   0.999928 0.262063 0.500087 0.787717
C2    C     C_R   0.000072 0.737937 0.499913 0.787718
C3    C     C_R   0.578751 0.450422 0.090140 -0.220631
C4    C     C_R   0.421249 0.549577 0.909859 -0.220631
C5    C     C_R   0.726015 0.436938 0.044840 -0.235997
C6    C     C_R   0.273985 0.563062 0.955160 -0.235997
C7    C     C_R   0.871412 0.063852 0.501907 -0.186910
C8    C     C_R   0.128588 0.936148 0.498093 -0.186910
C9    C     C_R   0.871501 0.936144 0.501735 -0.184013
C10   C     C_R   0.128499 0.063856 0.498265 -0.184013
C11   C     C_R   0.000070 0.871781 0.499870 -0.016974
C12   C     C_R   0.999930 0.128218 0.500130 -0.016974
C13   C     C_R   0.553419 0.411127 0.544750 -0.037138
C14   C     C_R   0.446581 0.588872 0.455250 -0.037138
C15   C     C_R   0.404532 0.411379 0.544977 -0.025881
C16   C     C_R   0.595468 0.588621 0.455023 -0.025881
C17   C     C_R   0.916695 0.491765 0.671482 0.812826
C18   C     C_R   0.083305 0.508234 0.328518 0.812825
C19   C     C_R   0.867176 0.474864 0.768390 -0.064661
C20   C     C_R   0.132824 0.525135 0.231610 -0.064662
C21   C     C_R   0.922897 0.447970 0.908140 -0.219013
C22   C     C_R   0.077103 0.552031 0.091859 -0.219014
C23   C     C_R   0.969830 0.467947 0.817012 -0.243371
C24   C     C_R   0.030170 0.532053 0.182988 -0.243370
C25   C     C_R   0.716386 0.459404 0.813063 0.118399
C26   C     C_R   0.283614 0.540595 0.186937 0.118398
C27   C     C_R   0.669470 0.474861 0.905914 0.079829
C28   C     C_R   0.330530 0.525137 0.094086 0.079829
C29   C     C_R   0.773500 0.454717 0.953402 0.135232
C30   C     C_R   0.226500 0.545282 0.046598 0.135232
C31   C     C_R   0.522446 0.504657 0.953123 0.063418
C32   C     C_R   0.477554 0.495341 0.046877 0.063417
Cu1   Cu    Cu3+1 0.140660 0.500020 0.500000 0.938916
Cu2   Cu    Cu3+1 0.859340 0.499980 0.500000 0.938916
H1    H     H_    0.802280 0.410038 0.081278 0.148659
H2    H     H_    0.197720 0.589962 0.918722 0.148659
H3    H     H_    0.913677 0.528658 0.215863 0.165131
H4    H     H_    0.086323 0.471343 0.784137 0.165131
H5    H     H_    0.003505 0.430434 0.943286 0.146249
H6    H     H_    0.996494 0.569567 0.056714 0.146249
H7    H     H_    0.545819 0.425642 0.159397 0.166338
H8    H     H_    0.454181 0.574356 0.840603 0.166339
H9    H     H_    0.770850 0.111884 0.503468 0.145360
H10   H     H_    0.229150 0.888116 0.496532 0.145360
H11   H     H_    0.771012 0.888106 0.503152 0.146059
H12   H     H_    0.228988 0.111894 0.496848 0.146059
H13   H     H_    0.592596 0.339713 0.580455 0.119625
H14   H     H_    0.407404 0.660287 0.419545 0.119625
H15   H     H_    0.331585 0.340563 0.581257 0.117293
H16   H     H_    0.668415 0.659437 0.418743 0.117293
N1    N     N_R   0.352080 0.500030 0.499980 -0.155027
N2    N     N_R   0.647920 0.499970 0.500020 -0.155027
O1    O     O_R   0.118740 0.319660 0.500000 -0.591601
O2    O     O_R   0.881260 0.680340 0.500000 -0.591601
O3    O     O_R   0.881170 0.319630 0.500010 -0.592321
O4    O     O_R   0.118830 0.680370 0.499990 -0.592321
O5    O     O_R   0.055570 0.500030 0.629830 -0.585525
O6    O     O_R   0.944430 0.499970 0.370170 -0.585525
O7    O     O_R   0.818000 0.500000 0.629840 -0.572656
O8    O     O_R   0.182000 0.500000 0.370160 -0.572656
C33   C     C_3   0.382630 0.607479 0.232558 -0.859151
H17   H     H_    0.427289 0.543076 0.273296 0.240544
H18   H     H_    0.475261 0.654210 0.184051 0.229984
H19   H     H_    0.320694 0.681972 0.275638 0.229294
C34   C     C_3   0.617370 0.392519 0.767442 -0.859154
H20   H     H_    0.524740 0.345788 0.815948 0.229984
H21   H     H_    0.572712 0.456922 0.726703 0.240545
H22   H     H_    0.679307 0.318026 0.724362 0.229294

loop_
_geom_bond_atom_site_label_1
_geom_bond_atom_site_label_2
_ccdc_geom_bond_type
C21   C29   A    
C10   H12   S    
C33   H19   S    
C19   C23   A    
C9    H11   S    
C15   N1    A    
Cu1   N1    S    
C23   H4    S    
Cu1   O5    S    
Cu2   N2    S    
C31   C32   A    
C21   H5    S    
C13   C15   A    
C3    C5    A    
C34   H22   S    
C22   H6    S    
C4    H8    S    
Cu1   O4    S    
C28   C30   A    
Cu1   Cu2   S    
C1    O3    A    
Cu2   O3    S    
C2    O4    A    
C20   C24   A    
C9    C11   A    
C17   O5    A    
C3    C32   A    
C1    C12   S    
C20   C26   A    
C17   O7    A    
C8    C11   A    
C2    C11   S    
C5    H1    S    
C22   C24   A    
C8    C10   A    
C13   H13   S    
C17   C19   S    
C26   C33   S    
C6    H2    S    
Cu2   O2    S    
Cu1   O8    S    
C18   C20   S    
C15   H15   S    
C21   C23   A    
Cu1   O1    S    
C33   H17   S    
C19   C25   A    
C14   C16   A    
C7    C12   A    
C4    C31   A    
C27   C29   A    
C25   C27   A    
C27   C31   A    
C13   N2    A    
C5    C29   A    
C7    C9    A    
C28   C32   A    
C25   C34   S    
C14   N1    A    
C4    C6    A    
C34   H20   S    
C2    O2    A    
C18   O8    A    
C24   H3    S    
Cu2   O6    S    
C1    O1    A    
C3    H7    S    
C14   H14   S    
C22   C30   A    
C6    C30   A    
C10   C12   A    
Cu2   O7    S    
C26   C28   A    
C18   O6    A    
C33   H18   S    
C16   N2    A    
C8    H10   S    
C16   H16   S    
C34   H21   S    
C7    H9    S    
