data_mof_unit_42945.cif
_audit_creation_date              2012-12-10T17:41:01-0500
_audit_creation_method            fapswitch 2.2
_symmetry_space_group_name_H-M    P1
_symmetry_Int_Tables_number       1
_space_group_crystal_system       triclinic
_cell_length_a                    14.487994
_cell_length_b                    15.764743
_cell_length_c                    9.977984
_cell_angle_alpha                 90.079319
_cell_angle_beta                  90.622098
_cell_angle_gamma                 90.162938
_cell_volume                      2278.82074841

loop_
_atom_site_label
_atom_site_type_symbol
_atom_type_description
_atom_site_fract_x
_atom_site_fract_y
_atom_site_fract_z
_atom_type_partial_charge
Br1   Br    Br    0.260660 0.060284 0.780093 -0.428984
Br2   Br    Br    0.760730 0.560765 0.780623 -0.429129
Br3   Br    Br    0.696221 0.003103 0.845485 -0.495836
Br4   Br    Br    0.196221 0.502912 0.845469 -0.495787
Br5   Br    Br    0.264349 0.011799 0.272033 -0.299363
Br6   Br    Br    0.764348 0.511775 0.272062 -0.299520
Br7   Br    Br    0.151367 0.869313 0.110845 -0.370900
Br8   Br    Br    0.651299 0.369449 0.110613 -0.371176
C1    C     C_R   0.396537 0.870119 0.500077 0.933635
C2    C     C_R   0.754237 0.192392 0.380635 -0.049937
C3    C     C_R   0.242201 0.299944 0.375406 -0.059487
C4    C     C_R   0.254341 0.692297 0.380680 -0.049963
C5    C     C_R   0.696508 0.817438 0.498809 -0.193481
C6    C     C_R   0.701569 0.180565 0.500714 -0.171746
C7    C     C_R   0.196410 0.317347 0.498795 -0.193500
C8    C     C_R   0.201658 0.680485 0.500751 -0.171837
C9    C     C_R   0.329219 0.960414 0.126258 0.348372
C10   C     C_R   0.829190 0.460473 0.126193 0.348290
C11   C     C_R   0.266456 0.913451 0.045956 0.249667
C12   C     C_R   0.394444 0.129030 0.499374 0.958396
C13   C     C_R   0.766401 0.413596 0.045800 0.249449
C14   C     C_R   0.274576 0.914976 0.908413 -0.334491
C15   C     C_R   0.774522 0.415218 0.908254 -0.334399
C16   C     C_R   0.335559 0.971666 0.852952 0.343083
C17   C     C_R   0.835543 0.471919 0.852915 0.343325
C18   C     C_R   0.417475 0.990574 0.924798 -0.024373
C19   C     C_R   0.917473 0.490670 0.924791 -0.024454
C20   C     C_R   0.416305 0.987391 0.069425 0.036981
C21   C     C_R   0.916295 0.487447 0.069411 0.036797
C22   C     C_R   0.578642 0.004698 0.073043 -0.135416
C23   C     C_R   0.896534 0.370119 0.500077 0.933460
C24   C     C_R   0.078648 0.504619 0.073043 -0.135576
C25   C     C_R   0.622252 0.120608 0.500348 0.869779
C26   C     C_R   0.620987 0.879253 0.500111 0.847386
C27   C     C_R   0.122284 0.620582 0.500356 0.869903
C28   C     C_R   0.120951 0.379223 0.500105 0.847354
C29   C     C_R   0.579146 0.004175 0.931033 0.256750
C30   C     C_R   0.079152 0.504090 0.931031 0.256685
C31   C     C_R   0.378169 0.244611 0.733779 -0.109641
C32   C     C_R   0.380272 0.756703 0.740266 -0.139135
C33   C     C_R   0.878442 0.744772 0.733591 -0.109726
C34   C     C_R   0.894438 0.629027 0.499360 0.958627
C35   C     C_R   0.880115 0.256773 0.740327 -0.139109
C36   C     C_R   0.341055 0.265043 0.857324 -0.046667
C37   C     C_R   0.343411 0.732494 0.861894 -0.084308
C38   C     C_R   0.841468 0.765342 0.857178 -0.046626
C39   C     C_R   0.843165 0.232654 0.861948 -0.084280
C40   C     C_R   0.748054 0.784278 0.865647 -0.042133
C41   C     C_R   0.750084 0.212658 0.868300 -0.073212
C42   C     C_R   0.247615 0.283912 0.865647 -0.042724
C43   C     C_R   0.250350 0.712444 0.868327 -0.073321
C44   C     C_R   0.695076 0.794290 0.749207 -0.080435
C45   C     C_R   0.317094 0.244892 0.374588 -0.070463
C46   C     C_R   0.697125 0.204737 0.751285 -0.124339
C47   C     C_R   0.194752 0.294017 0.749123 -0.080440
C48   C     C_R   0.197326 0.704557 0.751367 -0.124476
C49   C     C_R   0.736231 0.787493 0.621437 0.109382
C50   C     C_R   0.739365 0.211752 0.624518 0.108208
C51   C     C_R   0.236041 0.287337 0.621433 0.109483
C52   C     C_R   0.239488 0.711650 0.624559 0.108219
C53   C     C_R   0.322811 0.248845 0.616892 0.112921
C54   C     C_R   0.325975 0.751555 0.622631 0.107207
C55   C     C_R   0.822976 0.748956 0.616800 0.112757
C56   C     C_R   0.334103 0.742750 0.384019 -0.102477
C57   C     C_R   0.825878 0.251606 0.622631 0.107201
C58   C     C_R   0.349518 0.211633 0.496466 -0.218186
C59   C     C_R   0.356352 0.785045 0.502115 -0.246918
C60   C     C_R   0.849546 0.711646 0.496389 -0.217887
C61   C     C_R   0.856323 0.285056 0.502113 -0.246948
C62   C     C_2   0.362879 0.225000 0.245847 0.975796
C63   C     C_2   0.405004 0.736326 0.278428 0.972531
C64   C     C_2   0.862696 0.724825 0.245669 0.975805
C65   C     C_2   0.904925 0.236329 0.278375 0.972543
C66   C     C_2   0.718125 0.840164 0.245331 0.949606
C67   C     C_R   0.817067 0.744871 0.374498 -0.070745
C68   C     C_2   0.723981 0.160150 0.248217 0.940361
C69   C     C_2   0.218027 0.340006 0.245290 0.949446
C70   C     C_2   0.224158 0.659957 0.248297 0.940256
C71   C     C_R   0.834040 0.242790 0.383997 -0.102584
C72   C     C_R   0.742242 0.800001 0.375385 -0.059413
H1    H     H_    0.217034 0.892046 0.848026 0.221313
H2    H     H_    0.884710 0.235152 0.951966 0.178784
H3    H     H_    0.716543 0.792011 0.961991 0.197666
H4    H     H_    0.719329 0.203458 0.964008 0.183396
H5    H     H_    0.216001 0.291529 0.961935 0.197626
H6    H     H_    0.219664 0.703186 0.964058 0.183397
H7    H     H_    0.622360 0.805183 0.762486 0.158652
H8    H     H_    0.624288 0.193777 0.763644 0.162686
H9    H     H_    0.122017 0.304894 0.762244 0.158397
H10   H     H_    0.124507 0.693566 0.763814 0.162844
H11   H     H_    0.642751 0.008020 0.128186 0.203261
H12   H     H_    0.716967 0.392370 0.847819 0.221318
H13   H     H_    0.142761 0.507887 0.128185 0.203303
H14   H     H_    0.477611 0.231201 0.136213 0.352554
H15   H     H_    0.470863 0.791129 0.124443 0.356044
H16   H     H_    0.977520 0.730234 0.136087 0.352201
H17   H     H_    0.970856 0.291104 0.124408 0.356057
H18   H     H_    0.762258 0.914618 0.094410 0.356058
H19   H     H_    0.622215 0.160409 0.107775 0.313156
H20   H     H_    0.262113 0.414300 0.094135 0.356058
H21   H     H_    0.122509 0.660202 0.107681 0.313115
H22   H     H_    0.449498 0.224492 0.729722 0.135117
H23   H     H_    0.451267 0.778232 0.737680 0.144509
H24   H     H_    0.949745 0.724589 0.729426 0.135140
H25   H     H_    0.951126 0.278262 0.737799 0.144416
H26   H     H_    0.383612 0.261588 0.946435 0.167875
H27   H     H_    0.385009 0.734957 0.951861 0.178856
H28   H     H_    0.884098 0.761936 0.946237 0.167676
N1    N     N_R   0.498810 0.000000 0.142780 -0.103004
N2    N     N_R   0.998810 0.500000 0.142780 -0.102924
N3    N     N_R   0.498740 0.000000 0.857170 -0.136179
N4    N     N_R   0.998740 0.500000 0.857170 -0.136189
O1    O     O_R   0.408390 0.908380 0.614690 -0.623575
O2    O     O_R   0.591620 0.908390 0.614640 -0.614435
O3    O     O_R   0.091620 0.591610 0.614640 -0.614659
O4    O     O_R   0.091620 0.408390 0.614640 -0.614263
O5    O     O_R   0.591610 0.091610 0.385310 -0.588139
O6    O     O_R   0.591610 0.908390 0.385310 -0.599360
O7    O     O_R   0.091610 0.591610 0.385310 -0.587835
O8    O     O_R   0.091610 0.408390 0.385310 -0.599317
O9    O     O_2   0.318557 0.192831 0.153951 -0.625649
O10   O     O_R   0.456160 0.243875 0.230322 -0.712446
O11   O     O_2   0.455295 0.674192 0.275959 -0.525209
O12   O     O_R   0.408390 0.091620 0.614690 -0.587120
O13   O     O_R   0.415688 0.800508 0.184150 -0.820257
O14   O     O_2   0.818127 0.693020 0.153692 -0.625358
O15   O     O_R   0.956150 0.743056 0.230197 -0.712616
O16   O     O_2   0.955039 0.174075 0.275718 -0.525131
O17   O     O_R   0.915760 0.300580 0.184229 -0.820048
O18   O     O_2   0.648228 0.818498 0.184519 -0.620518
O19   O     O_R   0.780124 0.897691 0.188884 -0.760319
O20   O     O_2   0.772187 0.110901 0.185408 -0.600248
O21   O     O_R   0.640041 0.188133 0.195424 -0.734749
O22   O     O_2   0.148090 0.318310 0.184604 -0.620736
O23   O     O_R   0.908390 0.408380 0.614690 -0.623738
O24   O     O_R   0.280014 0.397469 0.188645 -0.760151
O25   O     O_2   0.272365 0.610613 0.185678 -0.600029
O26   O     O_R   0.140290 0.687971 0.195308 -0.734560
O27   O     O_R   0.908390 0.591620 0.614690 -0.587203
O28   O     O_R   0.408370 0.908380 0.385360 -0.554653
O29   O     O_R   0.408370 0.091620 0.385360 -0.576517
O30   O     O_R   0.908370 0.408380 0.385360 -0.554494
O31   O     O_R   0.908370 0.591620 0.385360 -0.576522
O32   O     O_R   0.591620 0.091610 0.614640 -0.614512
Zn1   Zn    Zn3+2 0.500010 0.000000 0.653130 0.993706
Zn2   Zn    Zn3+2 0.000010 0.500000 0.653130 0.993644
Zn3   Zn    Zn3+2 0.499980 0.000000 0.346870 1.054831
Zn4   Zn    Zn3+2 0.999980 0.500000 0.346870 1.054896

loop_
_geom_bond_atom_site_label_1
_geom_bond_atom_site_label_2
_ccdc_geom_bond_type
C26   O6    A    
O4    Zn2   S    
O27   Zn2   S    
C25   O5    A    
C47   C51   A    
C19   C21   A    
C10   C13   A    
C27   O7    A    
C6    C25   S    
C1    C59   S    
C39   C41   A    
C60   C67   A    
O3    Zn2   S    
C24   N2    A    
C54   C59   A    
C41   H4    S    
C12   C58   S    
O6    Zn3   S    
C16   C18   A    
N3    Zn1   S    
C8    C27   S    
C8    C52   A    
C4    C56   A    
C1    O28   A    
C39   H2    S    
C5    C49   A    
C37   C43   A    
C41   C46   A    
C32   C54   A    
H19   O21   S    
C52   C54   A    
C43   C48   A    
C35   H25   S    
C56   C63   S    
O1    Zn1   S    
C62   O10   S    
C3    C69   S    
C42   H5    S    
C3    C7    A    
C53   C58   A    
C43   H6    S    
C4    C8    A    
C6    C50   A    
C38   H28   S    
H18   O19   S    
C33   C38   A    
C27   O3    A    
C69   O24   S    
C24   C30   A    
C67   C72   A    
C3    C45   A    
C48   H10   S    
C24   H13   S    
C5    C72   A    
C66   C72   S    
C66   O19   S    
C34   C60   S    
N1    Zn3   S    
C2    C68   S    
C64   C67   S    
N2    Zn4   S    
C45   C62   S    
C70   O26   S    
O28   Zn3   S    
C49   C55   A    
C38   C40   A    
C25   O32   A    
C32   C37   A    
Br6   C10   S    
C65   O17   S    
C51   C53   A    
C29   N3    A    
C22   N1    A    
C56   C59   A    
O30   Zn4   S    
C21   N2    A    
C11   C14   A    
C23   O23   A    
C2    C6    A    
C2    C71   A    
O32   Zn1   S    
C64   O15   S    
O7    Zn4   S    
C48   C52   A    
H16   O15   S    
C4    C70   S    
C14   H1    S    
C63   O11   D    
H15   O13   S    
C50   C57   A    
C40   C44   A    
C35   C57   A    
O23   Zn2   S    
Br8   C13   S    
C65   C71   S    
C10   C21   A    
C45   C58   A    
Br3   C29   S    
H14   O10   S    
Br4   C30   S    
C19   N4    A    
O8    Zn4   S    
Br7   C11   S    
C66   O18   D    
C68   O21   S    
C14   C16   A    
C61   C71   A    
C17   C19   A    
C69   O22   D    
C33   C55   A    
C30   N4    A    
C28   O4    A    
C70   O25   D    
C7    C28   S    
C31   C53   A    
C31   H22   S    
C46   C50   A    
C36   C42   A    
C55   C60   A    
C34   O27   A    
C9    C20   A    
C7    C51   A    
C12   O29   A    
C44   H7    S    
O2    Zn1   S    
C22   H11   S    
H21   O26   S    
C40   H3    S    
C31   C36   A    
C36   H26   S    
C20   N1    A    
C26   O2    A    
C65   O16   D    
O12   Zn1   S    
C18   C20   A    
C42   C47   A    
C33   H24   S    
O5    Zn3   S    
C1    O1    A    
C23   O30   A    
C13   C15   A    
H17   O17   S    
C5    C26   S    
C47   H9    S    
C32   H23   S    
C46   H8    S    
C68   O20   D    
C62   O9    D    
C57   C61   A    
C9    C11   A    
N4    Zn2   S    
Br2   C17   S    
C15   C17   A    
C28   O8    A    
O31   Zn4   S    
C12   O12   A    
C44   C49   A    
O29   Zn3   S    
H20   O24   S    
C23   C61   S    
Br5   C9    S    
C22   C29   A    
Br1   C16   S    
C64   O14   D    
C34   O31   A    
C15   H12   S    
C63   O13   S    
C35   C39   A    
C18   N3    A    
C37   H27   S    
