data_mof_unit_20381.cif
_audit_creation_date              2012-12-11T15:31:45-0500
_audit_creation_method            fapswitch 2.2
_symmetry_space_group_name_H-M    P1
_symmetry_Int_Tables_number       1
_space_group_crystal_system       triclinic
_cell_length_a                    7.08472
_cell_length_b                    14.822519
_cell_length_c                    21.296115
_cell_angle_alpha                 75.853985
_cell_angle_beta                  89.828883
_cell_angle_gamma                 90.734161
_cell_volume                      2168.34039544

loop_
_atom_site_label
_atom_site_type_symbol
_atom_type_description
_atom_site_fract_x
_atom_site_fract_y
_atom_site_fract_z
_atom_type_partial_charge
O1    O     O_R   0.648150 0.130050 0.214300 -0.541015
O2    O     O_R   0.351850 0.869950 0.785700 -0.534798
O3    O     O_R   0.320490 0.006660 0.340150 -0.552851
O4    O     O_R   0.679510 0.993340 0.659850 -0.548994
O5    O     O_R   0.146100 0.869940 0.285700 -0.541981
O6    O     O_R   0.853900 0.130060 0.714300 -0.542543
C1    C     C_R   0.487793 0.004006 0.366567 0.722904
C2    C     C_R   0.511372 0.998289 0.633542 0.702585
O7    O     O_R   0.318690 0.137980 0.218120 -0.537738
O8    O     O_R   0.681310 0.862020 0.781880 -0.541270
O9    O     O_R   0.144280 0.002190 0.162800 -0.545572
O10   O     O_R   0.855720 0.997810 0.837200 -0.540534
C3    C     C_R   0.487551 0.173363 0.201846 0.690224
C4    C     C_R   0.512093 0.825575 0.795430 0.688479
O11   O     O_R   0.649960 0.997790 0.337200 -0.532640
O12   O     O_R   0.350040 0.002210 0.662800 -0.536675
O13   O     O_3   0.479300 0.955290 0.231990 -0.383261
O14   O     O_3   0.520700 0.044710 0.768010 -0.382805
V1    V     V_3+5 0.206040 0.008290 0.253340 1.398692
V2    V     V_3+5 0.793960 0.991710 0.746660 1.397671
O15   O     O_R   0.814320 0.993320 0.159850 -0.545270
O16   O     O_R   0.185680 0.006680 0.840150 -0.540832
C5    C     C_R   0.983163 0.996182 0.133516 0.687499
C6    C     C_R   0.016317 0.004417 0.866349 0.699249
O17   O     O_R   0.816120 0.862000 0.281880 -0.542891
O18   O     O_R   0.183880 0.138000 0.718120 -0.554772
C7    C     C_R   0.984382 0.824975 0.291687 0.793025
C8    C     C_R   0.018015 0.173927 0.702224 0.751213
V3    V     V_3+5 0.705540 0.991700 0.246660 1.407550
V4    V     V_3+5 0.294460 0.008300 0.753340 1.397602
O19   O     O_3   0.982150 0.044700 0.268010 -0.377066
O20   O     O_3   0.017850 0.955300 0.731990 -0.374989
C9    C     C_R   0.993066 0.724180 0.319775 -0.157407
C10   C     C_R   0.020414 0.274506 0.670252 -0.201504
C11   C     C_R   0.042796 0.570616 0.303991 -0.283670
C12   C     C_R   0.022490 0.431180 0.682467 -0.277571
C13   C     C_R   0.986877 0.663237 0.278656 0.361575
C14   C     C_R   0.019737 0.336107 0.710658 0.393494
C15   C     C_R   0.028955 0.690606 0.386682 0.157455
C16   C     C_R   0.033816 0.307560 0.600965 0.168665
C17   C     C_R   0.042799 0.593085 0.413567 0.021824
C18   C     C_R   0.042861 0.407801 0.572777 0.004894
C19   C     C_R   0.076028 0.536163 0.370382 -0.021779
C20   C     C_R   0.012611 0.466746 0.615675 -0.031545
C21   C     C_R   0.032901 0.550257 0.481605 0.016107
C22   C     C_R   0.077445 0.454107 0.505408 -0.003700
C23   C     C_R   0.164000 0.411088 0.461015 -0.207843
C24   C     C_R   0.968846 0.599519 0.525666 -0.189612
C25   C     C_R   0.150211 0.446981 0.394467 0.287887
C26   C     C_R   0.972640 0.561701 0.591894 0.280445
H1    H     H_    0.060575 0.524933 0.272163 0.151142
H2    H     H_    0.032270 0.478577 0.713318 0.155274
H3    H     H_    0.240098 0.347705 0.476182 0.206087
H4    H     H_    0.909616 0.667532 0.509624 0.197602
C27   C     C_3   0.838013 0.964946 0.981981 -0.117423
C28   C     C_3   0.157875 0.036628 0.017531 -0.117193
C29   C     C_3   0.977039 0.911315 0.033070 -0.143542
C30   C     C_3   0.016960 0.089866 0.966680 -0.147206
H5    H     H_    0.954530 0.838032 0.060411 0.107356
H6    H     H_    0.022742 0.163893 0.939791 0.113666
H7    H     H_    0.706530 0.939910 0.963755 0.095985
H8    H     H_    0.289523 0.065658 0.033258 0.110299
C31   C     C_3   0.991869 0.996136 0.062680 0.001895
C32   C     C_3   0.004913 0.004955 0.937043 -0.021126
C33   C     C_3   0.851605 0.049134 0.012696 -0.127937
C34   C     C_3   0.144378 0.951621 0.987240 -0.132690
H9    H     H_    0.733283 0.085002 0.028963 0.088619
H10   H     H_    0.264702 0.912837 0.974164 0.124932
C35   C     C_3   0.622452 0.069079 0.467026 -0.296453
C36   C     C_3   0.368593 0.941407 0.532909 -0.283276
C37   C     C_3   0.455535 0.087378 0.509198 0.489885
C38   C     C_3   0.536516 0.922038 0.491922 0.495333
H11   H     H_    0.721232 0.121257 0.437489 0.121972
H12   H     H_    0.261420 0.892358 0.560863 0.111858
C39   C     C_3   0.503126 0.001570 0.562940 -0.124907
C40   C     C_3   0.490741 0.006977 0.437120 -0.108851
C41   C     C_3   0.671909 0.981801 0.521948 -0.219989
C42   C     C_3   0.321263 0.028124 0.477787 -0.194884
H13   H     H_    0.815287 0.960879 0.540394 0.131753
H14   H     H_    0.177925 0.048926 0.459240 0.125597
C43   C     C_R   0.496594 0.273301 0.172635 -0.055117
C44   C     C_R   0.500391 0.724638 0.821745 -0.049729
C45   C     C_R   0.487762 0.428446 0.186709 -0.158672
C46   C     C_R   0.471818 0.570894 0.804513 -0.164126
C47   C     C_R   0.493883 0.333715 0.213150 -0.169275
C48   C     C_R   0.482020 0.666516 0.779788 -0.174243
C49   C     C_R   0.495864 0.308110 0.104817 -0.167872
C50   C     C_R   0.507419 0.686506 0.888792 -0.152049
C51   C     C_R   0.478902 0.405134 0.076109 0.098174
C52   C     C_R   0.480165 0.589597 0.915903 0.101225
C53   C     C_R   0.478274 0.463984 0.119391 0.075128
C54   C     C_R   0.471219 0.532464 0.871796 0.075750
C55   C     C_R   0.467352 0.446687 0.007188 -0.084845
C56   C     C_R   0.468680 0.547243 0.984422 -0.092926
C57   C     C_R   0.451430 0.601537 0.030883 0.420470
C58   C     C_R   0.450376 0.392800 0.960136 0.423158
C59   C     C_R   0.462643 0.558725 0.096537 -0.292790
C60   C     C_R   0.459161 0.436968 0.894239 -0.313580
H15   H     H_    0.452064 0.599448 0.131508 0.119094
H16   H     H_    0.446935 0.395917 0.859184 0.148532
H17   H     H_    0.542033 0.734128 0.917577 0.127261
H18   H     H_    0.511790 0.257498 0.076895 0.140677
H19   H     H_    0.479173 0.695219 0.727972 0.105556
H20   H     H_    0.495602 0.307362 0.265309 0.119987
H21   H     H_    0.487860 0.474529 0.219128 0.098144
H22   H     H_    0.463266 0.526653 0.770901 0.102859
N1    N     N_2   0.225752 0.394547 0.352734 -0.526426
H23   H     H_    0.311408 0.431451 0.315954 0.249802
C61   C     C_3   0.097229 0.329297 0.333699 -0.554845
H24   H     H_    0.067976 0.352249 0.280993 0.195132
H25   H     H_    0.960562 0.322871 0.360380 0.191095
H26   H     H_    0.163470 0.259825 0.343685 0.206180
N2    N     N_2   0.912870 0.618091 0.633654 -0.535597
H27   H     H_    0.834257 0.585976 0.673877 0.261020
C62   C     C_3   0.048297 0.685836 0.645063 -0.593367
H28   H     H_    0.979106 0.731642 0.672172 0.204408
H29   H     H_    0.101267 0.730056 0.598424 0.204930
H30   H     H_    0.167010 0.650179 0.674468 0.212367
O21   O     O_3   0.385479 0.691925 0.013527 -0.575658
C63   C     C_3   0.506354 0.754509 0.035771 0.041772
H31   H     H_    0.525992 0.815546 0.994512 0.126633
H32   H     H_    0.650946 0.727790 0.048488 0.096584
C64   C     C_3   0.414386 0.787697 0.091437 -0.347981
H33   H     H_    0.263469 0.800212 0.081257 0.212722
H34   H     H_    0.423483 0.735889 0.138358 0.180027
C65   C     C_3   0.506590 0.876438 0.100531 -0.755347
H35   H     H_    0.652554 0.862028 0.118420 0.237400
H36   H     H_    0.423250 0.901742 0.136350 0.258024
H37   H     H_    0.507463 0.931568 0.054922 0.203364
O22   O     O_3   0.387720 0.300813 0.977199 -0.580327
C66   C     C_3   0.502308 0.242576 0.949423 0.038886
H38   H     H_    0.528773 0.180853 0.988649 0.106031
H39   H     H_    0.644250 0.272835 0.933799 0.110386
C67   C     C_3   0.397933 0.208245 0.895929 -0.337008
H40   H     H_    0.359810 0.133759 0.914251 0.181401
H41   H     H_    0.266603 0.247238 0.882336 0.227779
C68   C     C_3   0.514028 0.215548 0.834591 -0.729904
H42   H     H_    0.547931 0.288772 0.810642 0.193905
H43   H     H_    0.428263 0.188301 0.799788 0.264082
H44   H     H_    0.644925 0.174321 0.845528 0.224157
N3    N     N_2   0.061358 0.238329 0.564507 -0.502497
H45   H     H_    0.099542 0.172720 0.589766 0.273896
C69   C     C_3   0.964448 0.235974 0.505451 -0.540093
H46   H     H_    0.876154 0.172737 0.513736 0.168352
H47   H     H_    0.067828 0.226751 0.468500 0.233888
H48   H     H_    0.884463 0.300016 0.486084 0.195780
N4    N     N_2   0.105527 0.753317 0.421455 -0.560486
H49   H     H_    0.239450 0.775563 0.405249 0.261104
C70   C     C_3   0.988409 0.828786 0.430410 -0.511726
H50   H     H_    0.977263 0.826440 0.482753 0.201204
H51   H     H_    0.845894 0.824166 0.410285 0.242106
H52   H     H_    0.052394 0.897026 0.405784 0.196569
O23   O     O_3   0.029132 0.300415 0.777652 -0.581529
C71   C     C_3   0.919883 0.351198 0.812912 0.031864
H53   H     H_    0.852863 0.300025 0.853480 0.129841
H54   H     H_    0.802804 0.390628 0.784184 0.120520
C72   C     C_3   0.046195 0.413976 0.842817 -0.338935
H55   H     H_    0.103342 0.372399 0.889069 0.213024
H56   H     H_    0.164857 0.441545 0.809539 0.208425
C73   C     C_3   0.941575 0.495599 0.857452 -0.786652
H57   H     H_    0.870990 0.536555 0.813356 0.234965
H58   H     H_    0.043320 0.542035 0.874357 0.244039
H59   H     H_    0.837219 0.469621 0.896722 0.233709
O24   O     O_3   0.955972 0.701053 0.212820 -0.585769
C74   C     C_3   0.873277 0.637549 0.180509 0.043651
H60   H     H_    0.762926 0.675271 0.148426 0.133752
H61   H     H_    0.798194 0.577540 0.213219 0.115845
C75   C     C_3   0.022383 0.605866 0.138560 -0.313623
H62   H     H_    0.071641 0.666519 0.100203 0.214978
H63   H     H_    0.144837 0.577789 0.168847 0.194036
C76   C     C_3   0.947718 0.531327 0.106532 -0.780669
H64   H     H_    0.888032 0.471349 0.143389 0.235048
H65   H     H_    0.064572 0.505951 0.080859 0.243543
H66   H     H_    0.839265 0.560989 0.070259 0.225278
O25   O     O_3   0.394354 0.172259 0.521236 -0.577395
C77   C     C_3   0.538133 0.217420 0.548713 0.034669
H67   H     H_    0.602380 0.269672 0.508415 0.143033
H68   H     H_    0.641535 0.168722 0.577301 0.134245
C78   C     C_3   0.453333 0.270734 0.594569 -0.304822
H69   H     H_    0.370787 0.327672 0.566175 0.218135
H70   H     H_    0.369249 0.221751 0.631200 0.228475
C79   C     C_3   0.589402 0.318903 0.630194 -0.845217
H71   H     H_    0.664634 0.266389 0.666426 0.257747
H72   H     H_    0.509483 0.361923 0.656922 0.227272
H73   H     H_    0.683117 0.366007 0.595084 0.244260
O26   O     O_3   0.594987 0.837468 0.479610 -0.600561
C80   C     C_3   0.475598 0.761994 0.508691 0.019401
H74   H     H_    0.492321 0.708798 0.480314 0.167990
H75   H     H_    0.324678 0.780344 0.506474 0.139703
C81   C     C_3   0.529806 0.720526 0.579053 -0.317091
H76   H     H_    0.681360 0.734178 0.585261 0.249420
H77   H     H_    0.450609 0.755599 0.611143 0.156435
C82   C     C_3   0.486649 0.615961 0.598609 -0.793910
H78   H     H_    0.339760 0.601859 0.586309 0.244977
H79   H     H_    0.505657 0.588581 0.651435 0.216344
H80   H     H_    0.580732 0.578224 0.572367 0.241339

loop_
_geom_bond_atom_site_label_1
_geom_bond_atom_site_label_2
_ccdc_geom_bond_type
C69   H48   S    
C34   H10   S    
C76   H64   S    
C31   C33   S    
C74   H60   S    
O11   V3    S    
C36   C42   S    
O13   V3    S    
C35   C41   S    
N4    H49   S    
C29   C34   S    
O4    C2    A    
C66   C67   S    
V1    O19   S    
C67   C68   S    
C50   H17   S    
C54   C60   A    
C64   H33   S    
C23   C25   A    
C21   C22   A    
C7    C9    S    
C24   H4    S    
C68   H43   S    
O9    V1    S    
C55   C56   A    
C10   C16   A    
O24   C74   S    
C11   C13   A    
C40   C42   S    
O3    C1    A    
N3    C69   S    
C42   H14   S    
C75   H63   S    
C64   H34   S    
C30   H6    S    
C69   H46   S    
C3    C43   S    
C35   C40   S    
C18   C22   A    
C35   C37   S    
O7    C3    A    
C79   H71   S    
C80   C81   S    
C81   C82   S    
C27   C33   S    
O5    C7    A    
C44   C50   A    
N3    H45   S    
O7    V1    S    
C77   C78   S    
O6    C8    A    
O8    V2    S    
C82   H79   S    
C58   C60   A    
C36   H12   S    
C46   H22   S    
N1    H23   S    
O3    V1    S    
O14   V4    S    
C28   C30   S    
C51   C53   A    
C11   C19   A    
C71   H54   S    
C12   H2    S    
C63   C64   S    
C38   C40   S    
C23   H3    S    
C78   C79   S    
C62   H30   S    
C5    C31   S    
C8    C10   S    
C74   H61   S    
C16   N3    S    
C72   H55   S    
C17   C19   A    
C70   H51   S    
C18   C20   A    
C48   H19   S    
C59   H15   S    
C63   H32   S    
C52   C56   A    
C75   C76   S    
C30   C32   S    
C76   H66   S    
C28   C31   S    
V4    O20   S    
C73   H59   S    
C71   C72   S    
C25   N1    S    
O8    C4    A    
C70   H52   S    
C19   C25   A    
C64   C65   S    
C67   H41   S    
C1    O11   A    
C65   H37   S    
C33   H9    S    
C44   C48   A    
O15   V3    S    
C2    C39   S    
C9    C13   A    
C45   H21   S    
C79   H73   S    
C73   H58   S    
C72   H56   S    
C81   H76   S    
C38   C41   S    
C49   H18   S    
C76   H65   S    
C30   C33   S    
C52   C54   A    
O25   C77   S    
C82   H80   S    
C27   C32   S    
O10   V2    S    
O1    V3    S    
C41   H13   S    
C9    C15   A    
C53   C59   A    
C35   H11   S    
C24   C26   A    
C39   C41   S    
C38   O26   S    
C71   H53   S    
C67   H40   S    
C47   H20   S    
C13   O24   S    
C77   H67   S    
C45   C47   A    
C50   C52   A    
O18   V4    S    
C55   C58   A    
C60   H16   S    
C27   C29   S    
C11   H1    S    
O16   C6    A    
C61   H26   S    
C29   H5    S    
O17   C7    A    
C4    C44   S    
C66   H38   S    
O6    V2    S    
C63   H31   S    
C58   O22   S    
N2    H27   S    
V2    O20   S    
C21   C24   A    
C20   C26   A    
C69   H47   S    
C62   H29   S    
C22   C23   A    
C75   H62   S    
C65   H36   S    
O16   V4    S    
N4    C70   S    
C10   C14   A    
C81   H77   S    
C29   C31   S    
C46   C48   A    
C16   C18   A    
C66   H39   S    
O21   C63   S    
C57   C59   A    
C1    C40   S    
O5    V1    S    
C72   C73   S    
C45   C53   A    
C68   H42   S    
O10   C6    A    
O18   C8    A    
C74   C75   S    
C61   H25   S    
O2    V4    S    
C26   N2    S    
C57   O21   S    
C73   H57   S    
O15   C5    A    
O22   C66   S    
O26   C80   S    
C80   H74   S    
V3    O19   S    
C28   H8    S    
C70   H50   S    
C12   C14   A    
C37   C39   S    
C43   C49   A    
O17   V3    S    
N1    C61   S    
C65   H35   S    
C28   C34   S    
C68   H44   S    
C27   H7    S    
O9    C5    A    
O13   V1    S    
C37   O25   S    
C6    C32   S    
O14   V2    S    
C51   C55   A    
C56   C57   A    
O2    C4    A    
C79   H72   S    
C80   H75   S    
C12   C20   A    
C78   H69   S    
O4    V2    S    
O1    C3    A    
C15   C17   A    
C2    O12   A    
C82   H78   S    
C15   N4    S    
C36   C39   S    
C49   C51   A    
C17   C21   A    
C36   C38   S    
C46   C54   A    
C14   O23   S    
N2    C62   S    
O23   C71   S    
C61   H24   S    
O12   V4    S    
C37   C42   S    
C43   C47   A    
C62   H28   S    
C32   C34   S    
C77   H68   S    
C78   H70   S    
