data_mof_unit_11619.cif
_audit_creation_date              2012-12-10T18:20:32-0500
_audit_creation_method            fapswitch 2.2
_symmetry_space_group_name_H-M    P1
_symmetry_Int_Tables_number       1
_space_group_crystal_system       triclinic
_cell_length_a                    14.095715
_cell_length_b                    13.607621
_cell_length_c                    14.816615
_cell_angle_alpha                 89.002816
_cell_angle_beta                  90.623149
_cell_angle_gamma                 81.070257
_cell_volume                      2806.82565769

loop_
_atom_site_label
_atom_site_type_symbol
_atom_type_description
_atom_site_fract_x
_atom_site_fract_y
_atom_site_fract_z
_atom_type_partial_charge
C1    C     C_R   0.499292 0.500498 0.326818 0.925761
C2    C     C_R   0.461244 0.319491 0.955724 -0.146679
C3    C     C_R   0.808936 0.439825 0.559965 0.231526
C4    C     C_R   0.191058 0.559869 0.439778 0.219252
C5    C     C_R   0.788835 0.556229 0.437869 -0.019783
C6    C     C_R   0.211147 0.443948 0.562287 -0.010932
C7    C     C_R   0.889976 0.551040 0.431130 -0.099577
C8    C     C_R   0.110004 0.448995 0.568934 -0.100756
C9    C     C_R   0.949506 0.500366 0.500267 0.017170
C10   C     C_R   0.050494 0.499497 0.499681 0.020391
C11   C     C_R   0.907580 0.451006 0.570280 0.026335
C12   C     C_R   0.500319 0.499498 0.673194 0.924888
C13   C     C_R   0.092409 0.548706 0.429551 0.028097
C14   C     C_R   0.932818 0.593280 0.356812 -0.019329
C15   C     C_R   0.067103 0.406745 0.643241 -0.028754
C16   C     C_R   0.518482 0.314093 0.498678 0.941869
C17   C     C_R   0.481539 0.685903 0.501377 0.946840
C18   C     C_R   0.034373 0.585813 0.353100 0.110565
C19   C     C_R   0.965543 0.413910 0.646740 0.113129
C20   C     C_1   0.466151 0.789941 0.505850 -0.059956
C21   C     C_1   0.533954 0.210003 0.494973 -0.058104
C22   C     C_2   0.460018 0.981834 0.513471 -0.117169
C23   C     C_R   0.459041 0.499514 0.952290 0.047248
C24   C     C_2   0.540829 0.017904 0.488972 -0.119168
C25   C     C_1   0.541029 0.122045 0.491987 0.068262
C26   C     C_1   0.459351 0.877827 0.509633 0.065672
C27   C     C_R   0.498937 0.407587 0.815454 -0.194815
C28   C     C_R   0.471848 0.591979 0.183784 -0.146400
C29   C     C_R   0.498198 0.498850 0.769781 -0.129141
C30   C     C_R   0.495161 0.500600 0.230261 -0.128606
C31   C     C_R   0.477092 0.590423 0.812696 0.144472
C32   C     C_R   0.498910 0.408967 0.187540 0.142512
C33   C     C_R   0.449161 0.591083 0.903603 0.084342
C34   C     C_R   0.458286 0.500155 0.046575 0.034249
C35   C     C_R   0.472811 0.408720 0.095545 0.060674
C36   C     C_2   0.629732 0.956340 0.454167 0.957117
C37   C     C_2   0.371444 0.043441 0.548793 0.952753
C38   C     C_2   0.538208 0.313985 0.768897 0.916347
C39   C     C_2   0.487105 0.685008 0.229306 0.930676
C40   C     C_3   0.496298 0.684118 0.763224 -0.851456
C41   C     C_3   0.542678 0.314360 0.238473 -0.840583
C42   C     C_2   0.351220 0.762134 0.894310 0.919233
C43   C     C_2   0.421872 0.239638 0.102182 0.934589
C44   C     C_2   0.356255 0.767311 0.090278 0.997331
C45   C     C_R   0.474701 0.407414 0.907419 -0.013159
C46   C     C_2   0.435278 0.232560 0.907168 0.987390
C47   C     C_3   0.774322 0.348415 0.598225 -0.734320
C48   C     C_3   0.225714 0.650905 0.400818 -0.707022
C49   C     C_2   0.873006 0.640383 0.279694 0.896453
C50   C     C_2   0.126725 0.359902 0.720598 0.910509
C51   C     C_3   0.079430 0.600450 0.262087 -0.814208
C52   C     C_3   0.920281 0.399060 0.737597 -0.820588
C53   C     C_R   0.447916 0.592202 0.091375 -0.029325
C54   C     C_R   0.408966 0.679409 0.947359 -0.087870
C55   C     C_R   0.458188 0.320952 0.050847 -0.119821
C56   C     C_R   0.409498 0.680458 0.042526 -0.205332
H1    H     H_    0.740284 0.600997 0.391018 0.176899
H2    H     H_    0.601876 0.328521 0.284107 0.238359
H3    H     H_    0.487219 0.285553 0.279572 0.243592
H4    H     H_    0.576890 0.256493 0.192242 0.257390
H5    H     H_    0.248583 0.802047 0.798917 0.360588
H6    H     H_    0.327444 0.202699 0.193317 0.361257
H7    H     H_    0.263844 0.685786 0.147378 0.300498
H8    H     H_    0.346391 0.182051 0.817618 0.364759
H9    H     H_    0.715816 0.367810 0.646867 0.256539
H10   H     H_    0.832177 0.295475 0.631416 0.230611
H11   H     H_    0.751356 0.304971 0.541917 0.254911
H12   H     H_    0.259685 0.399346 0.609261 0.186458
H13   H     H_    0.283446 0.630929 0.351556 0.271633
H14   H     H_    0.249464 0.694488 0.456619 0.255106
H15   H     H_    0.167711 0.703999 0.368012 0.230965
H16   H     H_    0.838823 0.760349 0.197148 0.370271
H17   H     H_    0.158884 0.241040 0.804834 0.373799
H18   H     H_    0.156345 0.567193 0.260587 0.239587
H19   H     H_    0.043859 0.561753 0.209064 0.251115
H20   H     H_    0.071425 0.680734 0.243653 0.281889
H21   H     H_    0.843304 0.432116 0.738910 0.239602
H22   H     H_    0.928382 0.318745 0.755910 0.277294
H23   H     H_    0.691642 0.832099 0.391892 0.354968
H24   H     H_    0.955598 0.437795 0.790772 0.250581
H25   H     H_    0.310575 0.166712 0.613114 0.357255
H26   H     H_    0.652434 0.284021 0.853677 0.312858
H27   H     H_    0.556447 0.803924 0.229715 0.378818
H28   H     H_    0.560948 0.667989 0.720557 0.234349
H29   H     H_    0.433915 0.714457 0.719273 0.249549
H30   H     H_    0.513238 0.741394 0.810587 0.262560
N1    N     N_R   0.750030 0.500040 0.500070 -0.110691
N2    N     N_R   0.249970 0.499960 0.499930 -0.112267
O1    O     O_R   0.580280 0.500020 0.367860 -0.609447
O2    O     O_R   0.626363 0.865316 0.412753 -0.802569
O3    O     O_2   0.294380 0.013110 0.542502 -0.590528
O4    O     O_R   0.375657 0.133346 0.591899 -0.764882
O5    O     O_2   0.496136 0.287917 0.703243 -0.546409
O6    O     O_R   0.622564 0.254706 0.799917 -0.737458
O7    O     O_2   0.442560 0.711615 0.297191 -0.633241
O8    O     O_R   0.552153 0.742375 0.193252 -0.735026
O9    O     O_2   0.364988 0.847969 0.903278 -0.542609
O10   O     O_R   0.282469 0.740456 0.832038 -0.772710
O11   O     O_2   0.459759 0.153085 0.094756 -0.538742
O12   O     O_R   0.419720 0.499980 0.632140 -0.574461
O13   O     O_R   0.345205 0.263478 0.161085 -0.784099
O14   O     O_2   0.381273 0.848970 0.082743 -0.458959
O15   O     O_R   0.279280 0.756091 0.146274 -0.750951
O16   O     O_2   0.484459 0.150652 0.916545 -0.506890
O17   O     O_R   0.355930 0.245854 0.848351 -0.757549
O18   O     O_2   0.816929 0.594621 0.241022 -0.601839
O19   O     O_R   0.882766 0.736422 0.250309 -0.771790
O20   O     O_2   0.183033 0.405599 0.759017 -0.573149
O21   O     O_R   0.116136 0.264347 0.750746 -0.778248
O22   O     O_R   0.419730 0.500030 0.367840 -0.613612
O23   O     O_R   0.580270 0.499970 0.632160 -0.644402
O24   O     O_R   0.591830 0.359650 0.500030 -0.635096
O25   O     O_R   0.408170 0.640350 0.499970 -0.620308
O26   O     O_R   0.431280 0.359660 0.500010 -0.587709
O27   O     O_R   0.568720 0.640340 0.499990 -0.602211
O28   O     O_2   0.706407 0.987605 0.459528 -0.585580
Zn1   Zn    Zn3+2 0.607200 0.499990 0.500020 0.967779
Zn2   Zn    Zn3+2 0.392800 0.500010 0.499980 0.998786

loop_
_geom_bond_atom_site_label_1
_geom_bond_atom_site_label_2
_ccdc_geom_bond_type
C16   O24   A    
C16   C21   S    
C23   C45   A    
C12   C29   S    
C27   C29   A    
C14   C18   A    
H5    O10   S    
C51   H18   S    
C48   H13   S    
O22   Zn2   S    
C17   O25   A    
H8    O17   S    
C49   O19   S    
C2    C46   S    
C15   C19   A    
C11   C19   A    
C24   C36   S    
C13   C18   A    
H26   O6    S    
C43   O11   D    
C41   H2    S    
N1    Zn1   S    
C2    C55   A    
C42   O10   S    
O24   Zn1   S    
C14   C49   S    
C27   C38   S    
C46   O17   S    
C17   C20   S    
C6    N2    A    
C31   C40   S    
C34   C35   A    
C15   C50   S    
C40   H30   S    
C4    C13   A    
C40   H28   S    
H23   O2    S    
H25   O4    S    
C19   C52   S    
C7    C14   A    
C23   C33   A    
C32   C41   S    
C31   C33   A    
C9    C10   A    
C47   H10   S    
H6    O13   S    
C27   C45   A    
C6    H12   S    
C50   O20   D    
C52   H22   S    
C47   H11   S    
C44   O15   S    
C18   C51   S    
C2    C45   A    
C54   C56   A    
C37   O3    D    
C3    N1    A    
C32   C35   A    
C24   C25   S    
C41   H3    S    
H7    O15   S    
C42   O9    D    
C5    C7    A    
C44   O14   D    
C6    C8    A    
C28   C39   S    
O27   Zn1   S    
C22   C37   S    
C46   O16   D    
C50   O21   S    
C40   H29   S    
C43   O13   S    
C1    O22   A    
C44   C56   S    
H16   O19   S    
C23   C34   A    
C38   O6    S    
C51   H20   S    
C9    C11   A    
C39   O7    D    
C35   C55   A    
O26   Zn2   S    
C43   C55   S    
O1    Zn1   S    
C8    C15   A    
C22   C24   D    
O12   Zn2   S    
C48   H15   S    
N2    Zn2   S    
C52   H21   S    
C36   O28   D    
C51   H19   S    
C17   O27   A    
C4    C48   S    
C53   C56   A    
C36   O2    S    
C33   C54   A    
C7    C9    A    
C21   C25   T    
C1    O1    A    
C37   O4    S    
C41   H4    S    
C48   H14   S    
C10   C13   A    
C16   O26   A    
C28   C53   A    
H17   O21   S    
C49   O18   D    
C4    N2    A    
C5    H1    S    
O23   Zn1   S    
C28   C30   A    
C29   C31   A    
C42   C54   S    
C30   C32   A    
C20   C26   T    
H27   O8    S    
C38   O5    D    
C3    C47   S    
C1    C30   S    
C39   O8    S    
C12   O12   A    
C3    C11   A    
O25   Zn2   S    
C5    N1    A    
C34   C53   A    
C8    C10   A    
C22   C26   S    
C52   H24   S    
C47   H9    S    
C12   O23   A    
