data_mof_unit_32511.cif
_audit_creation_date              2012-10-26T20:55:45-0400
_audit_creation_method            fapswitch 2.2
_symmetry_space_group_name_H-M    P1
_symmetry_Int_Tables_number       1
_space_group_crystal_system       triclinic
_cell_length_a                    10.870938
_cell_length_b                    16.070607
_cell_length_c                    17.249366
_cell_angle_alpha                 97.503316
_cell_angle_beta                  91.540257
_cell_angle_gamma                 91.617536
_cell_volume                      2985.09358928

loop_
_atom_site_label
_atom_site_type_symbol
_atom_type_description
_atom_site_fract_x
_atom_site_fract_y
_atom_site_fract_z
_atom_type_partial_charge
C1    C     C_R   0.502034 0.488549 0.349523 0.542974
C2    C     C_R   0.580265 0.459660 0.769668 -0.149384
C3    C     C_R   0.459598 0.547015 0.147034 0.225665
C4    C     C_R   0.598694 0.466658 0.850289 0.224566
C5    C     C_R   0.498608 0.474150 0.100984 -0.006869
C6    C     C_R   0.547180 0.533596 0.898249 -0.018635
C7    C     C_R   0.541884 0.405717 0.136051 0.261260
C8    C     C_R   0.485113 0.596802 0.864769 0.268160
C9    C     C_R   0.549216 0.410550 0.217896 0.274395
C10   C     C_R   0.464880 0.588248 0.783030 0.265721
C11   C     C_2   0.499532 0.470598 0.015492 -0.033138
C12   C     C_R   0.501441 0.511555 0.650514 0.590310
C13   C     C_2   0.549706 0.534271 0.983180 -0.050289
C14   C     C_R   0.466552 0.746852 0.449393 0.059229
C15   C     C_R   0.516762 0.251717 0.553925 0.057063
C16   C     C_R   0.262347 0.500799 0.497971 0.545832
C17   C     C_R   0.737437 0.499165 0.501992 0.548166
C18   C     C_R   0.476487 0.833259 0.448385 -0.113991
C19   C     C_R   0.511289 0.164615 0.551068 -0.102762
C20   C     C_R   0.534763 0.884589 0.511792 0.027408
C21   C     C_R   0.474370 0.114519 0.481076 0.040083
C22   C     C_R   0.588425 0.846263 0.572433 -0.158177
C23   C     C_R   0.871154 0.497631 0.502027 0.011446
C24   C     C_R   0.438201 0.153757 0.416629 -0.139735
C25   C     C_R   0.578892 0.759098 0.570080 0.028249
C26   C     C_R   0.443687 0.241185 0.422259 0.055268
C27   C     C_2   0.541209 0.977563 0.517176 -0.126181
C28   C     C_2   0.469035 0.021723 0.473849 -0.129618
C29   C     C_R   0.173036 0.791997 0.465010 0.152853
C30   C     C_R   0.820427 0.210209 0.542550 0.154221
C31   C     C_R   0.143003 0.716457 0.494461 -0.084854
C32   C     C_R   0.859769 0.281894 0.510275 -0.111844
C33   C     C_R   0.116174 0.642403 0.443492 0.030490
C34   C     C_R   0.128204 0.502000 0.497480 0.005543
C35   C     C_R   0.881015 0.358828 0.558017 0.043243
C36   C     C_R   0.118534 0.643047 0.362109 0.285982
C37   C     C_R   0.863045 0.364413 0.638988 0.291998
C38   C     C_R   0.150275 0.717863 0.332675 -0.141200
C39   C     C_R   0.819395 0.293577 0.670762 -0.154888
C40   C     C_R   0.176931 0.791477 0.383589 -0.160852
C41   C     C_R   0.799559 0.216913 0.623144 -0.135265
C42   C     C_R   0.933660 0.566019 0.477252 -0.119818
C43   C     C_R   0.065322 0.432990 0.521396 -0.150024
C44   C     C_3   0.694634 0.335243 0.069473 -0.092839
C45   C     C_R   0.937856 0.430308 0.524817 0.000748
C46   C     C_3   0.516864 0.726811 0.934393 -0.125905
C47   C     C_3   0.784313 0.434239 0.898910 -0.140822
C48   C     C_3   0.440229 0.690593 0.145704 -0.123298
C49   C     C_3   0.237079 0.868132 0.594750 -0.303621
C50   C     C_3   0.867259 0.062658 0.512482 -0.305999
C51   C     C_3   0.167314 0.534553 0.271255 -0.123968
C52   C     C_3   0.997838 0.437354 0.726979 -0.129973
C53   C     C_3   0.435210 0.719201 0.747165 -0.074100
C54   C     C_3   0.716315 0.362727 0.279025 -0.092649
C55   C     C_R   0.061012 0.569309 0.474802 0.006662
C56   C     C_R   0.506223 0.482345 0.264131 -0.075326
C57   C     C_R   0.513524 0.519460 0.735809 -0.063563
C58   C     C_R   0.463724 0.549864 0.228475 -0.205859
Cu1   Cu    Cu3+1 0.493640 0.415410 0.495980 0.955383
Cu2   Cu    Cu3+1 0.506360 0.584590 0.504020 0.947266
H1    H     H_    0.198122 0.848874 0.359353 0.100305
H2    H     H_    0.407053 0.117025 0.362129 0.093541
H3    H     H_    0.535237 0.137362 0.603332 0.083897
H4    H     H_    0.438543 0.858440 0.398195 0.079212
H5    H     H_    0.134495 0.715143 0.556622 0.123603
H6    H     H_    0.876356 0.277512 0.448223 0.096768
H7    H     H_    0.148869 0.719922 0.270183 0.122351
H8    H     H_    0.801801 0.297904 0.732622 0.132876
H9    H     H_    0.882952 0.617294 0.458161 0.145846
H10   H     H_    0.115809 0.381432 0.540057 0.128917
H11   H     H_    0.428295 0.603541 0.264456 0.126096
H12   H     H_    0.765497 0.163245 0.648972 0.111358
H13   H     H_    0.619212 0.407395 0.733387 0.164140
H14   H     H_    0.589809 0.588496 0.020040 0.130529
H15   H     H_    0.463719 0.414395 0.979037 0.173118
H16   H     H_    0.731102 0.399725 0.063988 0.093243
H17   H     H_    0.703682 0.296748 0.011794 0.161491
H18   H     H_    0.752324 0.306827 0.112380 0.128713
H19   H     H_    0.581527 0.737916 0.887484 0.077346
H20   H     H_    0.570468 0.715749 0.987333 0.107589
H21   H     H_    0.466691 0.785566 0.949670 0.131443
H22   H     H_    0.789098 0.484867 0.949492 0.110376
H23   H     H_    0.419533 0.707784 0.401265 0.120127
H24   H     H_    0.827493 0.456935 0.847533 0.150614
H25   H     H_    0.839052 0.381524 0.915023 0.121535
H26   H     H_    0.540124 0.695997 0.162483 0.100519
H27   H     H_    0.382976 0.710133 0.196884 0.102684
H28   H     H_    0.423403 0.735223 0.102972 0.149828
H29   H     H_    0.227494 0.918999 0.488893 0.245566
H30   H     H_    0.262109 0.932996 0.622270 0.135757
H31   H     H_    0.319877 0.829442 0.595533 0.156850
H32   H     H_    0.164092 0.843039 0.629889 0.146602
H33   H     H_    0.794308 0.137431 0.434246 0.250544
H34   H     H_    0.547981 0.289702 0.607469 0.127575
H35   H     H_    0.840600 0.005714 0.471138 0.150735
H36   H     H_    0.848359 0.048893 0.572490 0.142667
H37   H     H_    0.967297 0.076465 0.507575 0.146499
H38   H     H_    0.130147 0.475512 0.237108 0.142696
H39   H     H_    0.240759 0.517223 0.311867 0.119650
H40   H     H_    0.205280 0.574344 0.228957 0.143257
H41   H     H_    0.074902 0.426501 0.686098 0.129925
H42   H     H_    0.995902 0.388629 0.767249 0.100318
H43   H     H_    0.016432 0.499013 0.763028 0.153106
H44   H     H_    0.537635 0.720438 0.744529 0.075761
H45   H     H_    0.415686 0.271126 0.372369 0.154241
H46   H     H_    0.405722 0.763147 0.797720 0.140569
H47   H     H_    0.399218 0.742712 0.693645 0.127576
H48   H     H_    0.774355 0.387741 0.234608 0.089867
H49   H     H_    0.758272 0.304421 0.293738 0.130958
H50   H     H_    0.719154 0.408425 0.333174 0.139299
H51   H     H_    0.622011 0.729282 0.615968 0.117269
H52   H     H_    0.404430 0.989812 0.430258 0.100959
H53   H     H_    0.606487 0.010677 0.559860 0.129170
H54   H     H_    0.636468 0.883478 0.621504 0.081161
N1    N     N_R   0.515930 0.711660 0.510070 -0.229064
N2    N     N_R   0.484070 0.288340 0.489930 -0.232498
N3    N     N_2   0.192345 0.869743 0.515147 -0.514700
N4    N     N_2   0.796842 0.132720 0.493347 -0.511478
O1    O     O_R   0.494030 0.420280 0.382610 -0.476701
O2    O     O_3   0.429500 0.660637 0.911644 -0.517980
O3    O     O_3   0.661902 0.404893 0.881737 -0.571439
O4    O     O_3   0.404048 0.609068 0.110160 -0.540648
O5    O     O_3   0.070795 0.574444 0.312511 -0.575661
O6    O     O_3   0.883957 0.440034 0.686335 -0.579815
O7    O     O_3   0.382123 0.638534 0.749942 -0.531095
O8    O     O_3   0.593976 0.343213 0.251278 -0.530514
O9    O     O_R   0.505970 0.579720 0.617390 -0.476502
O10   O     O_R   0.504770 0.563150 0.389400 -0.527888
O11   O     O_R   0.495230 0.436850 0.610600 -0.524793
O12   O     O_R   0.314270 0.428570 0.496610 -0.512443
O13   O     O_R   0.685730 0.571430 0.503390 -0.510268
O14   O     O_R   0.325020 0.571440 0.503400 -0.498498
O15   O     O_R   0.674980 0.428560 0.496600 -0.501412
O16   O     O_3   0.569949 0.331889 0.090126 -0.537989

loop_
_geom_bond_atom_site_label_1
_geom_bond_atom_site_label_2
_ccdc_geom_bond_type
C33   C55   S    
C30   C32   A    
C52   H43   S    
C23   C45   A    
C17   O13   A    
C51   O5    S    
C39   H8    S    
C14   C18   A    
C1    O10   A    
C49   H30   S    
C50   H36   S    
Cu2   O14   S    
C15   H34   S    
C2    C57   A    
C39   C41   A    
C12   O9    A    
C28   H52   S    
Cu1   O12   S    
C15   C19   A    
C54   O8    S    
C52   H42   S    
C17   C23   S    
C23   C42   A    
C47   H25   S    
C44   H17   S    
C35   C37   A    
C1    C56   S    
C24   C26   A    
C5    C11   S    
C25   N1    A    
C48   O4    S    
C46   H19   S    
C50   H35   S    
C47   O3    S    
C53   H44   S    
C14   N1    A    
C37   O6    S    
C11   C13   D    
C33   C36   A    
C26   H45   S    
C31   H5    S    
C1    O1    A    
C47   H22   S    
C44   H16   S    
C16   C34   S    
C53   H46   S    
C49   N3    S    
C19   H3    S    
Cu1   N2    S    
C22   C25   A    
Cu1   O1    S    
C48   H28   S    
C30   C41   A    
C10   O7    S    
C16   O12   A    
C3    O4    S    
C51   H38   S    
C34   C55   A    
C44   O16   S    
C14   H23   S    
C49   H31   S    
Cu2   O13   S    
C51   H39   S    
C52   H41   S    
C12   O11   A    
C32   C35   A    
Cu2   O10   S    
C10   C57   A    
C7    O16   S    
C4    C6    A    
C5    C7    A    
C6    C8    A    
C30   N4    S    
C29   N3    S    
Cu1   O15   S    
C42   H9    S    
C40   H1    S    
C54   H49   S    
C54   H50   S    
C2    C4    A    
Cu1   Cu2   S    
C42   C55   A    
C46   H21   S    
C53   H47   S    
C36   O5    S    
C31   C33   A    
C48   H27   S    
C46   O2    S    
C9    C56   A    
C47   H24   S    
C38   H7    S    
C43   C45   A    
C2    H13   S    
C53   O7    S    
C41   H12   S    
C12   C57   S    
C27   H53   S    
C8    C10   A    
C21   C28   S    
C20   C22   A    
C43   H10   S    
C17   O15   A    
C48   H26   S    
H33   N4    S    
C49   H32   S    
C35   C45   S    
C8    O2    S    
C32   H6    S    
C51   H40   S    
C7    C9    A    
Cu1   O11   S    
C50   H37   S    
C24   H2    S    
C19   C21   A    
C50   N4    S    
Cu2   O9    S    
C34   C43   A    
H29   N3    S    
C3    C5    A    
C20   C27   S    
C9    O8    S    
C54   H48   S    
C44   H18   S    
C29   C31   A    
C11   H15   S    
C6    C13   S    
C38   C40   A    
C52   O6    S    
C18   H4    S    
C29   C40   A    
C36   C38   A    
C56   C58   A    
C4    O3    S    
C18   C20   A    
C16   O14   A    
C26   N2    A    
C58   H11   S    
C25   H51   S    
C3    C58   A    
C22   H54   S    
C13   H14   S    
C37   C39   A    
C21   C24   A    
C27   C28   D    
C15   N2    A    
Cu2   N1    S    
C46   H20   S    
