data_mof_unit_48640.cif
_audit_creation_date              2012-12-10T18:51:30-0500
_audit_creation_method            fapswitch 2.2
_symmetry_space_group_name_H-M    P1
_symmetry_Int_Tables_number       1
_space_group_crystal_system       triclinic
_cell_length_a                    10.685922
_cell_length_b                    10.068645
_cell_length_c                    10.65164
_cell_angle_alpha                 87.94543
_cell_angle_beta                  93.714426
_cell_angle_gamma                 90.156171
_cell_volume                      1142.89655883

loop_
_atom_site_label
_atom_site_type_symbol
_atom_type_description
_atom_site_fract_x
_atom_site_fract_y
_atom_site_fract_z
_atom_type_partial_charge
C1    C     C_R   0.872701 0.508587 0.506617 -0.132050
C2    C     C_3   0.410380 0.415786 0.037993 0.194765
C3    C     C_3   0.387451 0.534603 0.944961 0.139202
C4    C     C_3   0.610935 0.463157 0.054775 0.143624
C5    C     C_3   0.504042 0.493265 0.876926 -0.290622
C6    C     C_3   0.494736 0.505127 0.122952 -0.290001
C7    C     C_R   0.587924 0.069053 0.572064 0.210170
C8    C     C_R   0.412334 0.930951 0.427692 0.210968
C9    C     C_R   0.412524 0.073712 0.427029 0.202884
C10   C     C_R   0.587311 0.926211 0.573327 0.202741
C11   C     C_R   0.070470 0.420660 0.591645 0.132139
C12   C     C_R   0.127340 0.493556 0.494943 -0.133716
C13   C     C_R   0.930524 0.586533 0.413861 0.123119
C14   C     C_R   0.942139 0.436256 0.602366 0.178271
C15   C     C_R   0.057594 0.566925 0.400126 0.176987
C16   C     C_3   0.691530 0.139142 0.644845 -0.855160
C17   C     C_3   0.309596 0.861144 0.353443 -0.854078
C18   C     C_3   0.315672 0.146324 0.341823 -0.825308
C19   C     C_3   0.683543 0.853530 0.659503 -0.822533
C20   C     C_3   0.165994 0.604133 0.948774 -0.837461
C21   C     C_3   0.832127 0.392037 0.048034 -0.836886
C22   C     C_3   0.419637 0.852784 0.958430 -0.777777
C23   C     C_R   0.260770 0.498812 0.497767 0.897912
C24   C     C_3   0.580626 0.147086 0.043868 -0.747562
C25   C     C_3   0.750414 0.750772 0.007278 -0.819333
C26   C     C_3   0.246020 0.248925 0.995907 -0.803074
C27   C     C_3   0.146263 0.323335 0.678509 -0.830536
C28   C     C_3   0.859596 0.697380 0.338581 -0.850749
C29   C     C_3   0.884175 0.392713 0.723312 -0.964157
C30   C     C_3   0.112995 0.608177 0.277290 -0.959590
C31   C     C_R   0.739228 0.501570 0.501515 0.893453
C32   C     C_R   0.495905 0.502083 0.257936 0.867534
C33   C     C_R   0.503718 0.497651 0.742036 0.872378
C34   C     C_3   0.471794 0.624217 0.028165 0.180602
C35   C     C_3   0.526369 0.374220 0.971504 0.193975
C36   C     C_3   0.588541 0.582524 0.962206 0.173395
H1    H     H_    0.662875 0.238691 0.667178 0.287644
H2    H     H_    0.672821 0.746562 0.662682 0.294280
H3    H     H_    0.779514 0.877218 0.631227 0.218446
H4    H     H_    0.673689 0.882191 0.757682 0.226155
H5    H     H_    0.279222 0.630932 0.797944 0.245222
H6    H     H_    0.080950 0.620969 0.884758 0.244808
H7    H     H_    0.186237 0.696308 0.999991 0.247068
H8    H     H_    0.145425 0.522628 0.016332 0.253635
H9    H     H_    0.751679 0.472109 0.201442 0.231282
H10   H     H_    0.907090 0.342282 0.109540 0.247246
H11   H     H_    0.871321 0.484586 0.007390 0.241536
H12   H     H_    0.716736 0.091287 0.738026 0.201769
H13   H     H_    0.803719 0.324351 0.971770 0.254517
H14   H     H_    0.367060 0.756131 0.121282 0.227245
H15   H     H_    0.396663 0.950624 0.995395 0.237600
H16   H     H_    0.339717 0.824064 0.893874 0.242606
H17   H     H_    0.504771 0.862627 0.904751 0.273244
H18   H     H_    0.625323 0.238718 0.875627 0.223872
H19   H     H_    0.604358 0.048841 0.008295 0.228177
H20   H     H_    0.496936 0.136793 0.099684 0.269535
H21   H     H_    0.661464 0.178786 0.106011 0.267307
H22   H     H_    0.742869 0.623383 0.857635 0.220841
H23   H     H_    0.775638 0.143664 0.588901 0.245195
H24   H     H_    0.806288 0.827153 0.958095 0.233846
H25   H     H_    0.815359 0.688845 0.069398 0.245890
H26   H     H_    0.684300 0.802233 0.065179 0.277846
H27   H     H_    0.261475 0.371055 0.149364 0.213256
H28   H     H_    0.202167 0.163661 0.045284 0.229192
H29   H     H_    0.307167 0.209454 0.925613 0.276723
H30   H     H_    0.170155 0.309829 0.947890 0.252920
H31   H     H_    0.182400 0.242584 0.622583 0.252951
H32   H     H_    0.226105 0.374455 0.727572 0.259845
H33   H     H_    0.091751 0.272160 0.750151 0.231294
H34   H     H_    0.336959 0.760533 0.333381 0.290575
H35   H     H_    0.834933 0.775278 0.403883 0.255862
H36   H     H_    0.913763 0.748378 0.266336 0.233553
H37   H     H_    0.771983 0.661206 0.290646 0.240001
H38   H     H_    0.787019 0.428849 0.729442 0.219196
H39   H     H_    0.884608 0.283203 0.735328 0.250882
H40   H     H_    0.940138 0.434837 0.803725 0.251386
H41   H     H_    0.208084 0.567444 0.268160 0.217374
H42   H     H_    0.052015 0.569255 0.198709 0.248754
H43   H     H_    0.117088 0.717456 0.265252 0.251454
H44   H     H_    0.223756 0.859592 0.406855 0.241740
H45   H     H_    0.288013 0.907861 0.259083 0.201930
H46   H     H_    0.327186 0.253094 0.338359 0.292038
H47   H     H_    0.324482 0.117592 0.243604 0.225225
H48   H     H_    0.219999 0.123063 0.371200 0.220591
N1    N     N_R   0.500000 0.857200 0.500000 -0.118001
N2    N     N_R   0.500000 0.142800 0.500000 -0.117451
N3    N     N_2   0.269693 0.569146 0.875935 -0.297181
N4    N     N_2   0.727464 0.421029 0.121929 -0.282837
N5    N     N_2   0.439320 0.756919 0.062256 -0.285815
N6    N     N_2   0.556731 0.240448 0.938634 -0.289508
N7    N     N_2   0.684203 0.669690 0.915393 -0.297324
N8    N     N_2   0.316648 0.327413 0.086650 -0.299171
O1    O     O_R   0.316770 0.614620 0.499990 -0.616721
O2    O     O_R   0.683230 0.385380 0.500010 -0.610466
O3    O     O_R   0.683230 0.614620 0.500010 -0.630810
O4    O     O_R   0.316770 0.385380 0.499990 -0.633601
O5    O     O_R   0.499970 0.614650 0.313950 -0.629411
O6    O     O_R   0.500030 0.385350 0.686050 -0.627644
O7    O     O_R   0.500030 0.614650 0.686050 -0.618156
O8    O     O_R   0.499970 0.385350 0.313950 -0.604235
Zn1   Zn    Zn3+2 0.500000 0.653120 0.500000 0.922362
Zn2   Zn    Zn3+2 0.500000 0.346880 0.500000 0.928893

loop_
_geom_bond_atom_site_label_1
_geom_bond_atom_site_label_2
_ccdc_geom_bond_type
C2    C35   S    
C7    C10   A    
C6    C32   S    
C4    C36   S    
C10   N1    A    
O4    Zn2   S    
C16   H12   S    
C21   H13   S    
C29   H40   S    
C28   H36   S    
C32   O5    A    
C24   H19   S    
C12   C23   S    
C8    N1    A    
H18   N6    S    
C11   C14   A    
C7    N2    A    
C26   N8    S    
C5    C36   S    
C1    C31   S    
C23   O4    A    
C33   O6    A    
C26   H28   S    
C27   H32   S    
C30   H41   S    
C8    C9    A    
C5    C33   S    
H27   N8    S    
C18   H48   S    
C13   C28   S    
C25   H24   S    
H22   N7    S    
C17   H45   S    
C27   H33   S    
C16   H1    S    
C21   N4    S    
C17   H34   S    
C2    C6    S    
C28   H37   S    
C20   H8    S    
C22   H17   S    
H5    N3    S    
C32   O8    A    
C25   N7    S    
C3    N3    S    
C26   H30   S    
H9    N4    S    
C4    C6    S    
O1    Zn1   S    
C24   H21   S    
C29   H38   S    
C3    C34   S    
O6    Zn2   S    
C17   H44   S    
C23   O1    A    
C33   O7    A    
C16   H23   S    
C19   H2    S    
C9    N2    A    
H14   N5    S    
C12   C15   A    
C11   C27   S    
C10   C19   S    
O8    Zn2   S    
C18   H47   S    
C25   H25   S    
C2    N8    S    
C19   H3    S    
C4    N4    S    
C30   H43   S    
C36   N7    S    
C7    C16   S    
O7    Zn1   S    
C13   C15   A    
C28   H35   S    
C1    C13   A    
C14   C29   S    
N2    Zn2   S    
C20   H7    S    
N1    Zn1   S    
C15   C30   S    
C22   H16   S    
C21   H10   S    
C26   H29   S    
C3    C5    S    
C24   N6    S    
C20   H6    S    
C11   C12   A    
C29   H39   S    
C24   H20   S    
C31   O2    A    
C8    C17   S    
C2    C3    S    
C34   N5    S    
C20   N3    S    
C31   O3    A    
C5    C35   S    
C18   H46   S    
C22   N5    S    
C34   C36   S    
C25   H26   S    
C4    C35   S    
C27   H31   S    
C19   H4    S    
C30   H42   S    
C35   N6    S    
C6    C34   S    
C9    C18   S    
O2    Zn2   S    
C1    C14   A    
O5    Zn1   S    
O3    Zn1   S    
C22   H15   S    
C21   H11   S    
