data_mof_unit_31777.cif
_audit_creation_date              2012-12-10T17:08:41-0500
_audit_creation_method            fapswitch 2.2
_symmetry_space_group_name_H-M    P1
_symmetry_Int_Tables_number       1
_space_group_crystal_system       triclinic
_cell_length_a                    19.38634
_cell_length_b                    18.301818
_cell_length_c                    18.752836
_cell_angle_alpha                 108.40108
_cell_angle_beta                  110.461787
_cell_angle_gamma                 109.764662
_cell_volume                      5107.10613396

loop_
_atom_site_label
_atom_site_type_symbol
_atom_type_description
_atom_site_fract_x
_atom_site_fract_y
_atom_site_fract_z
_atom_type_partial_charge
C1    C     C_R   0.381668 0.379274 0.501002 0.860055
C2    C     C_R   0.230289 0.264053 0.421472 0.108397
C3    C     C_2   0.034736 0.609203 0.272012 0.440325
C4    C     C_2   0.061730 0.799219 0.099460 0.468541
C5    C     C_3   0.919810 0.830996 0.007570 -0.508314
C6    C     C_3   0.946606 0.929396 0.042583 -0.688732
C7    C     C_2   0.769322 0.349932 0.673980 0.502236
C8    C     C_3   0.067880 0.757161 0.425480 -0.339696
C9    C     C_3   0.164670 0.804253 0.469827 -0.845513
C10   C     C_2   0.757486 0.487601 0.590606 0.422486
C11   C     C_2   0.910730 0.529933 0.737471 0.527123
C12   C     C_2   0.633413 0.554344 0.792921 0.514350
C13   C     C_R   0.312132 0.312748 0.496740 -0.092136
C14   C     C_3   0.733778 0.511332 0.903734 -0.381009
C15   C     C_3   0.742995 0.586065 0.979487 -0.930004
C16   C     C_R   0.621027 0.501155 0.620823 0.883964
C17   C     C_R   0.326623 0.298883 0.568728 -0.005373
C18   C     C_R   0.263396 0.227676 0.560079 -0.208871
C19   C     C_R   0.182789 0.174303 0.484436 -0.117526
C20   C     C_R   0.387771 0.677325 0.394940 0.117469
C21   C     C_R   0.372170 0.748778 0.414240 -0.138109
C22   C     C_R   0.299271 0.742052 0.355340 0.153898
C23   C     C_R   0.238273 0.660214 0.280406 -0.247459
C24   C     C_3   0.810194 0.496654 0.803929 -0.176532
C25   C     C_R   0.246023 0.583138 0.264454 0.060268
C26   C     C_R   0.319623 0.589336 0.324455 0.082143
C27   C     C_R   0.321452 0.508124 0.309208 -0.151976
C28   C     C_R   0.615887 0.622051 0.496833 0.846772
C29   C     C_R   0.257331 0.426852 0.229700 -0.094102
C30   C     C_R   0.184868 0.422098 0.171792 -0.119222
C31   C     C_R   0.181216 0.500618 0.188274 -0.145990
C32   C     C_R   0.620128 0.598498 0.332977 -0.002195
C33   C     C_R   0.642040 0.563277 0.271099 -0.036750
C34   C     C_R   0.728947 0.599981 0.296066 0.052318
C35   C     C_3   0.852684 0.556906 0.764493 0.025477
C36   C     C_R   0.790344 0.680060 0.376885 -0.030540
C37   C     C_R   0.764658 0.722039 0.431482 0.011215
C38   C     C_R   0.684965 0.671047 0.418421 -0.005318
C39   C     C_R   0.674986 0.693050 0.492347 -0.214424
C40   C     C_R   0.382058 0.502897 0.378360 0.783746
C41   C     C_R   0.731675 0.779251 0.567417 -0.024161
C42   C     C_R   0.804871 0.837959 0.573418 0.089630
C43   C     C_R   0.818545 0.810170 0.503032 -0.057918
C44   C     C_R   0.001633 0.378692 0.882694 0.839626
C45   C     C_R   0.877439 0.497320 0.873319 0.825093
C46   C     C_3   0.770725 0.545531 0.850387 -0.074984
C47   C     C_R   0.998769 0.621906 0.117119 0.847070
C48   C     C_R   0.116648 0.499565 0.118755 0.829143
C49   C     C_R   0.997901 0.118245 0.619232 0.810674
C50   C     C_R   0.118363 0.114210 0.493041 0.868711
C51   C     C_R   0.995112 0.873837 0.380306 0.838402
C52   C     C_3   0.662113 0.402687 0.665484 -0.196184
C53   C     C_R   0.881265 0.876785 0.498562 0.843418
C54   C     C_R   0.165025 0.405340 0.881763 0.148257
C55   C     C_R   0.223437 0.439349 0.855166 0.119856
C56   C     C_R   0.206900 0.384991 0.771340 -0.029201
C57   C     C_R   0.211136 0.292537 0.359287 -0.211867
C58   C     C_R   0.135470 0.298996 0.718549 -0.182205
C59   C     C_R   0.072702 0.270590 0.740630 0.040052
C60   C     C_R   0.082224 0.329459 0.817252 0.051110
C61   C     C_R   0.008067 0.310107 0.824629 -0.140242
C62   C     C_R   0.932695 0.228202 0.765041 -0.149073
C63   C     C_R   0.926653 0.165018 0.694989 -0.043612
C64   C     C_3   0.736080 0.393990 0.726954 0.045808
C65   C     C_R   0.998501 0.185699 0.685124 -0.139509
C66   C     C_R   0.987769 0.779384 0.112892 -0.090973
C67   C     C_R   0.928048 0.805133 0.078042 0.117405
C68   C     C_R   0.129438 0.248382 0.288302 -0.149110
C69   C     C_R   0.874305 0.808584 0.111563 -0.100094
C70   C     C_R   0.889544 0.802935 0.187305 -0.132078
C71   C     C_R   0.954817 0.786480 0.227020 0.018641
C72   C     C_R   0.987927 0.754843 0.177936 0.059402
C73   C     C_R   0.010013 0.692121 0.190352 -0.176019
C74   C     C_R   0.023876 0.684325 0.265975 -0.071589
C75   C     C_R   0.026511 0.748133 0.334285 0.122562
C76   C     C_3   0.774778 0.544897 0.682616 -0.103443
C77   C     C_R   0.988925 0.799488 0.313190 -0.203692
C78   C     C_3   0.709921 0.560074 0.783770 -0.194110
C79   C     C_R   0.066383 0.168730 0.271195 0.037807
C80   C     C_3   0.690668 0.502794 0.688189 -0.137481
C81   C     C_2   0.795179 0.634223 0.683321 0.285138
C82   C     C_3   0.914514 0.660305 0.839382 -0.431694
C83   C     C_3   0.990818 0.718762 0.836000 -0.768024
C84   C     C_2   0.401983 0.361631 0.657758 0.392502
C85   C     C_2   0.980623 0.124021 0.192690 0.395531
C86   C     C_2   0.036420 0.037587 0.296999 0.426902
C87   C     C_2   0.264001 0.344987 0.205331 0.564930
C88   C     C_2   0.572748 0.352937 0.650460 0.290799
C89   C     C_3   0.481133 0.704262 0.441678 -0.356448
C90   C     C_R   0.086696 0.134321 0.329018 -0.091144
C91   C     C_3   0.536357 0.779132 0.431758 -0.708593
C92   C     C_3   0.288318 0.822099 0.363151 -0.377030
C93   C     C_3   0.347244 0.905490 0.453512 -0.870496
C94   C     C_2   0.112739 0.335082 0.092701 0.349049
C95   C     C_2   0.713134 0.811095 0.637871 0.446673
C96   C     C_2   0.529714 0.570957 0.302051 0.414597
C97   C     C_2   0.575033 0.488191 0.180721 0.400018
C98   C     C_3   0.756231 0.551472 0.238932 -0.402454
C99   C     C_3   0.771289 0.592620 0.182946 -0.883142
C100  C     C_2   0.881007 0.707260 0.412725 0.351250
C101  C     C_R   0.165406 0.189114 0.411090 0.009968
C102  C     C_3   0.698825 0.322938 0.755324 -0.284929
C103  C     C_3   0.743697 0.270078 0.774300 -0.799016
C104  C     C_3   0.873572 0.924109 0.659569 -0.399407
C105  C     C_3   0.929447 0.905192 0.723301 -0.787241
C106  C     C_3   0.195673 0.439346 0.978478 -0.414206
C107  C     C_3   0.266518 0.421560 0.022123 -0.708634
C108  C     C_3   0.300261 0.533805 0.913726 -0.458734
C109  C     C_3   0.284851 0.596840 0.881436 -0.802862
C110  C     C_2   0.263872 0.415034 0.737760 0.404196
C111  C     C_2   0.843582 0.080381 0.630637 0.389465
H1    H     H_    0.649036 0.367260 0.598173 0.190703
H2    H     H_    0.824439 0.822339 0.082912 0.169035
H3    H     H_    0.848136 0.808919 0.212325 0.180378
H4    H     H_    0.745898 0.630919 0.802844 0.202865
H5    H     H_    0.840711 0.661176 0.664578 0.116290
H6    H     H_    0.039901 0.698778 0.851741 0.264293
H7    H     H_    0.971741 0.715615 0.771760 0.277168
H8    H     H_    0.021092 0.789470 0.885943 0.221849
H9    H     H_    0.878527 0.695384 0.842850 0.210463
H10   H     H_    0.943070 0.668876 0.905525 0.203639
H11   H     H_    0.424078 0.336281 0.700715 0.102375
H12   H     H_    0.824611 0.612876 0.903185 0.153020
H13   H     H_    0.924050 0.079659 0.188672 0.134568
H14   H     H_    0.068830 0.003231 0.316719 0.061441
H15   H     H_    0.218718 0.285955 0.199788 0.053599
H16   H     H_    0.517809 0.322728 0.586057 0.095829
H17   H     H_    0.504898 0.765755 0.363276 0.279807
H18   H     H_    0.548423 0.844727 0.476088 0.254653
H19   H     H_    0.599090 0.784186 0.448867 0.263510
H20   H     H_    0.504777 0.726881 0.512230 0.235638
H21   H     H_    0.490348 0.648396 0.414384 0.202480
H22   H     H_    0.343485 0.889185 0.504758 0.264085
H23   H     H_    0.257835 0.352602 0.367820 0.131081
H24   H     H_    0.414112 0.935208 0.468033 0.267938
H25   H     H_    0.327451 0.955950 0.454690 0.263881
H26   H     H_    0.298768 0.839309 0.314627 0.245272
H27   H     H_    0.221394 0.803308 0.345001 0.216896
H28   H     H_    0.047378 0.316840 0.074430 0.137142
H29   H     H_    0.720752 0.786994 0.684266 0.151392
H30   H     H_    0.487199 0.508450 0.293285 0.164846
H31   H     H_    0.584868 0.483163 0.126296 0.075538
H32   H     H_    0.710883 0.583996 0.136522 0.250489
H33   H     H_    0.818280 0.664767 0.224597 0.253146
H34   H     H_    0.115844 0.276233 0.245532 0.169367
H35   H     H_    0.795828 0.559959 0.145675 0.279359
H36   H     H_    0.814433 0.552163 0.279150 0.239279
H37   H     H_    0.708082 0.479428 0.195593 0.212389
H38   H     H_    0.905643 0.700021 0.369553 0.064433
H39   H     H_    0.712485 0.204354 0.715274 0.267854
H40   H     H_    0.810630 0.305100 0.792429 0.261928
H41   H     H_    0.740448 0.257831 0.827716 0.249107
H42   H     H_    0.690105 0.351045 0.810236 0.230780
H43   H     H_    0.634429 0.268040 0.700263 0.246679
H44   H     H_    0.890697 0.858993 0.738525 0.255131
H45   H     H_    0.275665 0.219141 0.617129 0.160959
H46   H     H_    0.960934 0.874947 0.694819 0.282513
H47   H     H_    0.979446 0.968510 0.785122 0.257802
H48   H     H_    0.915339 0.974507 0.650680 0.193724
H49   H     H_    0.845219 0.957127 0.690402 0.253239
H50   H     H_    0.241850 0.348616 0.992452 0.292070
H51   H     H_    0.322164 0.452714 0.015450 0.241237
H52   H     H_    0.288962 0.449574 0.092924 0.282239
H53   H     H_    0.217414 0.511337 0.012510 0.233109
H54   H     H_    0.143863 0.404513 0.988233 0.218893
H55   H     H_    0.274110 0.575318 0.814350 0.263089
H56   H     H_    0.421932 0.812641 0.471239 0.167840
H57   H     H_    0.228344 0.599090 0.881612 0.263196
H58   H     H_    0.341307 0.665112 0.925608 0.256089
H59   H     H_    0.315316 0.562960 0.982218 0.231862
H60   H     H_    0.358789 0.534075 0.917683 0.198127
H61   H     H_    0.328655 0.470435 0.781209 0.102711
H62   H     H_    0.835491 0.030866 0.573340 0.087688
H63   H     H_    0.073734 0.589805 0.250492 0.051451
H64   H     H_    0.056285 0.792941 0.038272 0.041271
H65   H     H_    0.902196 0.942756 0.061619 0.263622
H66   H     H_    0.012515 0.971673 0.100049 0.252455
H67   H     H_    0.183832 0.658118 0.234908 0.150677
H68   H     H_    0.944808 0.947402 0.990944 0.257717
H69   H     H_    0.958867 0.819274 0.979695 0.194437
H70   H     H_    0.852435 0.789661 0.952845 0.226863
H71   H     H_    0.834900 0.366009 0.704939 0.011598
H72   H     H_    0.184158 0.760431 0.436538 0.256881
H73   H     H_    0.189635 0.867981 0.468814 0.274983
H74   H     H_    0.192768 0.819110 0.538916 0.257514
H75   H     H_    0.051407 0.791373 0.470602 0.256158
H76   H     H_    0.044430 0.691522 0.422329 0.253688
H77   H     H_    0.729059 0.500307 0.537933 0.102461
H78   H     H_    0.876836 0.214804 0.771245 0.200879
H79   H     H_    0.939602 0.496658 0.764379 0.055069
H80   H     H_    0.584512 0.493009 0.779066 0.154357
H81   H     H_    0.808222 0.621480 0.036835 0.265797
H82   H     H_    0.731964 0.635487 0.962774 0.289345
H83   H     H_    0.696507 0.556889 0.998041 0.262587
H84   H     H_    0.665966 0.459030 0.861546 0.241108
H85   H     H_    0.764948 0.481562 0.935755 0.254334
H86   H     H_    0.126412 0.256167 0.656937 0.185434
O1    O     O_R   0.408680 0.356690 0.448550 -0.636595
O2    O     O_R   0.947460 0.091580 0.539110 -0.612875
O3    O     O_R   0.143620 0.091630 0.552020 -0.627589
O4    O     O_R   0.408070 0.460080 0.551430 -0.541023
O5    O     O_R   0.039640 0.091620 0.448010 -0.588207
O6    O     O_R   0.052540 0.908440 0.460910 -0.620766
O7    O     O_R   0.948560 0.908430 0.356900 -0.604189
O8    O     O_R   0.960360 0.908390 0.552000 -0.582305
O9    O     O_R   0.856380 0.908390 0.447990 -0.635633
O10   O     O_R   0.592400 0.448290 0.540670 -0.668474
O11   O     O_R   0.591790 0.551690 0.643550 -0.542355
O12   O     O_R   0.049530 0.460050 0.906180 -0.625613
O13   O     O_R   0.591930 0.539920 0.448570 -0.636142
O14   O     O_R   0.591320 0.643310 0.551450 -0.625920
O15   O     O_R   0.408210 0.448310 0.356450 -0.608055
O16   O     O_R   0.407600 0.551710 0.459330 -0.628189
O17   O     O_R   0.946070 0.356680 0.906240 -0.634391
O18   O     O_2   0.760791 0.675810 0.702074 -0.621896
O19   O     O_2   0.434043 0.442051 0.687431 -0.540091
O20   O     O_2   0.971723 0.138407 0.131641 -0.575730
O21   O     O_2   0.958927 0.996265 0.252048 -0.600079
O22   O     O_2   0.316869 0.341555 0.185376 -0.511833
O23   O     O_R   0.853500 0.448330 0.905250 -0.617656
O24   O     O_2   0.560198 0.347286 0.708267 -0.661892
O25   O     O_2   0.125464 0.283458 0.046642 -0.558578
O26   O     O_2   0.688650 0.864869 0.643835 -0.557959
O27   O     O_2   0.501004 0.614355 0.278334 -0.592941
O28   O     O_2   0.509210 0.430078 0.166236 -0.545402
O29   O     O_2   0.926726 0.731556 0.489473 -0.561591
O30   O     O_2   0.238040 0.378652 0.659536 -0.550188
O31   O     O_2   0.782243 0.064629 0.640713 -0.538593
O32   O     O_2   0.994120 0.563403 0.293948 -0.564313
O33   O     O_2   0.131955 0.825398 0.159260 -0.564990
O34   O     O_R   0.956960 0.551700 0.905190 -0.651600
O35   O     O_2   0.720471 0.285326 0.600461 -0.518028
O36   O     O_2   0.771943 0.426590 0.571842 -0.518275
O37   O     O_2   0.933110 0.553100 0.691135 -0.542927
O38   O     O_2   0.626615 0.620530 0.817330 -0.552198
O39   O     O_R   0.945120 0.539960 0.088480 -0.611441
O40   O     O_R   0.048580 0.643330 0.088420 -0.595325
O41   O     O_R   0.037690 0.448310 0.089470 -0.630004
O42   O     O_R   0.141150 0.551680 0.089410 -0.625828
O43   O     O_R   0.051440 0.091580 0.643120 -0.608277
Zn1   Zn    Zn3+2 0.500410 0.430960 0.431310 1.011835
Zn2   Zn    Zn3+2 0.499590 0.569040 0.568690 1.069837
Zn3   Zn    Zn3+2 0.928250 0.430980 0.997370 0.963811
Zn4   Zn    Zn3+2 0.066400 0.569030 0.997290 0.955429
Zn5   Zn    Zn3+2 0.069430 0.000010 0.569460 0.989179
Zn6   Zn    Zn3+2 0.930570 0.000010 0.430560 1.024096

loop_
_geom_bond_atom_site_label_1
_geom_bond_atom_site_label_2
_ccdc_geom_bond_type
C25   C31   A    
C12   O38   D    
C97   O28   D    
C15   H81   S    
C63   C65   A    
C58   H86   S    
C88   O24   D    
C108  H59   S    
C6    H68   S    
C27   C29   A    
C41   C42   A    
C78   H4    S    
C82   H9    S    
C55   C56   A    
C93   H25   S    
C92   H27   S    
C3    O32   D    
C2    C57   A    
C32   C38   A    
C14   C46   S    
C91   H19   S    
C54   C60   A    
C70   H3    S    
C28   O14   A    
C64   C102  S    
C5    C6    S    
C69   H2    S    
C26   C27   A    
C29   C30   A    
C89   H21   S    
C98   H37   S    
C5    C67   S    
C44   O17   A    
C24   C45   S    
O39   Zn3   S    
C99   H32   S    
C36   C37   A    
O9    Zn6   S    
C37   C38   A    
O11   Zn2   S    
C44   O12   A    
C88   H16   S    
C93   H22   S    
C110  O30   D    
O10   Zn1   S    
C30   C31   A    
C78   C80   S    
C81   O18   D    
C106  C107  S    
C52   H1    S    
C84   H11   S    
C108  C109  S    
C85   H13   S    
C53   O9    A    
C18   C19   A    
C86   O21   D    
C83   H8    S    
C3    C74   S    
C2    C13   A    
C85   O20   D    
C23   H67   S    
O2    Zn6   S    
C34   C98   S    
C96   H30   S    
C47   O40   A    
C15   H83   S    
C10   C76   S    
C43   C53   S    
C66   C72   A    
C1    O1    A    
C109  H58   S    
C8    C9    S    
C79   C90   A    
C4    H64   S    
C12   C78   S    
C40   O16   A    
C10   H77   S    
C57   C68   A    
C70   C71   A    
C106  H53   S    
C89   C91   S    
C102  H43   S    
C82   H10   S    
C33   C97   S    
C103  H39   S    
C103  H40   S    
C16   O10   A    
C68   C79   A    
C66   C67   A    
C1    O4    A    
C59   C60   A    
C24   C64   S    
C21   C22   A    
C86   H14   S    
C94   H28   S    
O14   Zn2   S    
C41   C95   S    
C104  H49   S    
C49   O43   A    
C92   H26   S    
O12   Zn4   S    
C56   C110  S    
C104  C105  S    
C35   C82   S    
C51   O6    A    
C33   C34   A    
C62   H78   S    
C5    H70   S    
C7    O35   D    
C50   O5    A    
C8    H76   S    
O5    Zn6   S    
O23   Zn3   S    
C105  H46   S    
C35   C76   S    
C24   C35   S    
C91   H17   S    
C54   C106  S    
C102  C103  S    
C106  H54   S    
C107  H50   S    
C99   H33   S    
C52   C88   S    
C47   C73   S    
C14   H84   S    
C39   C41   A    
C52   C64   S    
C5    H69   S    
C46   C78   S    
C50   O3    A    
C28   C39   S    
C8    H75   S    
C25   C26   A    
O41   Zn3   S    
C8    C75   S    
C95   O26   D    
O4    Zn2   S    
C60   C61   A    
C16   C80   S    
C4    O33   D    
C37   C43   A    
C51   C77   S    
C90   C101  A    
C62   C63   A    
C9    H72   S    
C109  H57   S    
C3    H63   S    
C53   O8    A    
C105  H47   S    
O6    Zn5   S    
C107  H51   S    
C27   C40   S    
C17   C18   A    
C95   H29   S    
C36   C100  S    
C20   C21   A    
C100  O29   D    
C75   C77   A    
C102  H42   S    
O42   Zn4   S    
C49   C65   S    
C103  H41   S    
C32   C96   S    
C99   H35   S    
C107  H52   S    
C82   C83   S    
C87   O22   D    
C31   C48   S    
C89   H20   S    
C6    H66   S    
C86   C90   S    
O43   Zn5   S    
C100  H38   S    
C46   H12   S    
C1    C13   S    
C42   C43   A    
C111  O31   D    
C104  H48   S    
C73   C74   A    
C71   C77   A    
C48   O42   A    
C18   H45   S    
C51   O7    A    
C83   H7    S    
O1    Zn1   S    
C49   O2    A    
C7    H71   S    
C12   H80   S    
C14   H85   S    
C54   C55   A    
O16   Zn2   S    
C10   O36   D    
C7    C64   S    
O40   Zn4   S    
C105  H44   S    
C111  H62   S    
C22   C23   A    
C76   C80   S    
O13   Zn1   S    
C72   C73   A    
C16   O11   A    
C42   C104  S    
O3    Zn5   S    
C48   O41   A    
C93   H24   S    
C91   H18   S    
C44   C61   S    
O15   Zn1   S    
C45   O34   A    
C20   C89   S    
C40   O15   A    
C9    H74   S    
C76   C81   S    
C21   H56   S    
C13   C17   A    
C55   C108  S    
C17   C84   S    
C24   C46   S    
C32   C33   A    
C11   H79   S    
C11   C35   S    
O34   Zn4   S    
C58   C59   A    
C71   C72   A    
C30   C94   S    
C9    H73   S    
C52   C80   S    
C59   C65   A    
C4    C66   S    
C19   C101  A    
C19   C50   S    
C83   H6    S    
C38   C39   A    
C20   C26   A    
C11   O37   D    
C81   H5    S    
C92   C93   S    
C6    H65   S    
C79   C85   S    
C56   C58   A    
C34   C36   A    
C23   C25   A    
C63   C111  S    
C61   C62   A    
C57   H23   S    
C69   C70   A    
C97   H31   S    
C29   C87   S    
C109  H55   S    
C15   H82   S    
C74   C75   A    
C96   O27   D    
C98   C99   S    
C98   H36   S    
C108  H60   S    
C94   O25   D    
C45   O23   A    
C22   C92   S    
C14   C15   S    
O17   Zn3   S    
O8    Zn5   S    
C2    C101  A    
C67   C69   A    
C47   O39   A    
C28   O13   A    
C87   H15   S    
O7    Zn6   S    
C68   H34   S    
C84   O19   D    
C110  H61   S    
