data_mof_unit_38900.cif
_audit_creation_date              2012-12-10T20:34:55-0500
_audit_creation_method            fapswitch 2.2
_symmetry_space_group_name_H-M    P1
_symmetry_Int_Tables_number       1
_space_group_crystal_system       triclinic
_cell_length_a                    10.662728
_cell_length_b                    10.706145
_cell_length_c                    9.861216
_cell_angle_alpha                 90.058053
_cell_angle_beta                  89.69963
_cell_angle_gamma                 90.842071
_cell_volume                      1125.58645903

loop_
_atom_site_label
_atom_site_type_symbol
_atom_type_description
_atom_site_fract_x
_atom_site_fract_y
_atom_site_fract_z
_atom_type_partial_charge
C1    C     C_R   0.500694 0.260104 0.499911 0.881537
C2    C     C_R   0.459318 0.935730 0.616453 0.178787
C3    C     C_3   0.518174 0.928833 0.753478 -0.476833
C4    C     C_R   0.257871 0.506904 0.500193 0.847199
C5    C     C_3   0.521143 0.070271 0.753003 -0.497596
C6    C     C_R   0.444273 0.403573 0.071649 0.205601
C7    C     C_R   0.564417 0.588654 0.071691 -0.141398
C8    C     C_R   0.564508 0.588598 0.927751 -0.109877
C9    C     C_R   0.444321 0.403911 0.928477 0.147335
C10   C     C_3   0.309618 0.366777 0.919958 -0.525810
C11   C     C_3   0.307541 0.369415 0.074284 -0.003101
C12   C     C_3   0.878081 0.507807 0.497827 0.131276
C13   C     C_R   0.499041 0.739850 0.499858 0.875203
C14   C     C_R   0.742124 0.503007 0.499365 0.843151
C15   C     C_3   0.070936 0.385904 0.560483 -0.462028
C16   C     C_3   0.927117 0.385992 0.562688 -0.385181
C17   C     C_3   0.069113 0.621997 0.589362 -0.138374
C18   C     C_3   0.070385 0.516698 0.349619 0.078712
C19   C     C_3   0.121142 0.511233 0.500240 0.053189
C20   C     C_3   0.335264 0.136386 0.091952 -0.780116
C21   C     C_2   0.109325 0.620606 0.736977 0.903671
C22   C     C_3   0.134310 0.741495 0.296024 -0.762021
C23   C     C_3   0.924566 0.623400 0.578815 -0.455808
C24   C     C_3   0.927640 0.520512 0.350175 -0.440335
C25   C     C_R   0.461234 0.063544 0.616539 0.116065
C26   C     C_R   0.492842 0.128080 0.498543 -0.099382
C27   C     C_R   0.509928 0.064073 0.376302 -0.227022
C28   C     C_R   0.506091 0.935633 0.375478 -0.253991
C29   C     C_R   0.488976 0.871420 0.498040 -0.109563
H1    H     H_    0.106890 0.369852 0.664510 0.216639
H2    H     H_    0.617700 0.110972 0.749645 0.207907
H3    H     H_    0.614555 0.661582 0.125812 0.144247
H4    H     H_    0.103845 0.305625 0.498492 0.155693
H5    H     H_    0.614771 0.661430 0.873243 0.139923
H6    H     H_    0.253065 0.441364 0.874576 0.234652
H7    H     H_    0.296121 0.274448 0.870993 0.203001
H8    H     H_    0.250462 0.446155 0.115878 0.145133
H9    H     H_    0.890559 0.303100 0.506275 0.149637
H10   H     H_    0.893592 0.377741 0.669462 0.213860
H11   H     H_    0.879055 0.625886 0.680627 0.203991
H12   H     H_    0.894089 0.608922 0.304441 0.188411
H13   H     H_    0.094574 0.425293 0.302606 0.114026
H14   H     H_    0.890792 0.442484 0.286128 0.168239
H15   H     H_    0.185077 0.239212 0.164285 0.219977
H16   H     H_    0.324816 0.063131 0.170834 0.243501
H17   H     H_    0.436580 0.150830 0.070075 0.233420
H18   H     H_    0.286030 0.101709 0.000173 0.226921
H19   H     H_    0.223855 0.693236 0.880055 0.329108
H20   H     H_    0.097815 0.598820 0.159018 0.231915
H21   H     H_    0.157611 0.798330 0.204850 0.227710
H22   H     H_    0.212642 0.756292 0.368078 0.242255
H23   H     H_    0.105617 0.711957 0.550706 0.120927
H24   H     H_    0.043936 0.775015 0.337494 0.226462
H25   H     H_    0.895199 0.710336 0.526659 0.136817
H26   H     H_    0.533196 0.112582 0.283171 0.181037
H27   H     H_    0.524732 0.887525 0.280923 0.173535
H28   H     H_    0.452949 0.888535 0.830729 0.219641
H29   H     H_    0.613130 0.887210 0.750926 0.193129
H30   H     H_    0.458089 0.112045 0.829668 0.204953
N1    N     N_R   0.499150 0.499140 0.142800 -0.123545
N2    N     N_R   0.499150 0.499180 0.857150 -0.097863
N3    N     N_2   0.278850 0.250489 0.140548 -0.267387
N4    N     N_2   0.125373 0.611091 0.258409 -0.290077
O1    O     O_R   0.500020 0.316790 0.614690 -0.618023
O2    O     O_R   0.204744 0.702272 0.779946 -0.812530
O3    O     O_R   0.500000 0.316760 0.385350 -0.609189
O4    O     O_R   0.314800 0.500000 0.614670 -0.610159
O5    O     O_R   0.314790 0.499960 0.385330 -0.599767
O6    O     O_R   0.500000 0.683240 0.614650 -0.605126
O7    O     O_R   0.499980 0.683210 0.385310 -0.630126
O8    O     O_R   0.685210 0.500040 0.614670 -0.627306
O9    O     O_R   0.685200 0.500000 0.385330 -0.630559
O10   O     O_2   0.057057 0.551231 0.818798 -0.676872
Zn1   Zn    Zn3+2 0.500010 0.500020 0.653130 0.956837
Zn2   Zn    Zn3+2 0.499990 0.499980 0.346870 0.951741

loop_
_geom_bond_atom_site_label_1
_geom_bond_atom_site_label_2
_ccdc_geom_bond_type
H20   N4    S    
C14   O8    A    
C11   N3    S    
C6    C9    A    
C28   H27   S    
C7    C8    A    
O5    Zn2   S    
C15   C19   S    
C12   C23   S    
C26   C27   A    
C17   C23   S    
C23   H25   S    
C2    C29   A    
C18   C24   S    
C13   C29   S    
C28   C29   A    
C18   H13   S    
C27   H26   S    
C18   N4    S    
C13   O7    A    
C23   H11   S    
C21   O10   D    
C18   C19   S    
C11   H8    S    
C22   N4    S    
C4    C19   S    
C12   C16   S    
C10   H6    S    
H19   O2    S    
C9    C10   S    
C20   H16   S    
C8    N2    A    
C22   H21   S    
C24   H12   S    
O9    Zn2   S    
C17   H23   S    
C22   H24   S    
C5    H30   S    
C6    N1    A    
C6    C11   S    
C4    O5    A    
H15   N3    S    
C25   C26   A    
C17   C21   S    
C4    O4    A    
C1    O3    A    
O6    Zn1   S    
O4    Zn1   S    
C8    H5    S    
C5    C25   S    
C3    H28   S    
C12   C14   S    
C1    C26   S    
C9    N2    A    
C1    O1    A    
C7    N1    A    
C27   C28   A    
C15   H1    S    
C7    H3    S    
C21   O2    S    
C14   O9    A    
C3    C5    S    
O8    Zn1   S    
N2    Zn1   S    
C12   C24   S    
N1    Zn2   S    
C2    C3    S    
C13   O6    A    
O3    Zn2   S    
C17   C19   S    
C2    C25   A    
C20   N3    S    
C20   H18   S    
C10   C11   S    
C16   H10   S    
C3    H29   S    
O7    Zn2   S    
C24   H14   S    
O1    Zn1   S    
C10   H7    S    
C15   H4    S    
C20   H17   S    
C15   C16   S    
C16   H9    S    
C22   H22   S    
C5    H2    S    
