data_mof_unit_15678.cif
_audit_creation_date              2013-03-05T16:06:55-0500
_audit_creation_method            fapswitch 2.2
_symmetry_space_group_name_H-M    P1
_symmetry_Int_Tables_number       1
_space_group_crystal_system       triclinic
_cell_length_a                    10.995758
_cell_length_b                    9.740073
_cell_length_c                    10.961963
_cell_angle_alpha                 91.164502
_cell_angle_beta                  96.920414
_cell_angle_gamma                 94.664982
_cell_volume                      1161.06792884

loop_
_atom_site_label
_atom_site_type_symbol
_atom_site_description
_atom_site_fract_x
_atom_site_fract_y
_atom_site_fract_z
_atom_type_partial_charge
O1    O     O_R   0.319640 0.618740 0.499990 -0.524457
O2    O     O_R   0.680360 0.618740 0.500010 -0.533438
O3    O     O_R   0.319620 0.381170 0.499990 -0.555043
O4    O     O_R   0.680380 0.381170 0.500010 -0.548212
C1    C     C_R   0.263101 0.494083 0.504856 0.888876
C2    C     C_R   0.737939 0.503683 0.496909 0.854946
O5    O     O_R   0.499990 0.618810 0.319660 -0.547588
O6    O     O_R   0.500010 0.618810 0.680340 -0.533712
O7    O     O_R   0.499960 0.381240 0.319650 -0.574015
O8    O     O_R   0.500040 0.381240 0.680350 -0.580499
C3    C     C_R   0.505514 0.498761 0.263531 0.827045
C4    C     C_R   0.499929 0.501565 0.737122 0.853852
Cu1   Cu    Cu3+1 0.500000 0.640660 0.500000 1.131286
Cu2   Cu    Cu3+1 0.500000 0.359340 0.500000 1.089654
C5    C     C_R   0.559880 0.610199 0.071648 -0.093802
C6    C     C_R   0.567068 0.611258 0.947245 -0.010041
C7    C     C_R   0.519081 0.494355 0.131707 -0.117569
C8    C     C_R   0.505259 0.502755 0.871216 -0.126478
C9    C     C_R   0.492489 0.372877 0.058219 0.146336
C10   C     C_R   0.465076 0.382151 0.930393 0.120900
C11   C     C_3   0.579693 0.767884 0.951892 0.294351
C12   C     C_3   0.556144 0.760748 0.087732 0.270055
C13   C     C_R   0.048441 0.369737 0.468742 0.214982
C14   C     C_R   0.921592 0.386161 0.448101 0.254941
C15   C     C_R   0.873603 0.504786 0.494019 -0.342645
C16   C     C_R   0.130253 0.482359 0.517838 -0.317667
C17   C     C_R   0.956929 0.608642 0.554309 0.218346
C18   C     C_R   0.083177 0.594663 0.571250 0.264341
C19   C     C_R   0.415531 0.064573 0.423901 0.224006
C20   C     C_R   0.582181 0.084440 0.579075 0.230324
C21   C     C_R   0.407933 0.917612 0.432246 0.342033
C22   C     C_R   0.590068 0.938295 0.570071 0.285748
N1    N     N_R   0.500000 0.852070 0.500000 -0.297814
N2    N     N_R   0.500000 0.147940 0.500000 -0.272841
I1    I     I_    0.567815 0.189416 0.115332 -0.031079
I2    I     I_    0.333323 0.228449 0.841135 -0.025500
N3    N     N_R   0.706003 0.823811 0.941411 0.161379
O9    O     O_R   0.732680 0.956512 0.945565 -0.248817
O10   O     O_R   0.794623 0.743060 0.939519 -0.234233
N4    N     N_R   0.431703 0.794200 0.105103 0.154477
O11   O     O_R   0.414684 0.916670 0.144175 -0.310842
O12   O     O_R   0.335902 0.713280 0.059627 -0.252501
I3    I     I_    0.447200 0.871657 0.833670 0.006138
I4    I     I_    0.697904 0.846141 0.229673 0.025753
N5    N     N_R   0.089884 0.234479 0.456304 0.170073
O13   O     O_R   0.153851 0.183896 0.549902 -0.259719
O14   O     O_R   0.039295 0.150017 0.367649 -0.195824
N6    N     N_R   0.842514 0.285858 0.372849 0.173930
O15   O     O_R   0.832427 0.296923 0.254186 -0.285478
O16   O     O_R   0.803151 0.171101 0.419320 -0.256475
N7    N     N_R   0.917110 0.734411 0.592500 0.187292
O17   O     O_R   0.918301 0.832245 0.513410 -0.202890
O18   O     O_R   0.934592 0.765870 0.709709 -0.170605
N8    N     N_R   0.162896 0.686072 0.655929 0.175281
O19   O     O_R   0.225332 0.635213 0.750300 -0.321737
O20   O     O_R   0.169034 0.818878 0.643337 -0.200830
I5    I     I_    0.295979 0.151716 0.284679 0.060401
I6    I     I_    0.694773 0.202008 0.727117 -0.012030
N9    N     N_R   0.296621 0.841997 0.377026 0.170762
O21   O     O_R   0.190742 0.879110 0.400867 -0.235046
O22   O     O_R   0.298252 0.742282 0.297285 -0.257168
N10   N     N_R   0.696010 0.885223 0.634511 0.169751
O23   O     O_R   0.799487 0.961438 0.650279 -0.199870
O24   O     O_R   0.687551 0.772192 0.693639 -0.290796

loop_
_geom_bond_atom_site_label_1
_geom_bond_atom_site_label_2
_geom_bond_distance
_ccdc_geom_bond_type
Cu2   N2    2.059051 S    
C20   C22   1.435255 A    
O7    Cu2   1.992722 S    
C21   N1    1.388242 A    
Cu1   N1    2.059149 S    
C6    C11   1.519822 S    
C13   N5    1.437776 S    
C1    C16   1.480116 S    
C15   C17   1.405587 A    
C16   C18   1.395122 A    
C9    C10   1.403648 A    
O6    C4    1.311636 A    
C13   C14   1.408526 A    
C12   N4    1.465440 S    
C22   N1    1.389722 A    
C11   I3    2.159013 S    
N6    O16   1.301450 A    
C22   N10   1.427475 S    
N9    O21   1.300893 A    
C19   C21   1.432477 A    
C6    C8    1.408633 A    
C9    I1    2.105319 S    
C11   C12   1.543836 S    
O5    C3    1.319393 A    
O7    C3    1.311005 A    
N10   O23   1.298291 A    
O3    Cu2   2.011887 S    
O8    C4    1.315903 A    
O1    C1    1.323400 A    
C20   I6    2.165023 S    
N4    O12   1.304538 A    
N6    O15   1.299553 A    
C7    C9    1.408061 A    
N3    O9    1.300557 A    
C17   N7    1.406466 S    
C12   I4    2.166686 S    
C8    C10   1.418291 A    
N5    O14   1.301332 A    
O4    Cu2   1.977496 S    
N8    O20   1.300834 A    
N9    O22   1.296066 A    
C2    C15   1.495050 S    
O1    Cu1   1.977301 S    
C20   N2    1.369092 A    
C21   N9    1.436530 S    
C5    C6    1.375660 A    
C14   N6    1.430806 S    
O6    Cu1   1.992587 S    
N5    O13   1.301219 A    
O5    Cu1   1.983984 S    
N7    O17   1.301602 A    
C14   C15   1.416451 A    
C11   N3    1.468613 S    
N3    O10   1.302862 A    
O4    C2    1.307531 A    
O8    Cu2   1.984092 S    
C13   C16   1.414573 A    
C4    C8    1.463805 S    
C17   C18   1.396340 A    
C5    C7    1.388117 A    
O2    Cu1   2.011831 S    
C18   N8    1.437388 S    
N8    O19   1.300728 A    
N4    O11   1.294703 A    
N10   O24   1.291396 A    
O3    C1    1.309718 A    
Cu1   Cu2   2.740077 S    
C19   N2    1.371488 A    
C5    C12   1.477837 S    
C3    C7    1.470619 S    
O2    C2    1.333021 A    
C19   I5    2.127982 S    
N7    O18   1.302511 A    
C10   I2    2.131538 S    
