data_mof_unit_10827.cif
_audit_creation_date              2012-12-10T18:47:01-0500
_audit_creation_method            fapswitch 2.2
_symmetry_space_group_name_H-M    P1
_symmetry_Int_Tables_number       1
_space_group_crystal_system       triclinic
_cell_length_a                    10.708711
_cell_length_b                    9.825905
_cell_length_c                    14.953304
_cell_angle_alpha                 89.825367
_cell_angle_beta                  90.112169
_cell_angle_gamma                 90.014913
_cell_volume                      1573.41779708

loop_
_atom_site_label
_atom_site_type_symbol
_atom_type_description
_atom_site_fract_x
_atom_site_fract_y
_atom_site_fract_z
_atom_type_partial_charge
C1    C     C_R   0.259843 0.499988 0.499948 0.883459
C2    C     C_R   0.127434 0.499973 0.499932 -0.024685
C3    C     C_R   0.569307 0.071754 0.561072 -0.033231
C4    C     C_R   0.430675 0.928247 0.438943 -0.024490
C5    C     C_R   0.430667 0.072245 0.438954 -0.029359
C6    C     C_R   0.569310 0.927755 0.561063 -0.050578
C7    C     C_R   0.500325 0.500297 0.326673 0.893145
C8    C     C_R   0.499643 0.499709 0.673287 0.890724
C9    C     C_R   0.556350 0.393599 0.814371 -0.094447
C10   C     C_R   0.446440 0.608348 0.185481 -0.104171
C11   C     C_R   0.496660 0.498146 0.768939 -0.116742
C12   C     C_R   0.740156 0.500010 0.500047 0.881804
C13   C     C_R   0.503382 0.501908 0.230953 -0.127523
C14   C     C_R   0.432953 0.599719 0.813875 -0.128925
C15   C     C_R   0.564414 0.398457 0.185932 -0.110906
C16   C     C_R   0.429366 0.600264 0.906822 -0.008630
C17   C     C_R   0.569611 0.399163 0.093059 -0.042378
C18   C     C_R   0.497312 0.498193 0.953564 -0.014400
C19   C     C_R   0.503124 0.502205 0.046261 -0.011104
C20   C     C_R   0.555610 0.389406 0.907269 -0.025115
C21   C     C_R   0.445992 0.611702 0.092526 -0.012466
C22   C     C_R   0.362762 0.702346 0.953406 0.211048
C23   C     C_R   0.385346 0.718472 0.045610 0.287797
C24   C     C_R   0.636315 0.297128 0.046694 0.218651
C25   C     C_R   0.615928 0.282353 0.954118 0.332227
C26   C     C_R   0.063975 0.379580 0.520184 -0.149105
C27   C     C_R   0.936023 0.620406 0.479790 -0.155940
C28   C     C_R   0.936070 0.379606 0.520260 -0.147908
C29   C     C_R   0.063927 0.620381 0.479716 -0.153233
C30   C     C_R   0.872563 0.500017 0.500047 -0.024618
H1    H     H_    0.609099 0.320567 0.775937 0.204830
H2    H     H_    0.375273 0.873793 0.390172 0.153802
H3    H     H_    0.375228 0.127092 0.390209 0.156283
H4    H     H_    0.624730 0.872913 0.609822 0.145908
H5    H     H_    0.374466 0.906189 0.822551 0.353448
H6    H     H_    0.858685 0.381136 0.146638 0.364379
H7    H     H_    0.419671 0.027462 0.009509 0.386332
H8    H     H_    0.802272 0.060352 0.811246 0.388920
H9    H     H_    0.396138 0.683294 0.223965 0.201328
H10   H     H_    0.389651 0.679705 0.775040 0.184325
H11   H     H_    0.604827 0.316134 0.224405 0.225248
H12   H     H_    0.112795 0.286147 0.536545 0.170355
H13   H     H_    0.887202 0.713839 0.463430 0.172182
H14   H     H_    0.887290 0.286197 0.536694 0.163654
H15   H     H_    0.112707 0.713792 0.463289 0.166551
H16   H     H_    0.624702 0.126203 0.609852 0.146794
N1    N     N_R   0.500000 0.857200 0.500000 -0.097690
N2    N     N_R   0.500000 0.142800 0.500000 -0.097999
O1    O     O_R   0.316770 0.614620 0.499990 -0.627097
O2    O     O_2   0.140999 0.834341 0.966496 -0.119345
O3    O     O_3   0.293372 0.933401 0.848534 -0.455963
O4    O     O_2   0.700606 0.081732 0.148041 -0.191139
O5    O     O_2   0.855638 0.156529 0.038079 -0.142911
O6    O     O_3   0.827253 0.300958 0.180025 -0.543933
O7    O     O_2   0.228981 0.858138 0.151574 -0.230681
O8    O     O_2   0.450971 0.910693 0.166119 -0.297946
O9    O     O_3   0.333631 0.006003 0.029037 -0.414344
O10   O     O_2   0.661627 0.009153 0.962788 -0.219464
O11   O     O_2   0.554462 0.093844 0.830302 -0.360508
O12   O     O_R   0.683230 0.385380 0.500010 -0.624542
O13   O     O_3   0.791209 0.145268 0.845872 -0.507542
O14   O     O_R   0.683230 0.614620 0.500010 -0.624459
O15   O     O_R   0.316770 0.385380 0.499990 -0.624626
O16   O     O_R   0.499980 0.614680 0.367850 -0.613555
O17   O     O_R   0.500020 0.385320 0.632150 -0.612956
O18   O     O_R   0.500020 0.614680 0.632150 -0.623612
O19   O     O_R   0.499980 0.385320 0.367850 -0.615969
O20   O     O_2   0.175658 0.704237 0.831018 -0.289064
S1    S     S_3+6 0.238196 0.792966 0.899544 0.112634
S2    S     S_3+6 0.757084 0.203451 0.102419 0.115146
S3    S     S_3+6 0.349046 0.875110 0.100892 0.098055
S4    S     S_3+6 0.653506 0.126483 0.898335 0.044196
Zn1   Zn    Zn3+2 0.500000 0.653120 0.500000 0.982639
Zn2   Zn    Zn3+2 0.500000 0.346880 0.500000 0.989434

loop_
_geom_bond_atom_site_label_1
_geom_bond_atom_site_label_2
_ccdc_geom_bond_type
O20   S1    D    
O16   Zn1   S    
O14   Zn1   S    
C8    O18   A    
O15   Zn2   S    
N2    Zn2   S    
C27   C29   A    
C12   O14   A    
C9    C20   A    
C26   C28   A    
O6    S2    S    
C13   C15   A    
O11   S4    D    
H6    O6    S    
H8    O13   S    
O3    S1    S    
O8    S3    D    
C28   C30   A    
C14   H10   S    
C24   S2    S    
C8    O17   A    
C2    C26   A    
C25   S4    S    
O9    S3    S    
C27   C30   A    
C9    C11   A    
C4    N1    A    
O10   S4    D    
C4    H2    S    
C8    C11   S    
O5    S2    D    
C1    O15   A    
O13   S4    S    
O12   Zn2   S    
C17   C19   A    
O2    S1    D    
C1    C2    S    
C22   S1    S    
O1    Zn1   S    
C21   C23   A    
C10   C21   A    
H5    O3    S    
H7    O9    S    
C5    N2    A    
C14   C16   A    
C7    O16   A    
C17   C24   A    
O4    S2    D    
C20   C25   A    
C9    H1    S    
C15   H11   S    
C7    O19   A    
C12   O12   A    
C23   S3    S    
C3    N2    A    
C7    C13   S    
C2    C29   A    
C24   C25   A    
C26   H12   S    
C18   C20   A    
C16   C18   A    
C18   C19   A    
C6    N1    A    
C3    C6    A    
C11   C14   A    
O19   Zn2   S    
C27   H13   S    
C22   C23   A    
C10   H9    S    
C16   C22   A    
C3    H16   S    
C12   C30   S    
N1    Zn1   S    
C15   C17   A    
O18   Zn1   S    
C1    O1    A    
C28   H14   S    
O7    S3    D    
O17   Zn2   S    
C6    H4    S    
C29   H15   S    
C4    C5    A    
C19   C21   A    
C10   C13   A    
C5    H3    S    
