data_mof_unit_9354.cif
_audit_creation_date              2012-12-11T16:28:04-0500
_audit_creation_method            fapswitch 2.2
_symmetry_space_group_name_H-M    P1
_symmetry_Int_Tables_number       1
_space_group_crystal_system       triclinic
_cell_length_a                    30.232446
_cell_length_b                    22.550704
_cell_length_c                    18.142904
_cell_angle_alpha                 89.708094
_cell_angle_beta                  123.683447
_cell_angle_gamma                 90.546453
_cell_volume                      10292.0872217

loop_
_atom_site_label
_atom_site_type_symbol
_atom_type_description
_atom_site_fract_x
_atom_site_fract_y
_atom_site_fract_z
_atom_type_partial_charge
C1    C     C_R   0.542904 0.582594 0.740013 -0.061548
C2    C     C_R   0.705784 0.412666 0.443719 0.242501
C3    C     C_R   0.798167 0.623360 0.042567 -0.364605
C4    C     C_R   0.298987 0.868273 0.021680 -0.366047
C5    C     C_R   0.701012 0.131788 0.978458 -0.366057
C6    C     C_R   0.764466 0.714361 0.173880 -0.367746
C7    C     C_R   0.235512 0.285664 0.826113 -0.367373
C8    C     C_R   0.778819 0.190681 0.857542 0.787380
C9    C     C_R   0.221099 0.809196 0.142380 0.787343
C10   C     C_R   0.149436 0.358971 0.922291 0.794291
C11   C     C_R   0.850566 0.641002 0.077780 0.794283
C12   C     C_R   0.347197 0.844233 0.044859 0.791179
C13   C     C_R   0.605331 0.746257 0.445236 0.255625
C14   C     C_R   0.652821 0.155856 0.955318 0.791149
C15   C     C_R   0.711356 0.699822 0.136084 0.788712
C16   C     C_R   0.288618 0.300219 0.863887 0.788745
C17   C     C_R   0.580059 0.607838 0.428132 -0.148402
C18   C     C_R   0.419949 0.392156 0.571870 -0.148128
C19   C     C_R   0.404336 0.580875 0.573357 -0.115621
C20   C     C_R   0.595629 0.418988 0.426638 -0.116470
C21   C     C_R   0.095327 0.082788 0.426447 -0.119136
C22   C     C_R   0.904679 0.917210 0.573560 -0.119124
C23   C     C_R   0.912768 0.099126 0.572175 -0.146483
C24   C     C_R   0.394693 0.253747 0.554850 0.255599
C25   C     C_R   0.087256 0.900932 0.427812 -0.145388
C26   C     C_R   0.389553 0.602838 0.280929 -0.138589
C27   C     C_R   0.610454 0.397175 0.719100 -0.138644
C28   C     C_R   0.617457 0.583684 0.742661 -0.152857
C29   C     C_R   0.382540 0.416325 0.257334 -0.152882
C30   C     C_R   0.882307 0.082824 0.257902 -0.143986
C31   C     C_R   0.117685 0.917135 0.742074 -0.143727
C32   C     C_R   0.107403 0.107937 0.708415 -0.133790
C33   C     C_R   0.892608 0.892050 0.291621 -0.133835
C34   C     C_R   0.595918 0.599544 0.791042 0.117262
C35   C     C_R   0.787199 0.182195 0.438721 0.239063
C36   C     C_R   0.404076 0.400473 0.208945 0.117273
C37   C     C_R   0.415376 0.630549 0.245392 0.122443
C38   C     C_R   0.584633 0.369477 0.754649 0.122427
C39   C     C_R   0.079950 0.138992 0.737537 0.111102
C40   C     C_R   0.920067 0.860983 0.262523 0.111062
C41   C     C_R   0.902835 0.097625 0.207384 0.116254
C42   C     C_R   0.097150 0.902331 0.792584 0.116192
C43   C     C_R   0.615390 0.641041 0.502890 0.079553
C44   C     C_R   0.384627 0.358945 0.497115 0.079540
C45   C     C_R   0.354047 0.592011 0.499158 0.079832
C46   C     C_R   0.213153 0.819213 0.559759 0.242778
C47   C     C_R   0.645938 0.407826 0.500830 0.079858
C48   C     C_R   0.145381 0.095787 0.500532 0.079760
C49   C     C_R   0.854618 0.904228 0.499481 0.079754
C50   C     C_R   0.871054 0.126146 0.497014 0.074699
C51   C     C_R   0.129009 0.874034 0.502999 0.074430
C52   C     C_R   0.234033 0.676570 0.432818 -0.163405
C53   C     C_R   0.766370 0.323696 0.567629 -0.165953
C54   C     C_R   0.713805 0.763921 0.576213 -0.207128
C55   C     C_R   0.286246 0.236017 0.423775 -0.207045
C56   C     C_R   0.850322 0.282570 0.530166 -0.212603
C57   C     C_R   0.208899 0.082680 0.452040 0.263308
C58   C     C_R   0.150727 0.717483 0.472743 -0.205690
C59   C     C_R   0.268923 0.177048 0.566149 -0.168688
C60   C     C_R   0.731019 0.823059 0.433788 -0.168855
C61   C     C_R   0.272900 0.648558 0.429392 -0.209166
C62   C     C_R   0.727173 0.351322 0.570644 -0.209798
C63   C     C_R   0.689202 0.711822 0.574739 -0.218865
C64   C     C_R   0.310845 0.288115 0.425229 -0.218635
C65   C     C_R   0.874247 0.229073 0.537585 -0.173138
C66   C     C_R   0.126398 0.770776 0.464753 -0.174890
C67   C     C_R   0.225603 0.155448 0.564304 -0.209674
C68   C     C_R   0.791170 0.917277 0.548134 0.263071
C69   C     C_R   0.774333 0.844661 0.435615 -0.209770
C70   C     C_R   0.306194 0.607988 0.495185 0.040219
C71   C     C_R   0.693891 0.391960 0.504942 0.043060
C72   C     C_R   0.636171 0.700795 0.506900 0.054424
C73   C     C_R   0.363859 0.299180 0.493115 0.054419
C74   C     C_R   0.843226 0.179002 0.493426 0.045085
C75   C     C_R   0.157071 0.821461 0.506718 0.044357
C76   C     C_R   0.193707 0.110929 0.504470 0.037015
C77   C     C_R   0.806293 0.889101 0.495561 0.037114
C78   C     C_3   0.321163 0.533224 0.613042 -0.988197
C79   C     C_R   0.256672 0.619165 0.563732 0.235730
C80   C     C_3   0.678259 0.466066 0.385497 -0.972171
C81   C     C_3   0.545590 0.740298 0.381883 -0.979958
C82   C     C_3   0.454429 0.259731 0.618254 -0.980072
C83   C     C_3   0.753147 0.127167 0.395185 -0.972380
C84   C     C_3   0.246682 0.874856 0.601261 -0.970944
C85   C     C_3   0.182387 0.025559 0.403119 -1.000388
C86   C     C_3   0.817743 0.974340 0.597195 -0.999661
C87   C     C_3   0.702702 0.241817 0.369952 -0.918285
C88   C     C_3   0.298236 0.760963 0.626575 -0.928357
C89   C     C_3   0.266518 0.085018 0.388142 -0.953844
C90   C     C_R   0.744562 0.382222 0.438161 0.232127
C91   C     C_3   0.733638 0.914838 0.612193 -0.953660
C92   C     C_3   0.246775 0.606912 0.635573 -0.948693
C93   C     C_3   0.754018 0.397219 0.366578 -0.945804
C94   C     C_3   0.601337 0.844963 0.372987 -0.928645
C95   C     C_3   0.398671 0.155092 0.627203 -0.928600
C96   C     C_R   0.631463 0.798389 0.443952 0.230456
C97   C     C_R   0.457092 0.417416 0.259978 -0.061688
C98   C     C_R   0.368560 0.201623 0.556157 0.230499
C99   C     C_R   0.762854 0.237400 0.428324 0.243013
C100  C     C_R   0.237977 0.764335 0.570429 0.232545
C101  C     C_R   0.251323 0.107739 0.449602 0.242622
C102  C     C_R   0.748755 0.892207 0.550587 0.242575
C103  C     C_R   0.229337 0.666011 0.503890 0.035692
C104  C     C_R   0.771688 0.334919 0.497313 0.047805
C105  C     C_R   0.686442 0.805333 0.508409 0.069782
C106  C     C_R   0.313592 0.194648 0.491651 0.069725
C107  C     C_R   0.795116 0.286807 0.477533 0.039604
C108  C     C_R   0.461801 0.598797 0.275995 -0.117124
C109  C     C_R   0.205986 0.714185 0.523581 0.053914
C110  C     C_R   0.280080 0.155987 0.506050 0.020772
C111  C     C_R   0.719935 0.844033 0.494017 0.020849
C112  C     C_R   0.399607 0.686914 0.194648 -0.079478
C113  C     C_R   0.600407 0.313129 0.805429 -0.079421
C114  C     C_R   0.625410 0.619831 0.884504 -0.093474
C115  C     C_R   0.374579 0.380199 0.115475 -0.093300
C116  C     C_R   0.871154 0.115535 0.112413 -0.088760
C117  C     C_R   0.128813 0.884395 0.887542 -0.088806
C118  C     C_R   0.094200 0.198859 0.779100 -0.080928
C119  C     C_R   0.538203 0.401220 0.724025 -0.117171
C120  C     C_R   0.905818 0.801110 0.220981 -0.081180
C121  C     C_R   0.409183 0.762711 0.108597 -0.244615
C122  C     C_R   0.590857 0.237395 0.891584 -0.244798
C123  C     C_R   0.627855 0.664946 0.008134 -0.236411
C124  C     C_R   0.372122 0.335108 0.991820 -0.236604
C125  C     C_R   0.863095 0.151439 0.978678 -0.241891
C126  C     C_R   0.136818 0.848366 0.021177 -0.241863
C127  C     C_R   0.079370 0.284711 0.843453 -0.242786
C128  C     C_R   0.920652 0.715237 0.156669 -0.243000
C129  C     C_R   0.424805 0.708946 0.153856 0.714510
C130  C     C_R   0.035134 0.104779 0.713433 -0.092944
C131  C     C_R   0.575236 0.291146 0.846293 0.714335
C132  C     C_R   0.598955 0.642325 0.922384 0.732818
C133  C     C_R   0.401027 0.357724 0.077572 0.732672
C134  C     C_R   0.894434 0.130024 0.065312 0.734605
C135  C     C_R   0.105496 0.869786 0.934547 0.734581
C136  C     C_R   0.062016 0.230369 0.799199 0.720921
C137  C     C_R   0.938014 0.769577 0.200930 0.721406
C138  C     C_R   0.359445 0.720667 0.190115 -0.266771
C139  C     C_R   0.640540 0.279343 0.809923 -0.266788
C140  C     C_R   0.681135 0.618877 0.935746 -0.264263
C141  C     C_R   0.964881 0.895199 0.286612 -0.092624
C142  C     C_R   0.318854 0.381142 0.064249 -0.264322
C143  C     C_R   0.815911 0.120339 0.068729 -0.269191
C144  C     C_R   0.184069 0.879691 0.931310 -0.269126
C145  C     C_R   0.141375 0.225626 0.797833 -0.270788
C146  C     C_R   0.858626 0.774365 0.202205 -0.270855
C147  C     C_R   0.341601 0.773666 0.141565 0.079200
C148  C     C_R   0.658387 0.226360 0.858511 0.079215
C149  C     C_R   0.710901 0.644321 0.020665 0.081147
C150  C     C_R   0.289084 0.355703 0.979328 0.081095
C151  C     C_R   0.784005 0.142953 0.982569 0.078973
C152  C     C_R   0.956193 0.081781 0.258419 -0.079015
C153  C     C_R   0.215955 0.857024 0.017445 0.078981
C154  C     C_R   0.158707 0.280753 0.840194 0.078513
C155  C     C_R   0.841290 0.719237 0.159849 0.078477
C156  C     C_R   0.366705 0.794214 0.099393 -0.162319
C157  C     C_R   0.633310 0.205860 0.900752 -0.162203
C158  C     C_R   0.683345 0.668695 0.056017 -0.161819
C159  C     C_R   0.316633 0.331345 0.943954 -0.161899
C160  C     C_R   0.808539 0.160683 0.938463 -0.157204
C161  C     C_R   0.191390 0.839204 0.061466 -0.157212
C162  C     C_R   0.128621 0.308846 0.867739 -0.162082
C163  C     C_R   0.043800 0.918203 0.741566 -0.078918
C164  C     C_R   0.871385 0.691124 0.132339 -0.162137
C165  C     C_R   0.295618 0.802891 0.125523 0.018443
C166  C     C_R   0.704350 0.197103 0.874519 0.018433
C167  C     C_R   0.766720 0.652834 0.066240 0.013206
C168  C     C_R   0.233267 0.347175 0.933774 0.013200
C169  C     C_R   0.729683 0.155768 0.944750 0.012291
C170  C     C_R   0.270292 0.844247 0.055317 0.012292
C171  C     C_R   0.208574 0.304722 0.864964 0.016154
C172  C     C_R   0.791413 0.695286 0.135051 0.016184
C173  C     C_R   0.627054 0.607914 0.575479 -0.122979
C174  C     C_R   0.294669 0.587714 0.557061 0.254785
C175  C     C_R   0.372957 0.392076 0.424524 -0.123021
C176  C     C_R   0.354888 0.579163 0.426063 -0.146168
C177  C     C_R   0.645098 0.420761 0.573920 -0.146386
C178  C     C_R   0.144917 0.081139 0.573667 -0.152152
C179  C     C_R   0.855080 0.918873 0.426341 -0.152102
C180  C     C_R   0.865214 0.099562 0.424130 -0.126540
C181  C     C_R   0.134872 0.900568 0.575889 -0.126804
C182  C     C_R   0.727873 0.210244 0.827250 -0.366059
C183  C     C_R   0.272068 0.789693 0.172732 -0.366101
C184  C     C_R   0.201825 0.376633 0.957471 -0.364562
F1    F     F_    0.536794 0.321753 0.845941 -0.719908
F2    F     F_    0.199264 0.793934 0.188169 -0.700505
F3    F     F_    0.120755 0.388014 0.947531 -0.686622
F4    F     F_    0.879253 0.611942 0.052568 -0.686638
F5    F     F_    0.372362 0.866927 0.007893 -0.690023
F6    F     F_    0.627679 0.133209 0.992352 -0.690055
F7    F     F_    0.686337 0.720877 0.173698 -0.700281
F8    F     F_    0.313629 0.279179 0.826252 -0.700238
F9    F     F_    0.463279 0.678378 0.154252 -0.719765
F10   F     F_    0.454722 0.353830 0.124234 -0.710279
F11   F     F_    0.545261 0.646233 0.875703 -0.709815
F12   F     F_    0.052361 0.872964 0.896629 -0.712996
F13   F     F_    0.947553 0.126727 0.103132 -0.713011
F14   F     F_    0.985758 0.790822 0.222067 -0.725024
F15   F     F_    0.014290 0.209099 0.778121 -0.725700
F16   F     F_    0.800624 0.205875 0.811683 -0.700483
H1    H     H_    0.515896 0.578612 0.761044 0.168277
H2    H     H_    0.340268 0.703547 0.220937 0.144483
H3    H     H_    0.313485 0.715242 0.637033 0.249624
H4    H     H_    0.314759 0.786477 0.594540 0.255001
H5    H     H_    0.314016 0.779491 0.693399 0.264094
H6    H     H_    0.262844 0.121085 0.343274 0.250289
H7    H     H_    0.308381 0.069806 0.427976 0.253663
H8    H     H_    0.241341 0.047843 0.345354 0.264772
H9    H     H_    0.691790 0.930105 0.572466 0.253685
H10   H     H_    0.737305 0.878708 0.656971 0.250255
H11   H     H_    0.758868 0.951951 0.655081 0.264766
H12   H     H_    0.256224 0.647127 0.676988 0.255175
H13   H     H_    0.298945 0.397719 0.093745 0.145454
H14   H     H_    0.204244 0.595174 0.604573 0.250782
H15   H     H_    0.271038 0.570461 0.680800 0.264875
H16   H     H_    0.768423 0.443658 0.374449 0.255100
H17   H     H_    0.784452 0.368584 0.369100 0.251595
H18   H     H_    0.716465 0.391741 0.300410 0.261364
H19   H     H_    0.626959 0.882576 0.378703 0.251076
H20   H     H_    0.583445 0.824740 0.306508 0.270451
H21   H     H_    0.569499 0.863970 0.378281 0.250270
H22   H     H_    0.416527 0.175361 0.693645 0.270461
H23   H     H_    0.373047 0.117486 0.621502 0.251054
H24   H     H_    0.701048 0.602284 0.906265 0.145451
H25   H     H_    0.430536 0.136067 0.621996 0.250252
H26   H     H_    0.201786 0.888777 0.895144 0.146459
H27   H     H_    0.798223 0.111388 0.104974 0.146480
H28   H     H_    0.833064 0.798690 0.214588 0.146542
H29   H     H_    0.166926 0.201319 0.785406 0.146486
H30   H     H_    0.428723 0.778033 0.076770 0.220754
H31   H     H_    0.571339 0.222111 0.923465 0.220693
H32   H     H_    0.606367 0.683311 0.034506 0.222514
H33   H     H_    0.484097 0.421405 0.238943 0.168151
H34   H     H_    0.393605 0.316757 0.965431 0.222454
H35   H     H_    0.882308 0.164137 0.945220 0.220423
H36   H     H_    0.117580 0.835586 0.054564 0.220448
H37   H     H_    0.054964 0.306752 0.861446 0.218779
H38   H     H_    0.945067 0.693178 0.138708 0.218833
H39   H     H_    0.707562 0.235617 0.766617 0.163481
H40   H     H_    0.292372 0.764311 0.233358 0.163494
H41   H     H_    0.216844 0.413937 0.002342 0.170543
H42   H     H_    0.783146 0.586059 0.997692 0.170543
H43   H     H_    0.284497 0.905548 0.976714 0.170220
H44   H     H_    0.488440 0.603142 0.254736 0.182649
H45   H     H_    0.715510 0.094526 0.023450 0.170233
H46   H     H_    0.784020 0.740717 0.233707 0.163803
H47   H     H_    0.215956 0.259309 0.766285 0.163824
H48   H     H_    0.653599 0.620144 0.644143 0.104855
H49   H     H_    0.346419 0.379842 0.355861 0.104867
H50   H     H_    0.320669 0.574938 0.358678 0.106201
H51   H     H_    0.679327 0.424987 0.641296 0.106272
H52   H     H_    0.179498 0.076933 0.640661 0.109943
H53   H     H_    0.820497 0.923087 0.359350 0.109933
H54   H     H_    0.835810 0.109011 0.355219 0.117589
H55   H     H_    0.511561 0.396881 0.745279 0.182646
H56   H     H_    0.164398 0.891244 0.644795 0.117354
H57   H     H_    0.566837 0.619165 0.361390 0.136599
H58   H     H_    0.433172 0.380832 0.638612 0.136619
H59   H     H_    0.415934 0.580166 0.641449 0.128953
H60   H     H_    0.583978 0.419581 0.358517 0.128205
H61   H     H_    0.084185 0.081514 0.358599 0.127240
H62   H     H_    0.915832 0.918472 0.641415 0.127254
H63   H     H_    0.923958 0.106440 0.639069 0.137260
H64   H     H_    0.076096 0.893645 0.360928 0.137476
H65   H     H_    0.351085 0.612623 0.268432 0.100980
H66   H     H_    0.007372 0.112415 0.731409 0.175475
H67   H     H_    0.648927 0.387391 0.731616 0.101010
H68   H     H_    0.659013 0.582117 0.766548 0.099363
H69   H     H_    0.340985 0.417897 0.233450 0.099375
H70   H     H_    0.841160 0.080177 0.236179 0.096339
H71   H     H_    0.158830 0.919730 0.763782 0.096334
H72   H     H_    0.144139 0.119798 0.715450 0.100392
H73   H     H_    0.855878 0.880185 0.284604 0.100407
H74   H     H_    0.212164 0.712109 0.386252 0.179424
H75   H     H_    0.788078 0.287969 0.613916 0.179630
H76   H     H_    0.756108 0.769040 0.625180 0.156303
H77   H     H_    0.992658 0.887540 0.268675 0.175508
H78   H     H_    0.243952 0.230873 0.374766 0.156332
H79   H     H_    0.874672 0.320018 0.569403 0.166255
H80   H     H_    0.126579 0.679451 0.435212 0.162323
H81   H     H_    0.290994 0.214255 0.609127 0.177002
H82   H     H_    0.708901 0.785905 0.390719 0.176965
H83   H     H_    0.279926 0.662728 0.379517 0.154043
H84   H     H_    0.719880 0.336768 0.620060 0.154169
H85   H     H_    0.712996 0.678317 0.623776 0.147778
H86   H     H_    0.287055 0.321593 0.376137 0.147815
H87   H     H_    0.917264 0.226576 0.578418 0.178031
H88   H     H_    0.982957 0.078291 0.236993 0.175827
H89   H     H_    0.083343 0.772633 0.425256 0.176498
H90   H     H_    0.215375 0.175727 0.606972 0.155772
H91   H     H_    0.784508 0.824436 0.392845 0.155714
H92   H     H_    0.290629 0.502692 0.608212 0.264329
H93   H     H_    0.342107 0.507219 0.589793 0.250383
H94   H     H_    0.349810 0.546207 0.683208 0.261296
H95   H     H_    0.708037 0.497151 0.389017 0.262689
H96   H     H_    0.650169 0.451739 0.315812 0.260795
H97   H     H_    0.656644 0.492057 0.407467 0.247520
H98   H     H_    0.525749 0.781359 0.382030 0.255723
H99   H     H_    0.017043 0.921706 0.763005 0.175750
H100  H     H_    0.535341 0.731958 0.313894 0.283554
H101  H     H_    0.528490 0.704621 0.401103 0.251152
H102  H     H_    0.474292 0.218655 0.618224 0.255760
H103  H     H_    0.471538 0.295371 0.598993 0.251132
H104  H     H_    0.464643 0.268144 0.686208 0.283506
H105  H     H_    0.722643 0.123221 0.410951 0.263452
H106  H     H_    0.733227 0.129885 0.322291 0.260468
H107  H     H_    0.775944 0.085386 0.418830 0.250520
H108  H     H_    0.276060 0.879316 0.583071 0.262995
H109  H     H_    0.223266 0.916235 0.578209 0.250163
H110  H     H_    0.659691 0.296427 0.779036 0.144477
H111  H     H_    0.267931 0.872516 0.674435 0.260567
H112  H     H_    0.213070 0.992155 0.418149 0.264777
H113  H     H_    0.157754 0.004740 0.424113 0.250790
H114  H     H_    0.157211 0.033916 0.330698 0.262898
H115  H     H_    0.787097 0.007743 0.582357 0.264794
H116  H     H_    0.842973 0.965885 0.669586 0.262734
H117  H     H_    0.842329 0.995214 0.576147 0.250812
H118  H     H_    0.684901 0.216764 0.400297 0.251989
H119  H     H_    0.688068 0.287823 0.359111 0.248738
H120  H     H_    0.687688 0.223385 0.303355 0.263162
N1    N     N_R   0.532910 0.558440 0.665240 -0.058986
N2    N     N_R   0.402970 0.441090 0.454460 -0.039614
N3    N     N_R   0.402970 0.558910 0.454460 -0.038814
N4    N     N_R   0.597030 0.441090 0.545540 -0.038735
N5    N     N_R   0.097030 0.058910 0.545540 -0.038214
N6    N     N_R   0.902970 0.941090 0.454460 -0.038229
N7    N     N_R   0.902970 0.058910 0.454460 -0.040038
N8    N     N_R   0.097030 0.941090 0.545540 -0.040090
N9    N     N_R   0.566200 0.559270 0.454460 -0.045488
N10   N     N_R   0.433800 0.440730 0.545540 -0.045508
N11   N     N_R   0.433800 0.559270 0.545540 -0.045234
N12   N     N_R   0.467090 0.441560 0.334760 -0.058946
N13   N     N_R   0.566200 0.440730 0.454460 -0.045079
N14   N     N_R   0.066200 0.059270 0.454460 -0.044504
N15   N     N_R   0.933800 0.940730 0.545540 -0.044496
N16   N     N_R   0.933800 0.059270 0.545540 -0.045638
N17   N     N_R   0.066200 0.940730 0.454460 -0.045879
N18   N     N_R   0.421050 0.559750 0.334770 -0.041685
N19   N     N_R   0.578950 0.440250 0.665230 -0.041685
N20   N     N_R   0.578950 0.559750 0.665230 -0.043224
N21   N     N_R   0.421050 0.440250 0.334770 -0.043210
N22   N     N_R   0.921050 0.059750 0.334770 -0.043022
N23   N     N_R   0.467090 0.558440 0.334760 -0.055752
N24   N     N_R   0.078950 0.940250 0.665230 -0.043021
N25   N     N_R   0.078950 0.059750 0.665230 -0.043235
N26   N     N_R   0.921050 0.940250 0.334770 -0.043241
N27   N     N_R   0.532910 0.441560 0.665240 -0.055752
N28   N     N_R   0.032910 0.058440 0.665240 -0.057156
N29   N     N_R   0.967090 0.941560 0.334760 -0.057214
N30   N     N_R   0.967090 0.058440 0.334760 -0.058019
N31   N     N_R   0.032910 0.941560 0.665240 -0.058050
N32   N     N_R   0.597030 0.558910 0.545540 -0.039580
Ni1   Ni    Ni4+2 0.483090 0.500000 0.604440 0.219414
Ni2   Ni    Ni4+2 0.516910 0.500000 0.395560 0.219261
Ni3   Ni    Ni4+2 0.983090 0.000000 0.604440 0.219516
Ni4   Ni    Ni4+2 0.016910 0.000000 0.395560 0.219472
Ni5   Ni    Ni4+2 0.586780 0.500000 0.604440 0.219351
Ni6   Ni    Ni4+2 0.413220 0.500000 0.395560 0.219338
Ni7   Ni    Ni4+2 0.086780 0.000000 0.604440 0.218347
Ni8   Ni    Ni4+2 0.913220 0.000000 0.395560 0.218400

loop_
_geom_bond_atom_site_label_1
_geom_bond_atom_site_label_2
_ccdc_geom_bond_type
C61   C70   A    
C120  C146  A    
C31   C42   A    
C10   C184  A    
N2    Ni6   S    
C44   C175  A    
C119  N27   A    
C124  C133  A    
C24   C98   A    
C57   C76   A    
C7    C171  A    
C52   C61   A    
C19   H59   S    
N6    Ni8   S    
C54   C63   A    
C83   H105  S    
N11   Ni1   S    
C2    C90   A    
C46   C75   A    
C80   H96   S    
C133  F10   S    
C30   H70   S    
C1    C34   A    
C94   H21   S    
C36   C97   A    
C112  C129  A    
C4    C12   A    
C4    H43   S    
C21   C48   A    
C124  H34   S    
C143  C151  A    
N6    N15   A    
C100  C109  A    
C10   C162  A    
C102  C111  A    
C99   C107  A    
C91   H10   S    
N7    N16   A    
N10   Ni1   S    
C95   H22   S    
C150  C159  A    
C165  C183  A    
C112  C138  A    
C127  C136  A    
C37   C108  A    
C5    H45   S    
C85   H114  S    
C86   H117  S    
C101  C110  A    
C69   H91   S    
C153  C161  A    
C17   C43   A    
C125  H35   S    
C18   C44   A    
C163  H99   S    
C23   H63   S    
C150  C168  A    
N25   N28   A    
C94   C96   S    
N17   Ni4   S    
C90   C104  A    
C20   N13   A    
C22   C49   A    
C46   C84   S    
C38   C119  A    
C22   N15   A    
N14   Ni4   S    
C2    C71   A    
C117  C135  A    
N24   Ni7   S    
C118  C136  A    
C90   C93   S    
C68   C77   A    
C15   F7    S    
C54   C105  A    
C89   C101  S    
C6    H46   S    
C142  H13   S    
C68   C102  A    
C51   C181  A    
C81   H101  S    
C21   N14   A    
C152  H88   S    
C42   C117  S    
C13   C72   A    
C23   N16   A    
C39   C118  S    
C98   C106  A    
C65   H87   S    
C29   H69   S    
N1    Ni1   S    
C18   N10   A    
C176  H50   S    
C138  H2    S    
C89   H7    S    
C139  H110  S    
C22   H62   S    
C87   H118  S    
C94   H19   S    
C57   C85   S    
C20   C47   A    
C3    C11   A    
C63   H85   S    
C54   H76   S    
N12   Ni2   S    
C104  C107  S    
C49   C179  A    
C17   N9    A    
N7    Ni8   S    
C52   C103  A    
C121  C156  A    
C123  C132  A    
C43   C173  A    
C48   C76   S    
C69   C77   A    
C32   N25   A    
C166  C182  A    
C48   C178  A    
C125  C160  A    
C3    C167  A    
C86   H115  S    
C6    C172  A    
C122  H31   S    
C4    C170  A    
C61   H83   S    
N15   Ni3   S    
C50   C74   S    
C176  N3    A    
C53   C104  A    
N18   N23   A    
C7    H47   S    
C128  C164  A    
C92   H15   S    
C93   H17   S    
C31   N24   A    
C147  C165  A    
C59   C67   A    
C135  F12   S    
C168  C171  A    
C123  H32   S    
C153  C170  A    
C64   C73   A    
C113  C139  A    
C30   C41   A    
C114  C140  A    
C126  H36   S    
C149  C158  A    
C19   N11   A    
N24   N31   A    
C97   H33   S    
C40   C141  A    
C93   H16   S    
N20   Ni5   S    
C79   C103  A    
N5    N14   A    
C12   C156  A    
C84   H109  S    
C82   H104  S    
C182  H39   S    
C10   F3    S    
C85   H112  S    
C139  C148  A    
C33   C40   A    
C13   C96   A    
C11   F4    S    
C117  C144  A    
C15   C158  A    
C91   H11   S    
C9    F2    S    
C25   H64   S    
C140  H24   S    
C78   H93   S    
C52   H74   S    
C95   H23   S    
C65   C74   A    
C95   H25   S    
C181  H56   S    
C183  H40   S    
C87   H120  S    
N13   Ni2   S    
C88   H4    S    
C9    C161  A    
C70   C174  A    
N26   Ni8   S    
C80   H97   S    
C145  C154  A    
C131  F1    S    
C173  H48   S    
C127  C162  A    
C92   H12   S    
C17   H57   S    
C122  C131  A    
N26   N29   A    
C145  H29   S    
C154  C162  A    
C118  C145  A    
C141  N29   A    
C19   C45   A    
N8    Ni7   S    
C30   N22   A    
C57   C101  A    
C151  C169  A    
C60   C111  A    
C81   H98   S    
C25   N17   A    
C146  H28   S    
C60   C69   A    
C27   N19   A    
C63   C72   A    
C49   C77   S    
C154  C171  A    
C148  C157  A    
C59   H81   S    
C8    F16   S    
C14   F6    S    
C87   H119  S    
C41   C116  S    
C140  C149  A    
C84   H111  S    
C82   H102  S    
N3    Ni6   S    
C125  C134  A    
C134  F13   S    
C96   C105  A    
C35   C74   A    
C163  N31   A    
C148  C166  A    
C149  C167  A    
C88   H5    S    
C91   H9    S    
C1    H1    S    
C180  N7    A    
C12   F5    S    
C62   H84   S    
C85   H113  S    
N31   Ni3   S    
C24   C73   A    
C175  H49   S    
C116  C134  A    
C27   C38   A    
C128  H38   S    
C39   C130  A    
N2    N10   A    
C13   C81   S    
C32   C39   A    
C181  N8    A    
C155  C172  A    
C27   H67   S    
C146  C155  A    
C66   H89   S    
C143  H27   S    
C132  F11   S    
C92   H14   S    
C177  N4    A    
C126  C161  A    
C105  C111  S    
C115  C142  A    
C28   C34   A    
N25   Ni7   S    
C56   H79   S    
C79   C174  A    
N9    Ni2   S    
C14   C157  A    
N4    Ni5   S    
C81   H100  S    
C84   H108  S    
C38   C113  S    
C35   C83   S    
N1    N20   A    
C55   C106  A    
C83   H106  S    
C136  F15   S    
C3    H42   S    
C9    C183  A    
C80   H95   S    
C89   H6    S    
C67   H90   S    
C94   H20   S    
N18   Ni6   S    
C147  C156  A    
N29   Ni4   S    
C5    C14   A    
C88   C100  S    
C7    C16   A    
C40   C120  S    
C58   H80   S    
C126  C135  A    
C127  H37   S    
N16   Ni3   S    
C31   H71   S    
C60   H82   S    
C32   H72   S    
C108  N23   A    
C8    C160  A    
N19   N27   A    
C8    C182  A    
N4    N13   A    
C180  H54   S    
N19   Ni5   S    
C45   C70   S    
C121  C129  A    
C23   C50   A    
C119  H55   S    
C1    N1    A    
C26   C37   A    
C86   H116  S    
C167  C172  A    
C115  C133  A    
C103  C109  S    
C142  C150  A    
C130  N28   A    
C66   C75   A    
C122  C157  A    
C44   C73   S    
C18   H58   S    
C130  H66   S    
C137  F14   S    
C55   H78   S    
C47   C177  A    
C5    C169  A    
C120  C137  A    
N12   N21   A    
C43   C72   S    
C58   C109  A    
C68   C86   S    
N22   Ni8   S    
C95   C98   S    
C41   C152  A    
C29   C36   A    
C33   H73   S    
C51   C75   S    
C78   H94   S    
C89   H8    S    
C56   C65   A    
C177  H51   S    
C124  C159  A    
C59   C110  A    
C144  C153  A    
C24   C82   S    
C37   C112  S    
C175  N2    A    
C6    C15   A    
C173  N32   A    
C58   C66   A    
C168  C184  A    
C62   C71   A    
C184  H41   S    
C16   F8    S    
N8    N17   A    
N23   Ni2   S    
N32   Ni5   S    
C165  C170  A    
C16   C159  A    
C144  H26   S    
C35   C99   A    
C178  N5    A    
C87   C99   S    
N5    Ni7   S    
C45   C176  A    
C42   C163  A    
C93   H18   S    
C179  H53   S    
C50   C180  A    
C128  C137  A    
C25   C51   A    
C56   C107  A    
C179  N6    A    
C28   N20   A    
C116  C143  A    
C53   C62   A    
C83   H107  S    
C138  C147  A    
C47   C71   S    
C55   C64   A    
C108  H44   S    
N30   Ni4   S    
N27   Ni1   S    
C79   C92   S    
C20   H60   S    
C21   H61   S    
N3    N11   A    
C91   C102  S    
C82   H103  S    
C106  C110  S    
C64   H86   S    
C46   C100  A    
C121  H30   S    
C113  C131  A    
C114  C132  A    
C129  F9    S    
C78   H92   S    
C123  C158  A    
C152  N30   A    
C155  C164  A    
C34   C114  S    
C29   N21   A    
C28   H68   S    
C151  C160  A    
C26   H65   S    
C141  H77   S    
C26   N18   A    
C11   C164  A    
C88   H3    S    
C2    C80   S    
C97   N12   A    
C53   H75   S    
C178  H52   S    
C166  C169  A    
N22   N30   A    
C78   C174  S    
C67   C76   A    
N9    N32   A    
C33   N26   A    
C36   C115  S    
N21   Ni6   S    
N28   Ni3   S    
