data_mof_unit_17099.cif
_audit_creation_date              2012-12-10T16:41:38-0500
_audit_creation_method            fapswitch 2.2
_symmetry_space_group_name_H-M    P1
_symmetry_Int_Tables_number       1
_space_group_crystal_system       triclinic
_cell_length_a                    26.152491
_cell_length_b                    26.163638
_cell_length_c                    18.4421
_cell_angle_alpha                 90.51021
_cell_angle_beta                  134.850489
_cell_angle_gamma                 89.503349
_cell_volume                      8945.75925273

loop_
_atom_site_label
_atom_site_type_symbol
_atom_type_description
_atom_site_fract_x
_atom_site_fract_y
_atom_site_fract_z
_atom_type_partial_charge
C1    C     C_R   0.612645 0.751428 0.502635 0.672218
C2    C     C_2   0.993355 0.267709 0.429880 -0.220470
C3    C     C_3   0.934584 0.919666 0.535313 -0.805408
C4    C     C_3   0.429874 0.544375 0.646192 0.158389
C5    C     C_3   0.482874 0.587974 0.711059 -0.786670
C6    C     C_3   0.335193 0.449376 0.446803 0.069317
C7    C     C_3   0.395236 0.428920 0.458661 -0.813866
C8    C     C_3   0.965837 0.774678 0.121623 0.112847
C9    C     C_3   0.933651 0.721869 0.104096 -0.269586
C10   C     C_3   0.910720 0.717050 0.160188 -0.997136
C11   C     C_3   0.099394 0.345085 0.124916 0.054385
C12   C     C_3   0.069230 0.396109 0.068593 -0.279096
C13   C     C_2   0.502674 0.219937 0.449041 -0.240793
C14   C     C_3   0.128938 0.435749 0.120646 -1.005928
C15   C     C_3   0.460016 0.278659 0.116180 0.045094
C16   C     C_3   0.379486 0.272819 0.051150 -0.295348
C17   C     C_3   0.355579 0.306770 0.090582 -0.985395
C18   C     C_3   0.600329 0.840229 0.121253 0.053773
C19   C     C_3   0.583068 0.885619 0.154045 -0.259870
C20   C     C_3   0.643403 0.925099 0.213724 -1.004061
C21   C     C_3   0.007035 0.852900 0.908972 0.084972
C22   C     C_3   0.018151 0.888719 0.856005 -0.308039
C23   C     C_3   0.998499 0.943835 0.855944 -0.881183
C24   C     C_2   0.492098 0.765769 0.427207 -0.221094
C25   C     C_3   0.081281 0.260850 0.923379 0.059824
C26   C     C_3   0.040925 0.307006 0.852014 -0.329994
C27   C     C_3   0.093159 0.348426 0.880040 -0.957252
C28   C     C_3   0.445992 0.367935 0.947043 0.030834
C29   C     C_3   0.418118 0.419786 0.893963 -0.275611
C30   C     C_3   0.407671 0.456633 0.947324 -0.993914
C31   C     C_3   0.590350 0.726452 0.950334 0.073447
C32   C     C_3   0.576603 0.778552 0.901741 -0.336091
C33   C     C_3   0.647355 0.805892 0.956604 -0.990303
C34   C     C_3   0.963196 0.655725 0.922194 0.076306
C35   C     C_2   0.053958 0.757482 0.497313 0.392534
C36   C     C_3   0.960544 0.614815 0.977474 -0.811728
C37   C     C_3   0.871537 0.215942 0.913625 0.090810
C38   C     C_3   0.857836 0.222259 0.980801 -0.795343
C39   C     C_3   0.493748 0.168247 0.890485 0.098555
C40   C     C_3   0.553989 0.131418 0.970792 -0.819507
C41   C     C_3   0.360618 0.722425 0.908398 0.090187
C42   C     C_3   0.336341 0.739632 0.959276 -0.794488
C43   C     C_3   0.113575 0.810576 0.640703 0.221379
C44   C     C_3   0.096236 0.842312 0.690812 -0.844874
C45   C     C_3   0.145124 0.235261 0.687559 0.192704
C46   C     C_2   0.063192 0.258759 0.514819 0.417266
C47   C     C_3   0.153387 0.236452 0.777896 -0.842034
C48   C     C_3   0.596073 0.328132 0.601411 0.199689
C49   C     C_3   0.572127 0.364560 0.637544 -0.844001
C50   C     C_3   0.644047 0.735322 0.686155 0.188517
C51   C     C_3   0.651283 0.736421 0.775518 -0.839335
C52   C     C_3   0.022750 0.695718 0.670416 0.043701
C53   C     C_3   0.051266 0.719159 0.769512 -0.307571
C54   C     C_3   0.053598 0.679715 0.832223 -0.991097
C55   C     C_3   0.946494 0.155718 0.472284 0.061630
C56   C     C_3   0.000969 0.112798 0.512990 -0.330088
C57   C     C_2   0.550653 0.257959 0.490672 0.398101
C58   C     C_3   0.963809 0.063332 0.452668 -1.000377
C59   C     C_3   0.540425 0.199190 0.667749 0.106994
C60   C     C_3   0.593182 0.208998 0.782799 -0.346798
C61   C     C_3   0.662410 0.234719 0.826856 -0.821664
C62   C     C_3   0.446756 0.654988 0.469909 0.052656
C63   C     C_3   0.500944 0.611197 0.515543 -0.315372
C64   C     C_3   0.465270 0.563135 0.449257 -0.998443
C65   C     C_3   0.801215 0.473789 0.392847 0.128006
C66   C     C_3   0.731072 0.450363 0.293150 -0.350171
C67   C     C_3   0.710358 0.473249 0.199510 -1.003586
C68   C     C_2   0.562054 0.757734 0.512868 0.418913
C69   C     C_3   0.907809 0.515156 0.684614 0.098126
C70   C     C_3   0.975840 0.544794 0.772772 -0.335615
C71   C     C_3   0.028593 0.511719 0.868084 -0.985243
C72   C     C_3   0.224638 0.973352 0.292434 0.146254
C73   C     C_3   0.189466 0.940262 0.198424 -0.344544
C74   C     C_3   0.199899 0.962915 0.133723 -1.005711
C75   C     C_3   0.382992 0.036864 0.538433 0.038462
C76   C     C_3   0.430149 0.065416 0.531572 -0.291082
C77   C     C_3   0.510121 0.055475 0.625186 -1.014738
C78   C     C_2   0.938571 0.731152 0.432530 -0.216094
C79   C     C_2   0.939664 0.273820 0.434205 -0.232567
C80   C     C_2   0.441822 0.224325 0.438466 -0.258017
C81   C     C_R   0.610465 0.251465 0.498622 0.666684
C82   C     C_2   0.437942 0.771906 0.430718 -0.250420
C83   C     C_2   0.950251 0.738423 0.515353 0.448854
C84   C     C_2   0.937690 0.241085 0.487991 0.405674
C85   C     C_2   0.451172 0.240295 0.516671 0.433189
C86   C     C_2   0.436659 0.739997 0.486233 0.414801
C87   C     C_2   0.780114 0.472937 0.494442 0.300105
C88   C     C_2   0.791192 0.527078 0.526873 0.299954
C89   C     C_2   0.253488 0.971966 0.444729 0.322852
C90   C     C_2   0.267532 0.027780 0.463426 0.296530
C91   C     C_2   0.739087 0.443402 0.495836 0.256867
C92   C     C_R   0.112952 0.251696 0.503189 0.665425
C93   C     C_2   0.733354 0.557883 0.476028 0.313735
C94   C     C_2   0.270238 0.943159 0.519755 0.253194
C95   C     C_2   0.233867 0.055541 0.481843 0.287710
C96   C     C_2   0.811631 0.027468 0.555813 0.404744
C97   C     C_2   0.808886 0.971606 0.540630 0.405597
C98   C     C_2   0.310204 0.527330 0.552019 0.401898
C99   C     C_2   0.305296 0.471736 0.531890 0.391067
C100  C     C_2   0.750965 0.055936 0.490040 -0.498373
C101  C     C_2   0.750419 0.944341 0.501937 -0.474225
C102  C     C_2   0.249813 0.555905 0.489019 -0.481929
C103  C     C_R   0.111294 0.750989 0.500281 0.680117
C104  C     C_2   0.250730 0.444222 0.505272 -0.463490
C105  C     C_R   0.888967 0.748810 0.501030 0.694729
C106  C     C_R   0.887629 0.248701 0.498050 0.719618
C107  C     C_R   0.389192 0.248936 0.501277 0.702363
C108  C     C_R   0.387393 0.748454 0.497589 0.712509
C109  C     C_R   0.750074 0.888669 0.499530 0.897325
C110  C     C_R   0.750359 0.111275 0.499645 0.915899
C111  C     C_R   0.250046 0.388655 0.499798 0.894428
C112  C     C_R   0.250169 0.611262 0.499603 0.919011
C113  C     C_R   0.747666 0.612000 0.496614 0.808090
C114  C     C_2   0.949655 0.740868 0.887485 0.250202
C115  C     C_R   0.746999 0.388258 0.497998 0.777242
C116  C     C_R   0.245990 0.111310 0.495777 0.740933
C117  C     C_R   0.252456 0.888620 0.502502 0.801000
C118  C     C_R   0.612285 0.750478 0.222983 0.796632
C119  C     C_R   0.610050 0.251454 0.223015 0.782925
C120  C     C_R   0.112929 0.251218 0.222842 0.780939
C121  C     C_R   0.110620 0.751418 0.223021 0.773504
C122  C     C_R   0.889790 0.748578 0.777130 0.761860
C123  C     C_R   0.888310 0.249725 0.777253 0.755425
C124  C     C_R   0.388889 0.249812 0.776892 0.748130
C125  C     C_2   0.939640 0.245470 0.888053 0.255796
C126  C     C_R   0.387576 0.749027 0.777302 0.752899
C127  C     C_2   0.067787 0.759818 0.057484 0.317296
C128  C     C_2   0.057951 0.223422 0.054377 0.283856
C129  C     C_2   0.550607 0.283356 0.054282 0.300330
C130  C     C_2   0.544211 0.713785 0.056396 0.299544
C131  C     C_2   0.051242 0.759960 0.112447 0.270251
C132  C     C_2   0.069793 0.261135 0.114968 0.254048
C133  C     C_2   0.545574 0.261292 0.114884 0.268262
C134  C     C_2   0.565754 0.756306 0.113331 0.283913
C135  C     C_2   0.010234 0.769531 0.946222 0.316158
C136  C     C_2   0.450062 0.245826 0.887434 0.289279
C137  C     C_2   0.009100 0.232971 0.943950 0.343852
C138  C     C_2   0.482859 0.288693 0.944036 0.293068
C139  C     C_2   0.499927 0.720182 0.945891 0.299563
C140  C     C_3   0.177966 0.782985 0.119529 0.154760
C141  C     C_3   0.198020 0.774775 0.059863 -0.350321
C142  C     C_3   0.250963 0.815247 0.086968 -0.982296
C143  C     C_3   0.134261 0.157878 0.095335 0.158906
C144  C     C_3   0.105879 0.114189 0.019398 -0.324615
C145  C     C_3   0.160330 0.099221 0.015273 -0.991243
C146  C     C_3   0.621492 0.331220 0.044565 0.112740
C147  C     C_2   0.433843 0.741506 0.886612 0.261999
C148  C     C_3   0.610968 0.311772 0.956074 -0.330751
C149  C     C_3   0.611443 0.355792 0.902861 -0.915437
C150  C     C_3   0.569872 0.626413 0.066491 0.110562
C151  C     C_3   0.502143 0.595978 0.978643 -0.342763
C152  C     C_3   0.521646 0.546770 0.957530 -0.948271
C153  C     C_3   0.636372 0.440042 0.469878 0.143876
C154  C     C_3   0.582392 0.434028 0.352716 -0.397951
C155  C     C_3   0.515651 0.404620 0.309859 -0.978657
C156  C     C_3   0.608344 0.575479 0.331942 0.053703
C157  C     C_3   0.579680 0.588620 0.379344 -0.354392
C158  C     C_2   0.998394 0.724791 0.441373 -0.238365
C159  C     C_3   0.525394 0.632567 0.322056 -0.956403
C160  C     C_3   0.373915 0.944673 0.691464 0.053169
C161  C     C_3   0.411439 0.970721 0.793125 -0.288096
C162  C     C_3   0.431389 0.025922 0.796550 -0.881795
C163  C     C_3   0.160028 0.055209 0.514663 0.114764
C164  C     C_3   0.216185 0.048504 0.631255 -0.267778
C165  C     C_3   0.192600 0.075184 0.677552 -0.991673
C166  C     C_3   0.922506 0.058591 0.633914 0.137010
C167  C     C_3   0.981420 0.094759 0.718588 -0.753591
C168  C     C_3   0.865510 0.943286 0.495618 0.080654
H1    H     H_    0.700486 0.038766 0.422399 0.125294
H2    H     H_    0.900109 0.304322 0.389956 0.144336
H3    H     H_    0.156538 0.441961 0.201055 0.256569
H4    H     H_    0.105399 0.472648 0.079477 0.274383
H5    H     H_    0.169059 0.422875 0.119709 0.266138
H6    H     H_    0.471367 0.319758 0.116848 0.092752
H7    H     H_    0.490703 0.266642 0.195692 0.171564
H8    H     H_    0.348029 0.283244 0.970639 0.214794
H9    H     H_    0.367771 0.232283 0.052460 0.233762
H10   H     H_    0.386428 0.297138 0.171156 0.275078
H11   H     H_    0.297274 0.300762 0.042937 0.262003
H12   H     H_    0.364100 0.347650 0.085960 0.265351
H13   H     H_    0.388480 0.214748 0.364864 0.132185
H14   H     H_    0.603477 0.854499 0.067970 0.156822
H15   H     H_    0.654776 0.824367 0.188227 0.092002
H16   H     H_    0.532055 0.904011 0.085041 0.219011
H17   H     H_    0.575355 0.872176 0.202699 0.253637
H18   H     H_    0.694476 0.907551 0.283810 0.249916
H19   H     H_    0.629393 0.957400 0.236616 0.268958
H20   H     H_    0.651134 0.940122 0.165863 0.262750
H21   H     H_    0.042873 0.865124 0.990171 0.119333
H22   H     H_    0.949780 0.855900 0.869825 0.151718
H23   H     H_    0.075522 0.887006 0.895980 0.206309
H24   H     H_    0.398048 0.802133 0.385504 0.133725
H25   H     H_    0.983996 0.875928 0.775588 0.266850
H26   H     H_    0.940545 0.946655 0.812832 0.281524
H27   H     H_    0.008417 0.968762 0.818492 0.278116
H28   H     H_    0.031918 0.957614 0.935498 0.250054
H29   H     H_    0.115476 0.243967 0.914020 0.170434
H30   H     H_    0.118934 0.273170 0.004830 0.100775
H31   H     H_    0.007747 0.294449 0.771763 0.235820
H32   H     H_    0.004379 0.323521 0.857301 0.202416
H33   H     H_    0.125377 0.362486 0.959097 0.263333
H34   H     H_    0.062334 0.381013 0.826463 0.266270
H35   H     H_    0.228382 0.782696 0.202540 0.171513
H36   H     H_    0.130171 0.333273 0.874669 0.265701
H37   H     H_    0.496951 0.374203 0.028750 0.120058
H38   H     H_    0.404835 0.350631 0.942074 0.147706
H39   H     H_    0.457390 0.436383 0.894585 0.228047
H40   H     H_    0.365824 0.414647 0.813057 0.228349
H41   H     H_    0.368580 0.440704 0.947614 0.266442
H42   H     H_    0.386413 0.493649 0.906093 0.273206
H43   H     H_    0.459926 0.463661 0.027374 0.265477
H44   H     H_    0.617725 0.701462 0.937136 0.164867
H45   H     H_    0.628602 0.730101 0.034883 0.109024
H46   H     H_    0.153506 0.821671 0.102528 0.123540
H47   H     H_    0.546159 0.773009 0.819901 0.233104
H48   H     H_    0.543621 0.802982 0.905591 0.213801
H49   H     H_    0.676355 0.814531 0.036948 0.256736
H50   H     H_    0.636007 0.842356 0.917061 0.267670
H51   H     H_    0.682490 0.781729 0.956689 0.269264
H52   H     H_    0.019421 0.657315 0.957277 0.150613
H53   H     H_    0.925934 0.644373 0.840387 0.154914
H54   H     H_    0.905304 0.612432 0.945221 0.258298
H55   H     H_    0.975351 0.577170 0.968162 0.212409
H56   H     H_    0.999239 0.624133 0.060272 0.247722
H57   H     H_    0.222845 0.736332 0.077462 0.225114
H58   H     H_    0.897202 0.177788 0.930164 0.137056
H59   H     H_    0.818738 0.217326 0.832163 0.135258
H60   H     H_    0.823191 0.190673 0.965587 0.195914
H61   H     H_    0.909784 0.221349 0.062741 0.259671
H62   H     H_    0.830266 0.259282 0.964211 0.261379
H63   H     H_    0.513455 0.191519 0.863775 0.087946
H64   H     H_    0.445820 0.145974 0.824843 0.158144
H65   H     H_    0.537515 0.107793 0.001164 0.264236
H66   H     H_    0.566489 0.105954 0.936429 0.197192
H67   H     H_    0.603230 0.153194 0.034907 0.257055
H68   H     H_    0.148748 0.776667 0.976615 0.258191
H69   H     H_    0.386709 0.684148 0.939340 0.134593
H70   H     H_    0.311943 0.719168 0.824601 0.125673
H71   H     H_    0.297958 0.711431 0.943469 0.193247
H72   H     H_    0.383660 0.742737 0.043310 0.261941
H73   H     H_    0.309060 0.777415 0.928858 0.251986
H74   H     H_    0.152118 0.833712 0.647399 0.169270
H75   H     H_    0.139992 0.774302 0.684412 0.141295
H76   H     H_    0.053687 0.824008 0.681197 0.290510
H77   H     H_    0.145459 0.846467 0.773875 0.200003
H78   H     H_    0.077739 0.880935 0.656167 0.245927
H79   H     H_    0.226635 0.853940 0.068017 0.269693
H80   H     H_    0.196299 0.249410 0.714854 0.144692
H81   H     H_    0.135034 0.194918 0.660768 0.156299
H82   H     H_    0.102823 0.223411 0.753554 0.284672
H83   H     H_    0.198285 0.210833 0.839183 0.201261
H84   H     H_    0.165668 0.275919 0.808864 0.245071
H85   H     H_    0.625252 0.351452 0.590171 0.147395
H86   H     H_    0.633278 0.299309 0.662405 0.156224
H87   H     H_    0.536936 0.344765 0.641754 0.301262
H88   H     H_    0.620083 0.379673 0.714588 0.201839
H89   H     H_    0.542337 0.397113 0.583846 0.242468
H90   H     H_    0.264326 0.808174 0.042396 0.270148
H91   H     H_    0.694874 0.750601 0.713792 0.148647
H92   H     H_    0.635836 0.694815 0.660752 0.159597
H93   H     H_    0.601677 0.721070 0.751384 0.282100
H94   H     H_    0.698150 0.712776 0.839137 0.200130
H95   H     H_    0.659665 0.776332 0.802932 0.255973
H96   H     H_    0.061407 0.665887 0.690264 0.157241
H97   H     H_    0.970781 0.675644 0.628982 0.124951
H98   H     H_    0.106469 0.734235 0.815520 0.213877
H99   H     H_    0.016018 0.751466 0.751465 0.265591
H100  H     H_    0.998193 0.666451 0.789322 0.244310
H101  H     H_    0.301540 0.813640 0.169771 0.264940
H102  H     H_    0.076936 0.697156 0.905250 0.285837
H103  H     H_    0.087528 0.646479 0.849886 0.264241
H104  H     H_    0.918139 0.163768 0.391836 0.122956
H105  H     H_    0.906474 0.142976 0.473229 0.140721
H106  H     H_    0.038951 0.124624 0.507643 0.213939
H107  H     H_    0.032528 0.105794 0.594684 0.226071
H108  H     H_    0.926462 0.050340 0.458406 0.253982
H109  H     H_    0.004937 0.033063 0.484301 0.266316
H110  H     H_    0.933091 0.069166 0.370964 0.269382
H111  H     H_    0.566575 0.174378 0.652201 0.140750
H112  H     H_    0.702280 0.962899 0.474826 0.131803
H113  H     H_    0.180665 0.143266 0.173678 0.169425
H114  H     H_    0.494164 0.177767 0.645119 0.061037
H115  H     H_    0.566605 0.233344 0.798064 0.213304
H116  H     H_    0.607228 0.171858 0.822142 0.167708
H117  H     H_    0.686527 0.213397 0.804559 0.241935
H118  H     H_    0.701896 0.235586 0.911596 0.232090
H119  H     H_    0.651177 0.274662 0.799523 0.274242
H120  H     H_    0.423347 0.663315 0.392101 0.128966
H121  H     H_    0.402930 0.642858 0.463423 0.140597
H122  H     H_    0.545078 0.623043 0.522743 0.218860
H123  H     H_    0.525094 0.602386 0.593218 0.224374
H124  H     H_    0.156233 0.189099 0.083022 0.110662
H125  H     H_    0.421632 0.550171 0.442290 0.260642
H126  H     H_    0.506023 0.532118 0.484822 0.263069
H127  H     H_    0.442241 0.570731 0.371767 0.272592
H128  H     H_    0.845175 0.465467 0.397482 0.163776
H129  H     H_    0.796779 0.516244 0.391775 0.142861
H130  H     H_    0.738183 0.408395 0.293475 0.250121
H131  H     H_    0.686264 0.457345 0.287254 0.220166
H132  H     H_    0.700921 0.515041 0.195912 0.269840
H133  H     H_    0.659995 0.455104 0.129117 0.260380
H134  H     H_    0.753738 0.466288 0.202429 0.268866
H135  H     H_    0.094569 0.080515 0.042549 0.213414
H136  H     H_    0.923639 0.482212 0.665334 0.186286
H137  H     H_    0.882593 0.500903 0.710299 0.139461
H138  H     H_    0.002595 0.558475 0.749401 0.229009
H139  H     H_    0.960748 0.578536 0.791286 0.214912
H140  H     H_    0.002983 0.498195 0.893228 0.266426
H141  H     H_    0.076972 0.534551 0.930895 0.268705
H142  H     H_    0.045864 0.478190 0.852241 0.271478
H143  H     H_    0.283494 0.975555 0.339551 0.153318
H144  H     H_    0.199862 0.012153 0.266629 0.172265
H145  H     H_    0.213626 0.901329 0.223496 0.228376
H146  H     H_    0.054628 0.125904 0.941944 0.263188
H147  H     H_    0.130759 0.936853 0.150830 0.225036
H148  H     H_    0.174274 0.001191 0.105510 0.279695
H149  H     H_    0.174257 0.937751 0.066826 0.268282
H150  H     H_    0.258219 0.966227 0.179324 0.273512
H151  H     H_    0.390468 0.995018 0.536952 0.122567
H152  H     H_    0.400351 0.047456 0.611723 0.147565
H153  H     H_    0.416267 0.052905 0.461654 0.219073
H154  H     H_    0.419357 0.107122 0.525507 0.222592
H155  H     H_    0.525644 0.069588 0.695513 0.256565
H156  H     H_    0.542720 0.075923 0.616789 0.261062
H157  H     H_    0.168630 0.131522 0.985808 0.275635
H158  H     H_    0.522125 0.013936 0.632847 0.275143
H159  H     H_    0.139844 0.065904 0.963395 0.268675
H160  H     H_    0.212772 0.088602 0.092629 0.265799
H161  H     H_    0.676290 0.348096 0.103147 0.157884
H162  H     H_    0.584162 0.363115 0.021018 0.156803
H163  H     H_    0.655010 0.284508 0.986112 0.215245
H164  H     H_    0.198809 0.538726 0.422248 0.121578
H165  H     H_    0.559030 0.291250 0.898770 0.227956
H166  H     H_    0.567136 0.383150 0.871186 0.281995
H167  H     H_    0.603285 0.340655 0.838917 0.270362
H168  H     H_    0.663895 0.376131 0.957528 0.251089
H169  H     H_    0.607648 0.600339 0.132771 0.163697
H170  H     H_    0.599402 0.639296 0.047034 0.144536
H171  H     H_    0.472062 0.586100 0.998636 0.218114
H172  H     H_    0.466161 0.619302 0.907967 0.239243
H173  H     H_    0.558323 0.554854 0.948165 0.262553
H174  H     H_    0.471843 0.528802 0.886123 0.286853
H175  H     H_    0.207311 0.462589 0.491929 0.127822
H176  H     H_    0.548624 0.519572 0.021715 0.263219
H177  H     H_    0.609529 0.463458 0.485797 0.150853
H178  H     H_    0.647283 0.402858 0.506771 0.153482
H179  H     H_    0.565144 0.472156 0.316337 0.255440
H180  H     H_    0.607024 0.413069 0.330965 0.193739
H181  H     H_    0.530881 0.365478 0.342478 0.269386
H182  H     H_    0.477340 0.401448 0.225465 0.262306
H183  H     H_    0.488364 0.424895 0.328151 0.274259
H184  H     H_    0.563255 0.558327 0.255416 0.159522
H185  H     H_    0.623129 0.610111 0.315794 0.165928
H186  H     H_    0.995382 0.693581 0.399296 0.136678
H187  H     H_    0.553131 0.554490 0.376129 0.223179
H188  H     H_    0.624379 0.599705 0.460796 0.238652
H189  H     H_    0.551403 0.667393 0.326208 0.261156
H190  H     H_    0.505164 0.641457 0.357125 0.257581
H191  H     H_    0.478883 0.621970 0.240614 0.265495
H192  H     H_    0.406612 0.950189 0.674153 0.102038
H193  H     H_    0.371906 0.903133 0.701437 0.125335
H194  H     H_    0.375428 0.969875 0.805292 0.228489
H195  H     H_    0.461485 0.949261 0.856576 0.169744
H196  H     H_    0.473430 0.027052 0.795747 0.236679
H197  H     H_    0.974464 0.269623 0.355287 0.124445
H198  H     H_    0.452968 0.044282 0.867967 0.253542
H199  H     H_    0.383494 0.047860 0.730495 0.265119
H200  H     H_    0.109842 0.036090 0.482619 0.158011
H201  H     H_    0.143420 0.095467 0.489335 0.138321
H202  H     H_    0.223795 0.007090 0.649551 0.244878
H203  H     H_    0.268924 0.064246 0.667237 0.240254
H204  H     H_    0.184171 0.116582 0.659473 0.273078
H205  H     H_    0.235079 0.070642 0.761942 0.272873
H206  H     H_    0.141954 0.058008 0.647343 0.259972
H207  H     H_    0.894159 0.076559 0.558913 0.117911
H208  H     H_    0.507141 0.185205 0.421080 0.138731
H209  H     H_    0.949193 0.022801 0.642128 0.170548
H210  H     H_    0.011431 0.077070 0.794001 0.238403
H211  H     H_    0.019664 0.102387 0.711998 0.195452
H212  H     H_    0.957631 0.131561 0.713541 0.302503
H213  H     H_    0.858244 0.981522 0.463138 0.101342
H214  H     H_    0.819914 0.918116 0.433887 0.136361
H215  H     H_    0.942423 0.881098 0.566566 0.278682
H216  H     H_    0.931365 0.916078 0.472141 0.219745
H217  H     H_    0.981323 0.944148 0.596530 0.235634
H218  H     H_    0.410097 0.546718 0.569411 0.124946
H219  H     H_    0.473644 0.767378 0.352875 0.125988
H220  H     H_    0.459151 0.507711 0.683361 0.186314
H221  H     H_    0.498977 0.590316 0.784999 0.271651
H222  H     H_    0.531894 0.581521 0.726680 0.182491
H223  H     H_    0.457671 0.624814 0.670172 0.288862
H224  H     H_    0.322315 0.489050 0.416320 0.112465
H225  H     H_    0.286843 0.424796 0.390478 0.134487
H226  H     H_    0.408599 0.389014 0.487248 0.278124
H227  H     H_    0.377827 0.429435 0.383646 0.211142
H228  H     H_    0.443771 0.453307 0.513495 0.242274
H229  H     H_    0.923465 0.803637 0.091368 0.155651
H230  H     H_    0.884033 0.729706 0.356460 0.118174
H231  H     H_    0.010895 0.784373 0.203994 0.121597
H232  H     H_    0.885807 0.715905 0.020872 0.243574
H233  H     H_    0.973625 0.691494 0.131163 0.241593
H234  H     H_    0.957731 0.723372 0.243331 0.281207
H235  H     H_    0.889153 0.678148 0.148161 0.265549
H236  H     H_    0.868040 0.745526 0.130801 0.260285
H237  H     H_    0.139900 0.331035 0.125193 0.095682
H238  H     H_    0.126588 0.351830 0.205074 0.158548
H239  H     H_    0.042259 0.390594 0.988331 0.224058
H240  H     H_    0.028526 0.410541 0.067373 0.235404
O1    O     O_3   0.750030 0.750030 0.500000 -0.478565
O2    O     O_R   0.750010 0.364550 0.560050 -0.655580
O3    O     O_R   0.250010 0.135450 0.560050 -0.672036
O4    O     O_R   0.250010 0.864550 0.560050 -0.635572
O5    O     O_R   0.605390 0.780070 0.439910 -0.640249
O6    O     O_R   0.605390 0.219930 0.439910 -0.649757
O7    O     O_R   0.105390 0.280070 0.439910 -0.635023
O8    O     O_R   0.105390 0.719930 0.439910 -0.654737
O9    O     O_R   0.834580 0.719970 0.439940 -0.670732
O10   O     O_R   0.834580 0.280030 0.439940 -0.654670
O11   O     O_R   0.334580 0.219970 0.439940 -0.682817
O12   O     O_3   0.750030 0.249970 0.500000 -0.483603
O13   O     O_R   0.334580 0.780030 0.439940 -0.680491
O14   O     O_R   0.665460 0.720000 0.560050 -0.668292
O15   O     O_R   0.665460 0.280000 0.560050 -0.673610
O16   O     O_R   0.165460 0.220000 0.560050 -0.677158
O17   O     O_R   0.165460 0.780000 0.560050 -0.658433
O18   O     O_R   0.894670 0.780060 0.560110 -0.637701
O19   O     O_R   0.894670 0.219940 0.560110 -0.628349
O20   O     O_R   0.394670 0.280060 0.560110 -0.610759
O21   O     O_R   0.394670 0.719940 0.560110 -0.627162
O22   O     O_R   0.689950 0.864610 0.439940 -0.653504
O23   O     O_3   0.250030 0.250030 0.500000 -0.483621
O24   O     O_R   0.689950 0.135390 0.439940 -0.645372
O25   O     O_R   0.189950 0.364610 0.439940 -0.659630
O26   O     O_R   0.189950 0.635390 0.439940 -0.652246
O27   O     O_R   0.750020 0.635440 0.439910 -0.654445
O28   O     O_R   0.750020 0.364560 0.439910 -0.627979
O29   O     O_R   0.250020 0.135440 0.439910 -0.591201
O30   O     O_R   0.250020 0.864560 0.439910 -0.620217
O31   O     O_R   0.605400 0.780060 0.270840 -0.641498
O32   O     O_R   0.605400 0.219940 0.270840 -0.629084
O33   O     O_R   0.105400 0.280060 0.270840 -0.628573
O34   O     O_3   0.250030 0.749970 0.500000 -0.481550
O35   O     O_R   0.105400 0.719940 0.270840 -0.656283
O36   O     O_R   0.834560 0.720000 0.729150 -0.626952
O37   O     O_R   0.834560 0.280000 0.729150 -0.626346
O38   O     O_R   0.334560 0.220000 0.729150 -0.639581
O39   O     O_R   0.334560 0.780000 0.729150 -0.634755
O40   O     O_R   0.665490 0.719970 0.270840 -0.651397
O41   O     O_R   0.665490 0.280030 0.270840 -0.629679
O42   O     O_R   0.165490 0.219970 0.270840 -0.645687
O43   O     O_R   0.165490 0.780030 0.270840 -0.653025
O44   O     O_R   0.894650 0.780070 0.729170 -0.630274
O45   O     O_R   0.810120 0.864610 0.560110 -0.589709
O46   O     O_R   0.894650 0.219930 0.729170 -0.620066
O47   O     O_R   0.394650 0.280070 0.729170 -0.620305
O48   O     O_R   0.394650 0.719930 0.729170 -0.609012
O49   O     O_3   0.134405 0.742054 0.099914 -0.688211
O50   O     O_3   0.080112 0.173704 0.090700 -0.658003
O51   O     O_3   0.618778 0.290480 0.091673 -0.656225
O52   O     O_3   0.552980 0.666468 0.098674 -0.684031
O53   O     O_3   0.701301 0.465747 0.516176 -0.651209
O54   O     O_3   0.664581 0.538594 0.390624 -0.679460
O55   O     O_3   0.303752 0.965257 0.613262 -0.641399
O56   O     O_R   0.810120 0.135390 0.560110 -0.614945
O57   O     O_3   0.182264 0.030115 0.472520 -0.661254
O58   O     O_3   0.875321 0.048836 0.645179 -0.570205
O59   O     O_3   0.870472 0.947306 0.576835 -0.579606
O60   O     O_3   0.373851 0.548708 0.641736 -0.584482
O61   O     O_3   0.358089 0.448364 0.542761 -0.591827
O62   O     O_3   0.983635 0.779661 0.065311 -0.680939
O63   O     O_3   0.042166 0.309901 0.075273 -0.618721
O64   O     O_3   0.478345 0.247313 0.074383 -0.626061
O65   O     O_3   0.543328 0.804342 0.067082 -0.644764
O66   O     O_3   0.023459 0.802511 0.902709 -0.667454
O67   O     O_R   0.310120 0.364610 0.560110 -0.574438
O68   O     O_3   0.032208 0.222796 0.896710 -0.661302
O69   O     O_3   0.457473 0.336303 0.897177 -0.659901
O70   O     O_3   0.524429 0.702798 0.903139 -0.660008
O71   O     O_3   0.942024 0.703071 0.931717 -0.607224
O72   O     O_3   0.916776 0.255834 0.935499 -0.581149
O73   O     O_3   0.475805 0.198218 0.934172 -0.591075
O74   O     O_3   0.409519 0.758565 0.929508 -0.578224
O75   O     O_3   0.049664 0.801842 0.536204 -0.594175
O76   O     O_3   0.087182 0.267344 0.609871 -0.590078
O77   O     O_3   0.534953 0.305269 0.507709 -0.602295
O78   O     O_R   0.310120 0.635390 0.560110 -0.597647
O79   O     O_3   0.585162 0.766429 0.607254 -0.594625
O80   O     O_3   0.019316 0.733886 0.613014 -0.644822
O81   O     O_3   0.983662 0.199140 0.535626 -0.611235
O82   O     O_3   0.519345 0.245987 0.614796 -0.600930
O83   O     O_3   0.482676 0.698077 0.534831 -0.611298
O84   O     O_3   0.820827 0.451439 0.479339 -0.667712
O85   O     O_3   0.860309 0.547909 0.599438 -0.684205
O86   O     O_3   0.212301 0.950379 0.347787 -0.650646
O87   O     O_3   0.310521 0.051167 0.454878 -0.674745
O88   O     O_R   0.750010 0.635450 0.560050 -0.653807
Zn1   Zn    Zn3+2 0.835880 0.792950 0.585850 0.972660
Zn2   Zn    Zn3+2 0.750030 0.292900 0.414160 0.967107
Zn3   Zn    Zn3+2 0.250030 0.207100 0.414160 0.961627
Zn4   Zn    Zn3+2 0.250030 0.792900 0.414160 0.953195
Zn5   Zn    Zn3+2 0.750010 0.707110 0.585820 0.958050
Zn6   Zn    Zn3+2 0.750010 0.292890 0.585820 0.949740
Zn7   Zn    Zn3+2 0.250010 0.207110 0.585820 0.937388
Zn8   Zn    Zn3+2 0.250010 0.792890 0.585820 0.960047
Zn9   Zn    Zn3+2 0.835880 0.207050 0.585850 0.972445
Zn10  Zn    Zn3+2 0.335880 0.292950 0.585850 1.003393
Zn11  Zn    Zn3+2 0.335880 0.707050 0.585850 0.977357
Zn12  Zn    Zn3+2 0.664180 0.792950 0.414160 0.960390
Zn13  Zn    Zn3+2 0.664180 0.207050 0.414160 0.960214
Zn14  Zn    Zn3+2 0.164180 0.292950 0.414160 0.970407
Zn15  Zn    Zn3+2 0.164180 0.707050 0.414160 0.952378
Zn16  Zn    Zn3+2 0.750030 0.707100 0.414160 0.956612

loop_
_geom_bond_atom_site_label_1
_geom_bond_atom_site_label_2
_ccdc_geom_bond_type
C150  H169  S    
C77   H158  S    
C69   H136  S    
C87   C91   D    
C67   H132  S    
C27   H34   S    
C28   H38   S    
C19   C20   S    
C156  H184  S    
C162  H196  S    
C90   C95   D    
C3    H216  S    
C132  O63   S    
O21   Zn11  S    
O23   Zn3   S    
O45   Zn1   S    
C29   H40   S    
C153  O53   S    
C48   O77   S    
C73   H147  S    
C107  O11   A    
C163  H201  S    
O1    Zn1   S    
C49   H87   S    
C94   C117  S    
C105  O9    A    
C166  H209  S    
C143  C144  S    
C1    C68   S    
C165  H205  S    
C145  H160  S    
C142  H90   S    
C89   C94   D    
C5    H223  S    
C70   H138  S    
C47   H82   S    
C62   O83   S    
C97   O59   S    
C133  O64   S    
C94   O55   S    
C65   H129  S    
C156  H185  S    
C74   H149  S    
C36   H56   S    
C164  H202  S    
C6    H225  S    
C106  O10   A    
C154  H179  S    
O12   Zn2   S    
C59   C60   S    
C165  H204  S    
C21   C22   S    
O39   Zn8   S    
C130  C134  D    
C150  H170  S    
C9    H233  S    
C161  C162  S    
C41   H70   S    
C45   C47   S    
C73   C74   S    
C126  O39   A    
C51   H94   S    
C62   H121  S    
C143  H113  S    
C154  H180  S    
C129  O51   S    
C140  C141  S    
O4    Zn8   S    
C42   H72   S    
C4    C5    S    
C110  O56   A    
O26   Zn15  S    
C80   H13   S    
C98   C102  D    
C83   C105  S    
C136  O73   S    
C160  H192  S    
C37   C38   S    
C152  H173  S    
O47   Zn10  S    
C150  O52   S    
C28   O69   S    
C124  O38   A    
O32   Zn13  S    
C148  C149  S    
C154  C155  S    
C44   H77   S    
C92   O7    A    
C129  C133  D    
O27   Zn16  S    
C136  C138  D    
C37   H58   S    
O1    Zn16  S    
C33   H49   S    
C43   C44   S    
C56   H106  S    
C7    H228  S    
C3    H215  S    
C151  H172  S    
O35   Zn15  S    
C30   H43   S    
C112  O78   A    
O8    Zn15  S    
C28   C29   S    
C113  O88   A    
C86   C108  S    
C167  H212  S    
C148  H163  S    
C72   C73   S    
O30   Zn4   S    
C71   H140  S    
C126  C147  S    
C6    C7    S    
O28   Zn2   S    
C74   H148  S    
C115  O28   A    
C10   H235  S    
C144  C145  S    
O12   Zn9   S    
C144  H146  S    
C131  O62   S    
O34   Zn4   S    
O22   Zn12  S    
C51   H95   S    
C18   H15   S    
C23   H26   S    
O20   Zn10  S    
C91   O53   S    
C121  O43   A    
O56   Zn9   S    
C69   C70   S    
C62   H120  S    
C35   C158  D    
C105  O18   A    
C20   H18   S    
C40   H65   S    
C98   C99   S    
C22   C23   S    
C52   O80   S    
C138  O69   S    
C48   H85   S    
C135  O66   S    
C98   O60   S    
C120  O42   A    
C87   O84   S    
C45   O76   S    
O43   Zn4   S    
C31   O70   S    
C57   O77   S    
O41   Zn2   S    
C158  H186  S    
C101  H112  S    
O46   Zn9   S    
C13   H208  S    
C117  O4    A    
C50   O79   S    
C53   C54   S    
C127  O49   S    
O38   Zn7   S    
C50   H92   S    
C67   H133  S    
C79   H2    S    
C14   H5    S    
C115  O2    A    
C79   C84   D    
C72   O86   S    
C59   O82   S    
C13   C57   D    
C130  O52   S    
C45   H81   S    
C49   H89   S    
C78   C158  S    
C163  H200  S    
O2    Zn6   S    
C43   O75   S    
C15   O64   S    
O40   Zn16  S    
C7    H226  S    
C145  H157  S    
C25   H30   S    
C26   H32   S    
C9    C10   S    
C47   H83   S    
C86   O83   S    
C118  C134  S    
C107  O20   A    
C17   H11   S    
O23   Zn7   S    
C84   O81   S    
C120  O33   A    
C32   H47   S    
C153  H178  S    
C167  H210  S    
C148  H165  S    
C56   H107  S    
C40   H67   S    
C45   H80   S    
C38   H61   S    
C127  C131  D    
C119  O32   A    
C33   H51   S    
C43   H74   S    
C163  O57   S    
C58   H108  S    
C39   O73   S    
C66   C67   S    
C146  H162  S    
C39   C40   S    
C46   O76   S    
O23   Zn10  S    
C25   C26   S    
C53   H99   S    
C18   O65   S    
C69   O85   S    
C66   H130  S    
C149  H166  S    
C23   H28   S    
C108  O13   A    
C29   C30   S    
C26   H31   S    
C20   H20   S    
C106  O19   A    
C109  O45   A    
C31   C32   S    
C58   H109  S    
C95   C116  S    
C62   C63   S    
C77   H155  S    
C60   H115  S    
O13   Zn4   S    
C61   H118  S    
O34   Zn11  S    
C64   H125  S    
C35   O75   S    
C144  H135  S    
C8    O62   S    
O5    Zn12  S    
C52   C53   S    
C44   H76   S    
C71   H141  S    
C116  O3    A    
C6    H224  S    
C27   H33   S    
O14   Zn5   S    
C14   H3    S    
C19   H16   S    
C31   H45   S    
C123  O37   A    
C156  O54   S    
O19   Zn9   S    
C29   H39   S    
C68   O79   S    
O44   Zn1   S    
O6    Zn13  S    
C39   H64   S    
C12   H239  S    
C55   O81   S    
C96   C100  D    
C140  O49   S    
C54   H102  S    
C147  O74   S    
C56   C58   S    
C145  H159  S    
C146  H161  S    
C34   C36   S    
C160  H193  S    
C5    H222  S    
C162  H198  S    
C70   H139  S    
C161  H194  S    
C63   C64   S    
C32   H48   S    
C143  H124  S    
C142  H79   S    
C23   H27   S    
C150  C151  S    
C157  H188  S    
C22   H23   S    
C74   H150  S    
C104  H175  S    
C87   C88   S    
C100  C110  S    
C146  O51   S    
C59   H111  S    
C41   C42   S    
C92   O16   A    
C11   H238  S    
C102  C112  S    
O12   Zn13  S    
C116  O29   A    
C30   H41   S    
O34   Zn8   S    
C75   H152  S    
C41   H69   S    
C51   H93   S    
C26   C27   S    
C168  H213  S    
C149  H168  S    
C164  C165  S    
C127  C135  S    
C35   C103  S    
C21   O66   S    
C34   H52   S    
C123  C125  S    
C46   C92   S    
C76   H153  S    
C88   O85   S    
C101  C109  S    
C159  H189  S    
C18   C19   S    
C125  O72   S    
C126  O48   A    
C155  H182  S    
C2    C79   S    
O24   Zn13  S    
C3    H217  S    
C152  H174  S    
C78   C83   D    
C31   H44   S    
C37   O72   S    
C122  O44   A    
C16   C17   S    
O67   Zn10  S    
C63   H122  S    
C84   C106  S    
C151  C152  S    
C22   H25   S    
C70   C71   S    
C110  O24   A    
C4    O60   S    
C34   H53   S    
C44   H78   S    
C16   H8    S    
C99   C104  D    
C13   C80   S    
C157  C159  S    
C166  O58   S    
C160  O55   S    
C7    H227  S    
C28   H37   S    
C24   H219  S    
C151  H171  S    
C130  C139  S    
C137  O68   S    
C11   H237  S    
C146  C148  S    
C52   H96   S    
O42   Zn3   S    
C124  C136  S    
O33   Zn14  S    
C143  O50   S    
C167  H211  S    
C40   H66   S    
C111  O25   A    
C49   H88   S    
C25   O68   S    
C43   H75   S    
C82   C86   D    
C54   H100  S    
C165  H206  S    
C10   H236  S    
C60   C61   S    
C2    H197  S    
C80   C85   D    
C123  O46   A    
C50   C51   S    
C93   C113  S    
C71   H142  S    
C48   C49   S    
O88   Zn5   S    
C83   O80   S    
C48   H86   S    
C159  H190  S    
C139  O70   S    
O23   Zn14  S    
C15   H6    S    
C82   H24   S    
C100  H1    S    
C42   H71   S    
C8    H229  S    
O3    Zn7   S    
C114  O71   S    
O15   Zn6   S    
C42   H73   S    
C125  C137  D    
C32   C33   S    
C142  H101  S    
O34   Zn15  S    
C19   H17   S    
C152  H176  S    
C65   H128  S    
C111  O67   A    
C93   O54   S    
C91   C115  S    
C64   H127  S    
O17   Zn8   S    
C24   C68   D    
C37   H59   S    
O16   Zn7   S    
C102  H164  S    
C117  O30   A    
C4    H218  S    
C55   H104  S    
C99   O61   S    
C69   H137  S    
C89   C90   S    
O9    Zn16  S    
C53   H98   S    
C119  O41   A    
C17   H10   S    
C121  O35   A    
O18   Zn1   S    
C122  O36   A    
C163  C164  S    
C75   C76   S    
C108  O21   A    
C81   O15   A    
C38   H62   S    
C128  O50   S    
C33   H50   S    
C2    C46   D    
O25   Zn14  S    
C139  C147  D    
C119  C133  S    
C10   H234  S    
C156  C157  S    
C113  O27   A    
O48   Zn11  S    
C50   H91   S    
C18   H14   S    
C15   C16   S    
C66   H131  S    
C34   O71   S    
C112  O26   A    
C24   C82   S    
C41   O74   S    
C81   O6    A    
O31   Zn12  S    
C164  H203  S    
C89   O86   S    
C9    H232  S    
C129  C138  S    
C58   H110  S    
C8    C9    S    
O1    Zn5   S    
C114  C135  D    
C60   H116  S    
O11   Zn3   S    
C61   H117  S    
O10   Zn2   S    
C134  O65   S    
C155  H183  S    
C161  H195  S    
C140  H46   S    
C153  H177  S    
C63   H123  S    
C6    O61   S    
C1    O14   A    
C121  C131  S    
C128  C132  D    
C3    C168  S    
C8    H231  S    
C141  H57   S    
O1    Zn12  S    
C55   H105  S    
C67   H134  S    
C27   H36   S    
C21   H21   S    
C96   O58   S    
C76   C77   S    
C14   H4    S    
C140  H35   S    
C103  O17   A    
C11   O63   S    
C114  C122  S    
C73   H145  S    
C128  C137  S    
C39   H63   S    
C12   H240  S    
C65   O84   S    
C75   O87   S    
C36   H55   S    
C96   C97   S    
C55   C56   S    
C54   H103  S    
O36   Zn5   S    
C4    H220  S    
C118  O31   A    
C5    H221  S    
C162  H199  S    
C124  O47   A    
C47   H84   S    
C90   O87   S    
C17   H12   S    
C12   C14   S    
C78   H230  S    
C166  C167  S    
C57   C81   S    
C103  O8    A    
C157  H187  S    
O78   Zn11  S    
C36   H54   S    
O12   Zn6   S    
C16   H9    S    
C72   H144  S    
C38   H60   S    
C88   C93   D    
O37   Zn6   S    
C120  C132  S    
C118  O40   A    
C59   H114  S    
C159  H191  S    
C30   H42   S    
C104  C111  S    
C75   H151  S    
C11   C12   S    
O7    Zn14  S    
C15   H7    S    
C168  H214  S    
C160  C161  S    
C149  H167  S    
C141  C142  S    
C20   H19   S    
C168  O59   S    
C21   H22   S    
C76   H154  S    
C141  H68   S    
C166  H207  S    
C1    O5    A    
C77   H156  S    
C52   H97   S    
C61   H119  S    
C155  H181  S    
C25   H29   S    
C85   O82   S    
C95   O57   S    
C72   H143  S    
C65   C66   S    
C109  O22   A    
C64   H126  S    
C153  C154  S    
C85   C107  S    
C97   C101  D    
O29   Zn3   S    
