data_mof_unit_8503.cif
_audit_creation_date              2012-12-11T17:43:40-0500
_audit_creation_method            fapswitch 2.2
_symmetry_space_group_name_H-M    P1
_symmetry_Int_Tables_number       1
_space_group_crystal_system       triclinic
_cell_length_a                    15.07746
_cell_length_b                    15.227119
_cell_length_c                    16.931573
_cell_angle_alpha                 108.929391
_cell_angle_beta                  106.153092
_cell_angle_gamma                 109.078445
_cell_volume                      3137.6858336

loop_
_atom_site_label
_atom_site_type_symbol
_atom_type_description
_atom_site_fract_x
_atom_site_fract_y
_atom_site_fract_z
_atom_type_partial_charge
C1    C     C_R   0.086592 0.291695 0.080356 0.404771
C2    C     C_R   0.077764 0.085343 0.027956 -0.164393
C3    C     C_R   0.000280 0.918633 0.023089 0.124743
C4    C     C_R   0.005317 0.109222 0.054209 0.117920
C5    C     C_R   0.075272 0.989848 0.010570 -0.000073
C6    C     C_R   0.931515 0.039774 0.069017 0.003291
C7    C     C_R   0.750717 0.994466 0.056635 -0.157450
C8    C     C_R   0.255378 0.027568 0.025784 -0.161208
C9    C     C_R   0.715491 0.117399 0.159561 -0.098161
C10   C     C_R   0.284520 0.923753 0.902684 -0.104064
C11   C     C_R   0.469204 0.583039 0.268775 -0.185396
C12   C     C_R   0.911164 0.722912 0.955094 0.440114
C13   C     C_R   0.504784 0.301791 0.647178 -0.185189
C14   C     C_R   0.461163 0.560353 0.179507 -0.128529
C15   C     C_R   0.493376 0.315312 0.728830 -0.134377
C16   C     C_R   0.936733 0.508368 0.741462 -0.129973
C17   C     C_R   0.065404 0.554527 0.263462 -0.054961
C18   C     C_R   0.447352 0.462239 0.121422 0.045093
C19   C     C_R   0.473138 0.396950 0.773646 0.042360
C20   C     C_R   0.443681 0.388219 0.154702 -0.267535
C21   C     C_R   0.463930 0.464262 0.734997 -0.259728
C22   C     C_R   0.452327 0.411594 0.244335 0.597178
C23   C     C_R   0.028891 0.559367 0.736577 0.066731
C24   C     C_R   0.474700 0.450088 0.652910 0.576682
C25   C     C_R   0.464474 0.508917 0.301192 -0.116082
C26   C     C_R   0.495305 0.368956 0.609152 -0.168424
C27   C     C_R   0.524595 0.423581 0.015713 -0.244897
C28   C     C_R   0.380085 0.425553 0.872718 -0.242762
C29   C     C_R   0.538867 0.417426 0.936701 0.063395
C30   C     C_R   0.371542 0.441293 0.955881 0.067341
C31   C     C_R   0.464376 0.413474 0.861963 0.067117
C32   C     C_R   0.444029 0.438723 0.028023 0.054915
C33   C     C_R   0.680414 0.020238 0.085698 -0.115090
C34   C     C_R   0.975192 0.544776 0.274131 0.035362
C35   C     C_R   0.323596 0.006066 0.990599 -0.115920
C36   C     C_R   0.972949 0.596274 0.363603 0.004660
C37   C     C_R   0.040635 0.587651 0.663804 0.055039
C38   C     C_R   0.146223 0.646216 0.588877 -0.290714
C39   C     C_R   0.875947 0.589055 0.455954 -0.232689
C40   C     C_R   0.777239 0.203987 0.812606 -0.130601
C41   C     C_R   0.277820 0.785324 0.177345 -0.126164
C42   C     C_R   0.136086 0.615606 0.655932 0.156637
C43   C     C_R   0.879999 0.585792 0.372684 0.191229
C44   C     C_R   0.956148 0.586996 0.601231 -0.290213
C45   C     C_R   0.760684 0.198255 0.725908 0.051603
C46   C     C_R   0.064603 0.639338 0.443299 -0.252788
C47   C     C_R   0.963618 0.605738 0.527504 0.135766
C48   C     C_R   0.059441 0.635641 0.522135 0.166906
C49   C     C_R   0.719441 0.103148 0.639952 0.123838
C50   C     C_R   0.440539 0.859274 0.324801 0.123032
C51   C     C_R   0.587806 0.030056 0.393321 -0.207892
C52   C     C_R   0.612320 0.916092 0.556776 -0.210922
C53   C     C_R   0.495344 0.949694 0.318944 -0.158936
C54   C     C_R   0.683338 0.005073 0.639002 -0.162890
C55   C     C_R   0.485152 0.845532 0.401386 -0.299400
C56   C     C_R   0.333482 0.783895 0.256610 0.056988
C57   C     C_R   0.699795 0.108717 0.556199 -0.276458
C58   C     C_R   0.576345 0.925596 0.476081 0.186299
C59   C     C_R   0.624785 0.020860 0.474186 0.181663
C60   C     C_R   0.821038 0.188834 0.204833 -0.110211
C61   C     C_R   0.177232 0.862979 0.849884 -0.119426
C62   C     C_R   0.891677 0.163280 0.176276 -0.116028
C63   C     C_R   0.108669 0.883241 0.885168 -0.113268
C64   C     C_R   0.262296 0.536401 0.951928 -0.141359
C65   C     C_R   0.700208 0.403782 0.996054 -0.159240
C66   C     C_R   0.857047 0.066083 0.101283 0.105469
C67   C     C_R   0.288796 0.462473 0.967972 0.029921
C68   C     C_R   0.147367 0.965603 0.973611 0.099253
C69   C     C_R   0.781983 0.297927 0.734641 -0.121898
C70   C     C_R   0.273535 0.690597 0.253426 -0.139188
C71   C     C_R   0.243964 0.433152 0.021257 -0.095848
C72   C     C_R   0.703610 0.498547 0.920245 -0.068034
C73   C     C_R   0.109078 0.593840 0.820572 -0.108356
C74   C     C_R   0.892173 0.468900 0.188606 -0.151900
C75   C     C_R   0.915015 0.203815 0.998888 -0.207969
C76   C     C_R   0.084333 0.806119 0.039433 -0.183631
C77   C     C_R   0.000918 0.200086 0.050029 -0.052444
C78   C     C_R   0.641482 0.435095 0.945574 0.026429
C79   C     C_R   0.997505 0.819874 0.009957 -0.074022
C80   C     C_3   0.720566 0.605268 0.321941 -0.911629
C81   C     C_3   0.207909 0.500102 0.674315 -0.855895
C82   C     C_R   0.930119 0.943736 0.053122 -0.171521
Cl1   Cl    Cl    0.201551 0.344320 0.179798 -0.688167
Cl2   Cl    Cl    0.791844 0.699000 0.875958 -0.717424
Cl3   Cl    Cl    0.447952 0.318931 0.285332 -0.666576
Cl4   Cl    Cl    0.463294 0.534706 0.605375 -0.650146
H1    H     H_    0.721977 0.919380 0.998465 0.146934
H2    H     H_    0.450718 0.528932 0.769643 0.155204
H3    H     H_    0.583239 0.428647 0.073845 0.141387
H4    H     H_    0.321382 0.423244 0.816877 0.133596
H5    H     H_    0.139243 0.660132 0.441374 0.130940
H6    H     H_    0.882974 0.566570 0.606522 0.147224
H7    H     H_    0.219066 0.666338 0.582589 0.150716
H8    H     H_    0.804049 0.572150 0.463273 0.157675
H9    H     H_    0.858918 0.484942 0.693908 0.110079
H10   H     H_    0.144533 0.605802 0.313720 0.096403
H11   H     H_    0.598594 0.965021 0.050649 0.111067
H12   H     H_    0.286552 0.091902 0.093835 0.174691
H13   H     H_    0.406710 0.053518 0.031301 0.117901
H14   H     H_    0.732251 0.182846 0.555190 0.123138
H15   H     H_    0.444819 0.777226 0.408095 0.122808
H16   H     H_    0.701895 0.997155 0.701904 0.128807
H17   H     H_    0.464455 0.961780 0.259864 0.122728
H18   H     H_    0.625323 0.102212 0.390360 0.138584
H19   H     H_    0.578048 0.842276 0.558183 0.153090
H20   H     H_    0.660888 0.137283 0.181746 0.114856
H21   H     H_    0.337309 0.907478 0.875202 0.105125
H22   H     H_    0.848178 0.264057 0.262115 0.125264
H23   H     H_    0.471370 0.527566 0.370688 0.176470
H24   H     H_    0.147215 0.800754 0.781309 0.122795
H25   H     H_    0.973305 0.219335 0.212578 0.150131
H26   H     H_    0.025680 0.835605 0.843400 0.139868
H27   H     H_    0.767567 0.141549 0.831394 0.099999
H28   H     H_    0.306653 0.837833 0.150043 0.091147
H29   H     H_    0.286783 0.577401 0.914370 0.113377
H30   H     H_    0.673033 0.344263 0.017385 0.105184
H31   H     H_    0.775390 0.321977 0.680990 0.098417
H32   H     H_    0.298280 0.655263 0.295385 0.117736
H33   H     H_    0.246996 0.375315 0.043806 0.150407
H34   H     H_    0.504153 0.358019 0.545862 0.177337
H35   H     H_    0.677551 0.525450 0.871282 0.179385
H36   H     H_    0.188520 0.652309 0.848315 0.111128
H37   H     H_    0.810306 0.438886 0.171485 0.114211
H38   H     H_    0.834599 0.148483 0.972920 0.135568
H39   H     H_    0.164521 0.865064 0.079310 0.141200
H40   H     H_    0.875402 0.888791 0.065218 0.148305
H41   H     H_    0.132104 0.138631 0.014141 0.139643
H42   H     H_    0.813396 0.596363 0.253271 0.171814
H43   H     H_    0.666033 0.601276 0.259913 0.255093
H44   H     H_    0.761911 0.687240 0.377526 0.257964
H45   H     H_    0.481089 0.658799 0.313405 0.142432
H46   H     H_    0.674501 0.552402 0.343421 0.261883
H47   H     H_    0.292224 0.659620 0.724580 0.178339
H48   H     H_    0.272947 0.497754 0.722404 0.232328
H49   H     H_    0.209211 0.475209 0.605412 0.275897
H50   H     H_    0.134011 0.444757 0.668589 0.250086
H51   H     H_    0.521050 0.239223 0.613398 0.148525
H52   H     H_    0.466638 0.619282 0.155950 0.130909
H53   H     H_    0.500799 0.262503 0.757356 0.127899
H54   H     H_    0.434317 0.312676 0.111003 0.149512
N1    N     N_R   0.055660 0.348550 0.045620 -0.081709
N2    N     N_R   0.185200 0.638170 0.176300 -0.041586
N3    N     N_R   0.201680 0.494570 0.045620 -0.036451
N4    N     N_R   0.798320 0.505430 0.954380 -0.048243
N5    N     N_R   0.068420 0.560530 0.871650 -0.046492
N6    N     N_R   0.931580 0.439470 0.128350 -0.041764
N7    N     N_R   0.948070 0.295860 0.997670 -0.060445
N8    N     N_R   0.051930 0.704140 0.002330 -0.064278
N9    N     N_2   0.793624 0.572269 0.298994 -0.116676
N10   N     N_2   0.219625 0.605326 0.709713 -0.129957
N11   N     N_R   0.944340 0.651450 0.954380 -0.080821
N12   N     N_R   0.960830 0.507850 0.823700 -0.041988
N13   N     N_R   0.039170 0.492150 0.176300 -0.036511
N14   N     N_R   0.811290 0.303410 0.871650 -0.041092
N15   N     N_R   0.188710 0.696590 0.128350 -0.042218
N16   N     N_R   0.205200 0.552990 0.997670 -0.045860
N17   N     N_R   0.794800 0.447010 0.002330 -0.044309
N18   N     N_R   0.814800 0.361830 0.823700 -0.040194
Ni1   Ni    Ni4+2 0.119340 0.493420 0.109960 0.269820
Ni2   Ni    Ni4+2 0.880660 0.506580 0.890040 0.248238
Ni3   Ni    Ni4+2 0.872590 0.372590 0.000000 0.209240
Ni4   Ni    Ni4+2 0.127410 0.627410 0.000000 0.206402

loop_
_geom_bond_atom_site_label_1
_geom_bond_atom_site_label_2
_ccdc_geom_bond_type
N18   Ni2   S    
N12   Ni2   S    
C6    C82   A    
C72   H35   S    
C27   C29   A    
C1    C77   A    
C14   C18   A    
N14   Ni3   S    
N8    N11   A    
C41   H28   S    
C17   N13   A    
C81   H48   S    
C39   H8    S    
C15   C19   A    
C6    C66   S    
C80   H46   S    
C71   N3    A    
C19   C21   A    
C26   H34   S    
C38   C42   A    
C11   C14   A    
C57   C59   A    
N5    Ni4   S    
C11   C25   A    
C81   N10   S    
C12   C79   A    
C37   C42   A    
C49   C57   A    
C12   Cl2   S    
C60   C62   A    
C22   Cl3   S    
C63   H26   S    
C61   C63   A    
C8    H12   S    
C82   H40   S    
C72   C78   A    
N1    Ni1   S    
C7    H1    S    
C29   C78   S    
C14   H52   S    
C22   C25   A    
C47   C48   A    
C76   C79   A    
C36   C46   A    
C10   C35   A    
C80   H43   S    
N2    N15   A    
N4    Ni2   S    
N2    Ni1   S    
C67   C71   A    
C30   C67   S    
C44   H6    S    
C44   C47   A    
C25   H23   S    
C2    H41   S    
C74   H37   S    
C21   H2    S    
C19   C31   S    
C64   H29   S    
C54   H16   S    
C9    C33   A    
C76   H39   S    
C7    C33   A    
C12   N11   A    
C40   N14   A    
C10   H21   S    
C80   N9    S    
C23   C73   A    
C5    C68   S    
C35   H13   S    
C61   H24   S    
C52   C54   A    
C81   H49   S    
C15   H53   S    
N15   Ni4   S    
C40   C45   A    
N6    Ni3   S    
C46   C48   A    
C70   N2    A    
C50   C53   A    
C80   H44   S    
C62   C66   A    
C45   C69   A    
C75   H38   S    
C64   C67   A    
C4    C6    A    
N7    Ni3   S    
C39   C43   A    
C46   H5    S    
C75   N7    A    
C58   C59   A    
C23   C37   S    
C57   H14   S    
C50   C56   S    
C11   H45   S    
C51   C53   A    
C8    C35   A    
C13   H51   S    
N13   Ni1   S    
C2    C4    A    
C41   C56   A    
C40   H27   S    
C45   C49   S    
C3    C82   A    
C69   N18   A    
C16   N12   A    
C17   H10   S    
C62   H25   S    
C75   C77   A    
C3    C79   S    
C52   C58   A    
C34   C74   A    
C65   N17   A    
C20   C22   A    
C52   H19   S    
C8    C68   A    
C16   C23   A    
C56   C70   A    
C13   C15   A    
C65   H30   S    
C13   C26   A    
C21   C24   A    
C10   C61   A    
C18   C32   S    
C17   C34   A    
N17   Ni3   S    
C81   H50   S    
C39   C47   A    
C72   N4    A    
C55   H15   S    
C63   C68   A    
C16   H9    S    
C65   C78   A    
C51   H18   S    
C27   C32   A    
C38   C48   A    
C74   N6    A    
C28   C31   A    
H47   N10   S    
C24   C26   A    
C3    C5    A    
C60   H22   S    
N3    Ni1   S    
C1    Cl1   S    
C64   N16   A    
C50   C55   A    
C71   H33   S    
C9    C60   A    
N8    Ni4   S    
N11   Ni2   S    
C20   H54   S    
C37   C44   A    
C28   C30   A    
C9    H20   S    
C4    C77   S    
C29   C31   A    
C7    C66   A    
C30   C32   A    
N3    N16   A    
N6    N13   A    
C53   H17   S    
C38   H7    S    
C69   H31   S    
C34   C36   S    
C43   N9    S    
C27   H3    S    
C18   C20   A    
C42   N10   S    
N5    N12   A    
C1    N1    A    
N1    N7    A    
N16   Ni4   S    
C2    C5    A    
H42   N9    S    
C70   H32   S    
C51   C59   A    
C76   N8    A    
C73   H36   S    
C55   C58   A    
C73   N5    A    
N14   N18   A    
C36   C43   A    
C28   H4    S    
C33   H11   S    
N4    N17   A    
C24   Cl4   S    
C49   C54   A    
C41   N15   A    
