data_mof_unit_40747.cif
_audit_creation_date              2012-12-10T18:11:43-0500
_audit_creation_method            fapswitch 2.2
_symmetry_space_group_name_H-M    P1
_symmetry_Int_Tables_number       1
_space_group_crystal_system       triclinic
_cell_length_a                    10.521448
_cell_length_b                    12.666958
_cell_length_c                    13.07541
_cell_angle_alpha                 82.458987
_cell_angle_beta                  90.993073
_cell_angle_gamma                 101.253316
_cell_volume                      1694.27491316

loop_
_atom_site_label
_atom_site_type_symbol
_atom_type_description
_atom_site_fract_x
_atom_site_fract_y
_atom_site_fract_z
_atom_type_partial_charge
C1    C     C_R   0.478623 0.438939 0.690843 0.842794
C2    C     C_3   0.059314 0.588562 0.539229 0.267165
C3    C     C_3   0.958044 0.496630 0.595523 -0.183094
C4    C     C_3   0.877158 0.499950 0.497404 -0.008548
C5    C     C_R   0.454539 0.714947 0.048933 0.464774
C6    C     C_R   0.515718 0.596800 0.195987 -0.140160
C7    C     C_R   0.484875 0.295748 0.837487 -0.190369
C8    C     C_R   0.485446 0.262920 0.942980 -0.152278
C9    C     C_R   0.469570 0.334624 0.011353 -0.201206
C10   C     C_R   0.446242 0.439275 0.974125 0.134802
C11   C     C_R   0.419610 0.462534 0.868816 0.096572
C12   C     C_R   0.741877 0.500064 0.499097 0.864009
C13   C     C_R   0.456168 0.524190 0.035636 0.017317
C14   C     C_R   0.422262 0.624141 0.994724 -0.003326
C15   C     C_R   0.362711 0.632466 0.898249 -0.245785
C16   C     C_R   0.362189 0.552385 0.835236 -0.247544
C17   C     C_R   0.506519 0.514254 0.134389 -0.321450
C18   C     C_R   0.504705 0.702303 0.149720 0.080695
C19   C     C_R   0.456107 0.397434 0.799868 -0.129976
C20   C     C_R   0.321819 0.091946 0.344301 -0.307144
C21   C     C_R   0.664900 0.798929 0.622972 0.524141
C22   C     C_R   0.711119 0.906079 0.642194 -0.048672
C23   C     C_R   0.516809 0.561116 0.307940 0.880884
C24   C     C_R   0.639575 0.986559 0.605851 0.419611
C25   C     C_R   0.534161 0.962001 0.536022 -0.139347
C26   C     C_R   0.504886 0.855152 0.508495 0.012187
C27   C     C_R   0.463825 0.039722 0.485179 -0.001465
C28   C     C_R   0.376022 0.011233 0.403884 0.174067
C29   C     C_R   0.345754 0.903523 0.382550 0.120948
C30   C     C_R   0.412421 0.828391 0.433689 -0.170179
C31   C     C_R   0.478840 0.146571 0.508490 -0.051014
C32   C     C_R   0.355653 0.198204 0.364037 -0.006115
C33   C     C_R   0.258256 0.500882 0.499268 0.841815
C34   C     C_3   0.939621 0.414117 0.456114 -0.138130
C35   C     C_3   0.023491 0.411289 0.554149 -0.223819
C36   C     C_3   0.123410 0.503774 0.498524 0.013095
C37   C     C_3   0.042100 0.507043 0.400379 -0.228496
C38   C     C_3   0.976590 0.592891 0.441303 -0.165867
H1    H     H_    0.052035 0.339104 0.598496 0.154456
H2    H     H_    0.537417 0.440826 0.166593 0.179069
H3    H     H_    0.509880 0.242730 0.785648 0.179175
H4    H     H_    0.475072 0.305686 0.092327 0.131525
H5    H     H_    0.505076 0.184058 0.972190 0.151157
H6    H     H_    0.322992 0.563894 0.758478 0.166149
H7    H     H_    0.317502 0.261618 0.317119 0.140292
H8    H     H_    0.256759 0.074870 0.281028 0.162968
H9    H     H_    0.521246 0.173325 0.577420 0.194306
H10   H     H_    0.886649 0.342477 0.422064 0.138065
H11   H     H_    0.393318 0.748766 0.411456 0.225258
H12   H     H_    0.080672 0.511455 0.321108 0.141427
H13   H     H_    0.953944 0.667135 0.395608 0.142311
H14   H     H_    0.920402 0.492486 0.674989 0.137840
H15   H     H_    0.324742 0.703825 0.868299 0.185231
N1    N     N_R   0.432930 0.222190 0.444670 -0.118128
N2    N     N_R   0.566370 0.776980 0.554790 -0.175327
O1    O     O_R   0.467970 0.366730 0.627150 -0.618878
O2    O     O_R   0.510820 0.544830 0.662520 -0.587964
O3    O     O_R   0.664630 0.410960 0.482340 -0.640752
O4    O     O_R   0.707470 0.589060 0.517710 -0.551961
O5    O     O_R   0.489180 0.455170 0.337480 -0.618971
O6    O     O_R   0.532030 0.633270 0.372850 -0.634663
O7    O     O_R   0.292530 0.410940 0.482290 -0.611707
O8    O     O_R   0.335370 0.589040 0.517660 -0.643259
Zn1   Zn    Zn3+2 0.471390 0.381080 0.476380 0.927812
Zn2   Zn    Zn3+2 0.528610 0.618920 0.523620 0.951948
C39   C     C_3   0.242179 0.866080 0.306309 -0.959622
H16   H     H_    0.227929 0.777298 0.303096 0.243940
H17   H     H_    0.148193 0.883603 0.329530 0.249191
H18   H     H_    0.269343 0.908287 0.227615 0.258739
O9    O     O_3   0.726137 0.716206 0.665529 -0.566512
C40   C     C_3   0.697363 0.690850 0.772541 0.111313
H19   H     H_    0.591768 0.669147 0.786335 0.164140
H20   H     H_    0.734313 0.759211 0.816698 0.113146
C41   C     C_3   0.759468 0.596168 0.817166 -0.810050
H21   H     H_    0.726957 0.525417 0.774873 0.251602
H22   H     H_    0.866620 0.620282 0.810738 0.240872
H23   H     H_    0.731839 0.572259 0.899775 0.210377
O10   O     O_3   0.658443 0.079520 0.653716 -0.643156
C42   C     C_3   0.769049 0.156442 0.615033 0.124012
H24   H     H_    0.737145 0.226705 0.569653 0.162371
H25   H     H_    0.830623 0.126896 0.560865 0.116778
C43   C     C_3   0.848581 0.197409 0.706093 -0.847294
H26   H     H_    0.949796 0.185502 0.700431 0.215261
H27   H     H_    0.848424 0.284701 0.707873 0.222975
H28   H     H_    0.807866 0.153237 0.780879 0.269077
C44   C     C_3   0.836575 0.934395 0.700456 -0.848354
H29   H     H_    0.817395 0.962444 0.774520 0.246066
H30   H     H_    0.888125 0.865729 0.716675 0.249999
H31   H     H_    0.907228 0.997181 0.653388 0.237080
C45   C     C_3   0.121629 0.688085 0.588600 -0.887936
H32   H     H_    0.044856 0.726480 0.616513 0.252891
H33   H     H_    0.181913 0.664312 0.654752 0.232601
H34   H     H_    0.182309 0.747479 0.531027 0.259481
C46   C     C_3   0.553016 0.802957 0.200299 -0.826853
H35   H     H_    0.618472 0.789992 0.265771 0.246124
H36   H     H_    0.612199 0.866454 0.144728 0.235230
H37   H     H_    0.469906 0.835242 0.224510 0.263678
O11   O     O_3   0.438032 0.816713 0.004214 -0.609519
C47   C     C_3   0.541607 0.862364 0.934384 0.077804
H38   H     H_    0.522125 0.831985 0.858637 0.138132
H39   H     H_    0.636652 0.844525 0.963333 0.119626
C48   C     C_3   0.553814 0.984696 0.917622 -0.808928
H40   H     H_    0.577232 0.017442 0.991843 0.235492
H41   H     H_    0.632671 0.021429 0.861389 0.237536
H42   H     H_    0.461640 0.006221 0.887278 0.264418

loop_
_geom_bond_atom_site_label_1
_geom_bond_atom_site_label_2
_ccdc_geom_bond_type
C39   H17   S    
O8    Zn2   S    
C34   C37   S    
C32   H7    S    
C35   C36   S    
C8    H5    S    
C26   N2    A    
C7    C8    A    
C11   C19   A    
C9    H4    S    
C29   C30   A    
C41   H22   S    
C15   H15   S    
C36   C37   S    
C1    O1    A    
C48   H41   S    
C44   H30   S    
C39   H18   S    
C15   C16   A    
C33   C36   S    
C48   H42   S    
C34   C35   S    
C2    C45   S    
O7    Zn1   S    
C12   O4    A    
C8    C9    A    
C41   H23   S    
O1    Zn1   S    
O9    C40   S    
C4    C12   S    
C9    C10   A    
C16   H6    S    
C12   O3    A    
C22   C44   S    
C39   H16   S    
C31   H9    S    
C21   C22   A    
C46   H35   S    
C32   N1    A    
N2    Zn2   S    
O3    Zn1   S    
C23   O5    A    
C6    C18   A    
C4    C34   S    
C1    C19   S    
C41   H21   S    
C27   C31   A    
C24   C25   A    
C42   H25   S    
C44   H29   S    
C33   O7    A    
C5    C18   A    
C20   C28   A    
C46   H37   S    
C25   C26   A    
C10   C13   A    
C29   C39   S    
C17   H2    S    
C35   H1    S    
C37   C38   S    
C1    O2    A    
C42   C43   S    
C11   C16   A    
C2    C38   S    
C45   H33   S    
C47   H38   S    
C3    C35   S    
C33   O8    A    
C46   H36   S    
C5    C14   A    
C24   O10   S    
C47   H39   S    
C30   H11   S    
C4    C38   S    
C26   C30   A    
C43   H27   S    
C18   C46   S    
C22   C24   A    
C34   H10   S    
C3    C4    S    
C45   H34   S    
C21   N2    A    
C20   C32   A    
C2    C36   S    
C6    C17   A    
C28   C29   A    
O10   C42   S    
O2    Zn2   S    
C44   H31   S    
C40   C41   S    
C3    H14   S    
C38   H13   S    
C25   C27   A    
C43   H28   S    
C7    C19   A    
C13   C17   A    
C21   O9    S    
O5    Zn1   S    
C2    C3    S    
C40   H19   S    
O4    Zn2   S    
C37   H12   S    
C45   H32   S    
N1    Zn1   S    
C6    C23   S    
C7    H3    S    
C31   N1    A    
C48   H40   S    
C10   C11   A    
C42   H24   S    
O6    Zn2   S    
C23   O6    A    
C47   C48   S    
C5    O11   S    
O11   C47   S    
C40   H20   S    
C27   C28   A    
C14   C15   A    
C43   H26   S    
C13   C14   A    
C20   H8    S    
