data_mof_unit_45582.cif
_audit_creation_date              2012-12-10T20:55:00-0500
_audit_creation_method            fapswitch 2.2
_symmetry_space_group_name_H-M    P1
_symmetry_Int_Tables_number       1
_space_group_crystal_system       triclinic
_cell_length_a                    15.836764
_cell_length_b                    15.051418
_cell_length_c                    10.544172
_cell_angle_alpha                 87.273647
_cell_angle_beta                  90.068325
_cell_angle_gamma                 89.776152
_cell_volume                      2510.50309086

loop_
_atom_site_label
_atom_site_type_symbol
_atom_type_description
_atom_site_fract_x
_atom_site_fract_y
_atom_site_fract_z
_atom_type_partial_charge
C1    C     C_R   0.338891 0.500130 0.500664 0.919379
C2    C     C_R   0.565626 0.949912 0.559446 0.422290
C3    C     C_R   0.500367 0.904866 0.498590 -0.229960
C4    C     C_R   0.563751 0.044337 0.565504 -0.115652
C5    C     C_R   0.436759 0.049327 0.431814 -0.107158
C6    C     C_R   0.500017 0.094687 0.499232 -0.221997
C7    C     C_1   0.500196 0.807051 0.499319 0.167713
C8    C     C_1   0.499953 0.192916 0.499689 0.093959
C9    C     C_R   0.483364 0.502663 0.262002 0.954120
C10   C     C_R   0.502840 0.497320 0.742558 0.917918
C11   C     C_R   0.484061 0.674007 0.092388 -0.133673
C12   C     C_R   0.661062 0.499844 0.498855 0.943684
C13   C     C_R   0.594094 0.626304 0.897093 -0.129431
C14   C     C_R   0.538747 0.737741 0.035515 0.293485
C15   C     C_R   0.599267 0.711302 0.946955 0.328409
C16   C     C_R   0.530584 0.566307 0.943406 -0.043757
C17   C     C_R   0.489202 0.584391 0.055417 -0.054119
C18   C     C_R   0.459824 0.510103 0.128922 -0.011800
C19   C     C_R   0.502994 0.491083 0.879758 -0.028616
C20   C     C_R   0.433208 0.432985 0.070838 -0.111924
C21   C     C_R   0.454741 0.423133 0.944013 -0.133818
C22   C     C_R   0.955689 0.575868 0.481652 0.406843
C23   C     C_R   0.956074 0.412384 0.480155 -0.136891
C24   C     C_R   0.042526 0.575479 0.498655 0.407251
C25   C     C_R   0.912820 0.494722 0.478652 -0.096027
C26   C     C_R   0.086730 0.494600 0.498208 -0.100650
C27   C     C_2   0.382184 0.363819 0.141885 0.414901
C28   C     C_2   0.425302 0.342407 0.881591 0.414221
C29   C     C_2   0.416308 0.704711 0.178014 0.482075
C30   C     C_2   0.661456 0.598900 0.808806 0.451380
C31   C     C_3   0.495857 0.879058 0.983350 0.106442
C32   C     C_3   0.489272 0.972584 0.031160 -0.719752
C33   C     C_3   0.725518 0.772200 0.995500 0.121115
C34   C     C_R   0.044843 0.412359 0.489009 -0.141403
C35   C     C_3   0.798015 0.828582 0.942920 -0.789276
C36   C     C_3   0.105134 0.671539 0.632661 0.102413
C37   C     C_3   0.043471 0.738541 0.685062 -0.795145
C38   C     C_3   0.888877 0.682791 0.355178 0.087016
C39   C     C_3   0.951907 0.750299 0.299858 -0.787747
C40   C     C_2   0.909314 0.326463 0.477969 0.442618
C41   C     C_2   0.092869 0.326941 0.484269 0.453294
C42   C     C_2   0.372076 0.101537 0.356453 0.434245
C43   C     C_2   0.628968 0.090792 0.640057 0.480629
C44   C     C_3   0.305841 0.891659 0.461042 0.107562
C45   C     C_1   0.823778 0.497430 0.485415 0.112670
C46   C     C_3   0.237787 0.839365 0.395589 -0.728106
C47   C     C_3   0.694827 0.890250 0.524340 0.140045
C48   C     C_3   0.771801 0.847168 0.588198 -0.736589
C49   C     C_1   0.175869 0.498194 0.499668 0.116451
C50   C     C_1   0.250646 0.500131 0.500307 -0.093210
C51   C     C_1   0.749159 0.499301 0.492218 -0.121084
C52   C     C_R   0.435391 0.954426 0.436778 0.432569
H1    H     H_    0.382640 0.295325 0.114148 0.070214
H2    H     H_    0.750451 0.704066 0.019655 0.114465
H3    H     H_    0.702385 0.802250 0.083481 0.178727
H4    H     H_    0.774754 0.896072 0.912924 0.294011
H5    H     H_    0.847192 0.834807 0.017017 0.194588
H6    H     H_    0.826600 0.796726 0.860307 0.243334
H7    H     H_    0.169420 0.700685 0.634236 0.156685
H8    H     H_    0.107189 0.610562 0.697300 0.119957
H9    H     H_    0.979663 0.708808 0.694871 0.271894
H10   H     H_    0.065031 0.757872 0.780093 0.203186
H11   H     H_    0.040003 0.798980 0.620563 0.260846
H12   H     H_    0.358253 0.328406 0.876205 0.055302
H13   H     H_    0.825983 0.715472 0.358424 0.152380
H14   H     H_    0.882196 0.626920 0.289935 0.122168
H15   H     H_    0.014073 0.717955 0.285846 0.275738
H16   H     H_    0.928826 0.777660 0.206531 0.192697
H17   H     H_    0.959546 0.805721 0.364756 0.262919
H18   H     H_    0.935397 0.266735 0.524747 0.049979
H19   H     H_    0.067972 0.272605 0.431715 0.052688
H20   H     H_    0.365514 0.172626 0.366210 0.091234
H21   H     H_    0.635706 0.162452 0.630222 0.085181
H22   H     H_    0.277232 0.954696 0.492340 0.159081
H23   H     H_    0.420344 0.769444 0.218629 0.135157
H24   H     H_    0.327877 0.851181 0.546043 0.114750
H25   H     H_    0.263346 0.774021 0.368950 0.273962
H26   H     H_    0.183443 0.827976 0.460675 0.211777
H27   H     H_    0.215470 0.877066 0.308753 0.270578
H28   H     H_    0.714757 0.955511 0.479767 0.136845
H29   H     H_    0.672779 0.846534 0.448823 0.119399
H30   H     H_    0.754950 0.781123 0.632069 0.257976
H31   H     H_    0.822338 0.838382 0.516996 0.204021
H32   H     H_    0.796011 0.890331 0.662462 0.269911
H33   H     H_    0.696006 0.648617 0.752252 0.103965
H34   H     H_    0.430656 0.854459 0.966506 0.121292
H35   H     H_    0.531102 0.882614 0.891917 0.213154
H36   H     H_    0.553360 0.999459 0.047732 0.262422
H37   H     H_    0.456188 0.016728 0.959637 0.215921
H38   H     H_    0.453252 0.971472 0.121548 0.281510
N1    N     N_1   0.500000 0.270550 0.500000 -0.067503
N2    N     N_1   0.500000 0.729450 0.500000 -0.105070
O1    O     O_R   0.378020 0.573650 0.500040 -0.620335
O2    O     O_2   0.476031 0.288678 0.843070 -0.530528
O3    O     O_2   0.354098 0.659133 0.201340 -0.582910
O4    O     O_2   0.681515 0.520840 0.802341 -0.594982
O5    O     O_3   0.538282 0.824050 0.075203 -0.628857
O6    O     O_3   0.660692 0.770375 0.903544 -0.587191
O7    O     O_3   0.084835 0.655576 0.504877 -0.603079
O8    O     O_3   0.911983 0.655843 0.481046 -0.608443
O9    O     O_2   0.842081 0.320926 0.422160 -0.553893
O10   O     O_2   0.159719 0.315543 0.540613 -0.556334
O11   O     O_2   0.326054 0.066507 0.280617 -0.536007
O12   O     O_R   0.621980 0.573650 0.499960 -0.636274
O13   O     O_2   0.675248 0.050120 0.715338 -0.527551
O14   O     O_3   0.372646 0.909458 0.374979 -0.578544
O15   O     O_3   0.630883 0.900945 0.615908 -0.546661
O16   O     O_R   0.378020 0.426320 0.500100 -0.575033
O17   O     O_R   0.621980 0.426320 0.499900 -0.581176
O18   O     O_R   0.500000 0.573680 0.316780 -0.628789
O19   O     O_R   0.500000 0.573680 0.683220 -0.637600
O20   O     O_R   0.500000 0.426350 0.316830 -0.608889
O21   O     O_R   0.500000 0.426350 0.683170 -0.573056
O22   O     O_2   0.337213 0.383432 0.230373 -0.553862
Zn1   Zn    Zn3+2 0.500000 0.598370 0.500000 0.977013
Zn2   Zn    Zn3+2 0.500000 0.401630 0.500000 1.058733

loop_
_geom_bond_atom_site_label_1
_geom_bond_atom_site_label_2
_ccdc_geom_bond_type
C43   H21   S    
C5    C42   S    
C33   H3    S    
C24   O7    S    
C39   H16   S    
C36   H7    S    
C42   O11   D    
C37   H10   S    
C41   O10   D    
C40   H18   S    
C35   H6    S    
C36   C37   S    
C19   C21   A    
C24   C26   A    
C12   O12   A    
C3    C7    S    
C43   O13   D    
C46   H27   S    
C11   C14   A    
C45   C51   T    
C23   C40   S    
C32   H36   S    
C2    O15   S    
C33   H2    S    
N1    Zn2   S    
C28   O2    D    
C33   O6    S    
O1    Zn1   S    
C44   H24   S    
C30   O4    D    
O17   Zn2   S    
C40   O9    D    
C26   C34   A    
C32   H38   S    
C47   C48   S    
C16   C17   A    
C22   C25   A    
C5    C52   A    
C1    C50   S    
C41   H19   S    
O21   Zn2   S    
C9    O20   A    
C31   O5    S    
C52   O14   S    
C31   H34   S    
C34   C41   S    
C47   H28   S    
C12   O17   A    
C37   H11   S    
C44   C46   S    
C38   C39   S    
C31   H35   S    
C38   H14   S    
C13   C30   S    
C22   O8    S    
C38   O8    S    
C26   C49   S    
C29   O3    D    
C6    C8    S    
C48   H32   S    
C2    C4    A    
O12   Zn1   S    
C32   H37   S    
C38   H13   S    
C10   C19   S    
C23   C34   A    
C42   H20   S    
C17   C18   A    
C39   H17   S    
C10   O19   A    
C8    N1    T    
C30   H33   S    
C44   H22   S    
C10   O21   A    
C28   H12   S    
C4    C6    A    
C4    C43   S    
C21   C28   S    
C47   O15   S    
C13   C15   A    
C22   C24   A    
C15   O6    S    
C25   C45   S    
O20   Zn2   S    
C12   C51   S    
C14   O5    S    
C46   H26   S    
C9    O18   A    
C11   C17   A    
C35   H4    S    
C39   H15   S    
C31   C32   S    
C36   H8    S    
C46   H25   S    
C37   H9    S    
C3    C52   A    
C27   H1    S    
C29   H23   S    
C20   C27   S    
C44   O14   S    
C48   H31   S    
C35   H5    S    
O16   Zn2   S    
C2    C3    A    
C5    C6    A    
C16   C19   A    
C7    N2    T    
C33   C35   S    
C48   H30   S    
C36   O7    S    
C18   C20   A    
C47   H29   S    
N2    Zn1   S    
C1    O16   A    
C27   O22   D    
C9    C18   S    
C23   C25   A    
C20   C21   A    
C11   C29   S    
C1    O1    A    
C49   C50   T    
C13   C16   A    
C14   C15   A    
O19   Zn1   S    
O18   Zn1   S    
