data_mof_unit_20032.cif
_audit_creation_date              2012-12-10T18:57:06-0500
_audit_creation_method            fapswitch 2.2
_symmetry_space_group_name_H-M    P1
_symmetry_Int_Tables_number       1
_space_group_crystal_system       triclinic
_cell_length_a                    10.863635
_cell_length_b                    9.962626
_cell_length_c                    10.829755
_cell_angle_alpha                 91.237732
_cell_angle_beta                  94.455473
_cell_angle_gamma                 90.796951
_cell_volume                      1168.15036806

loop_
_atom_site_label
_atom_site_type_symbol
_atom_type_description
_atom_site_fract_x
_atom_site_fract_y
_atom_site_fract_z
_atom_type_partial_charge
C1    C     C_R   0.260871 0.500448 0.505476 0.923388
C2    C     C_R   0.533305 0.608528 0.940540 0.113600
C3    C     C_R   0.528096 0.489529 0.129740 -0.171987
C4    C     C_R   0.491043 0.496039 0.871811 -0.134268
C5    C     C_R   0.507527 0.366961 0.060781 -0.115073
C6    C     C_R   0.477357 0.372092 0.932504 -0.140499
C7    C     C_3   0.487685 0.750233 0.944965 -0.307056
C8    C     C_3   0.524859 0.748802 0.083247 -0.341810
C9    C     C_R   0.061887 0.385064 0.500820 -0.111897
C10   C     C_R   0.935364 0.386364 0.494865 -0.113618
C11   C     C_R   0.873497 0.507979 0.502041 -0.121186
C12   C     C_R   0.740081 0.501860 0.499719 0.895712
C13   C     C_R   0.129253 0.505208 0.514932 -0.103264
C14   C     C_R   0.940599 0.631723 0.517388 -0.114348
C15   C     C_R   0.069186 0.629802 0.529214 -0.092947
C16   C     C_2   0.518544 0.234026 0.119251 0.989208
C17   C     C_2   0.424859 0.249931 0.864960 1.052224
C18   C     C_2   0.349762 0.766348 0.920634 0.975879
C19   C     C_2   0.636793 0.834900 0.122770 1.026742
C20   C     C_2   0.881609 0.765338 0.521956 1.044334
C21   C     C_2   0.137771 0.760100 0.554704 1.026352
C22   C     C_2   0.687917 0.152467 0.642097 0.435079
C23   C     C_R   0.585933 0.075631 0.572853 -0.041396
C24   C     C_2   0.311080 0.143261 0.361367 0.426337
C25   C     C_2   0.647915 0.874224 0.690973 0.502400
C26   C     C_2   0.339497 0.861747 0.316502 0.528701
C27   C     C_R   0.412687 0.070404 0.428695 -0.034011
C28   C     C_R   0.578367 0.932899 0.582039 -0.027177
C29   C     C_R   0.418317 0.927042 0.420455 0.052622
C30   C     C_R   0.508485 0.497891 0.260823 0.906330
C31   C     C_R   0.492635 0.500098 0.739057 0.921594
C32   C     C_R   0.556908 0.604667 0.066416 0.074395
H1    H     H_    0.541855 0.820905 0.893004 0.158287
H2    H     H_    0.259680 0.868588 0.666949 0.338328
H3    H     H_    0.672031 0.247226 0.687212 0.136103
H4    H     H_    0.328437 0.236630 0.317126 0.139903
H5    H     H_    0.671293 0.936799 0.772906 0.103779
H6    H     H_    0.311273 0.919021 0.235591 0.080789
H7    H     H_    0.447134 0.763057 0.140877 0.168539
H8    H     H_    0.106760 0.289426 0.492204 0.220388
H9    H     H_    0.886036 0.291179 0.482936 0.212205
H10   H     H_    0.444179 0.050885 0.139635 0.342101
H11   H     H_    0.449956 0.058661 0.809089 0.334242
H12   H     H_    0.207020 0.893940 0.914959 0.386989
H13   H     H_    0.711806 0.978338 0.239276 0.386033
H14   H     H_    0.784366 0.907278 0.431854 0.357872
N1    N     N_R   0.500000 0.857200 0.500000 -0.107278
N2    N     N_R   0.500000 0.142810 0.500000 -0.150930
O1    O     O_R   0.316770 0.614620 0.499990 -0.567254
O2    O     O_R   0.421426 0.140447 0.103098 -0.783962
O3    O     O_2   0.321316 0.252797 0.812044 -0.563971
O4    O     O_R   0.494852 0.133526 0.859871 -0.824969
O5    O     O_2   0.281500 0.669126 0.896158 -0.553093
O6    O     O_R   0.300217 0.894382 0.930956 -0.773167
O7    O     O_2   0.729673 0.829234 0.065797 -0.556550
O8    O     O_R   0.633707 0.921506 0.225252 -0.811126
O9    O     O_2   0.901254 0.838076 0.614057 -0.547749
O10   O     O_R   0.814048 0.812710 0.417459 -0.745531
O11   O     O_2   0.123298 0.852242 0.482442 -0.559544
O12   O     O_R   0.683230 0.614620 0.500010 -0.557596
O13   O     O_R   0.217339 0.777047 0.661536 -0.758326
O14   O     O_2   0.793115 0.110191 0.648183 -0.544099
O15   O     O_2   0.205061 0.099988 0.356333 -0.537673
O16   O     O_2   0.684740 0.759991 0.692138 -0.520005
O17   O     O_2   0.300709 0.747300 0.317159 -0.534189
O18   O     O_R   0.316800 0.385290 0.500000 -0.646356
O19   O     O_R   0.683200 0.385290 0.500000 -0.643967
O20   O     O_R   0.500000 0.614690 0.316780 -0.578106
O21   O     O_R   0.500000 0.614690 0.683220 -0.574069
O22   O     O_R   0.500020 0.385360 0.316780 -0.645130
O23   O     O_R   0.499980 0.385360 0.683220 -0.669438
O24   O     O_2   0.614142 0.206165 0.179655 -0.591431
Zn1   Zn    Zn3+2 0.500000 0.653120 0.500000 1.071594
Zn2   Zn    Zn3+2 0.500000 0.346880 0.500000 0.983997

loop_
_geom_bond_atom_site_label_1
_geom_bond_atom_site_label_2
_ccdc_geom_bond_type
C19   O8    S    
O22   Zn2   S    
O23   Zn2   S    
C2    C4    A    
C11   C12   S    
C28   N1    A    
O21   Zn1   S    
C8    H7    S    
H12   O6    S    
C27   C29   A    
C9    C10   A    
C21   O13   S    
C2    C7    S    
C16   O24   D    
C24   C27   S    
C15   C21   S    
C4    C31   S    
C7    C18   S    
C17   O3    D    
C31   O23   A    
C1    O18   A    
C20   O9    D    
C7    C8    S    
O19   Zn2   S    
C23   C28   A    
H14   O10   S    
C25   C28   S    
C22   H3    S    
C7    H1    S    
C24   H4    S    
C3    C30   S    
H10   O2    S    
C10   H9    S    
C5    C6    A    
C17   O4    S    
C4    C6    A    
C30   O22   A    
N2    Zn2   S    
C29   N1    A    
C21   O11   D    
C24   O15   D    
C13   C15   A    
C27   N2    A    
C3    C32   A    
C12   O19   A    
O1    Zn1   S    
H11   O4    S    
C8    C19   S    
C22   O14   D    
C10   C11   A    
C18   O6    S    
C12   O12   A    
C20   O10   S    
O18   Zn2   S    
C14   C20   S    
O12   Zn1   S    
C31   O21   A    
C9    H8    S    
C1    C13   S    
N1    Zn1   S    
C26   C29   S    
C2    C32   A    
C19   O7    D    
C11   C14   A    
C6    C17   S    
C9    C13   A    
C14   C15   A    
C26   H6    S    
C5    C16   S    
C23   N2    A    
C18   O5    D    
C25   H5    S    
O20   Zn1   S    
C22   C23   S    
C26   O17   D    
C1    O1    A    
H2    O13   S    
C30   O20   A    
H13   O8    S    
C16   O2    S    
C3    C5    A    
C25   O16   D    
C8    C32   S    
