data_mof_unit_38471.cif
_audit_creation_date              2012-12-11T14:00:01-0500
_audit_creation_method            fapswitch 2.2
_symmetry_space_group_name_H-M    P1
_symmetry_Int_Tables_number       1
_space_group_crystal_system       triclinic
_cell_length_a                    11.125758
_cell_length_b                    11.11849
_cell_length_c                    18.598913
_cell_angle_alpha                 90.232913
_cell_angle_beta                  89.580246
_cell_angle_gamma                 119.484496
_cell_volume                      2002.69360149

loop_
_atom_site_label
_atom_site_type_symbol
_atom_type_description
_atom_site_fract_x
_atom_site_fract_y
_atom_site_fract_z
_atom_type_partial_charge
C1    C     C_R   0.581897 0.450188 0.861199 0.527742
C2    C     C_R   0.481416 0.540397 0.350054 0.566221
C3    C     C_R   0.057675 0.518034 0.350112 0.562437
C4    C     C_R   0.417866 0.867763 0.360036 0.572170
C5    C     C_2   0.903945 0.445184 0.564860 -0.109924
C6    C     C_2   0.521535 0.492736 0.571760 -0.093785
C7    C     C_2   0.486416 0.966244 0.588394 -0.105029
C8    C     C_2   0.445248 0.904061 0.435108 -0.097904
C9    C     C_2   0.507741 0.485873 0.414630 -0.097069
C10   C     C_2   0.965118 0.485771 0.411434 -0.105097
C11   C     C_2   0.911553 0.362366 0.443893 -0.139017
C12   C     C_R   0.549032 0.131921 0.861497 0.529608
C13   C     C_2   0.623093 0.563188 0.451091 -0.159931
C14   C     C_2   0.340804 0.860837 0.482285 -0.165876
C15   C     C_2   0.363036 0.912837 0.556260 -0.141190
C16   C     C_2   0.631701 0.542517 0.527188 -0.155672
C17   C     C_2   0.859523 0.340555 0.517973 -0.162956
C18   C     C_2   0.906474 0.443869 0.936785 0.427761
C19   C     C_2   0.555671 0.462905 0.936435 0.424632
C20   C     C_2   0.535399 0.093448 0.936749 0.425478
C21   C     C_2   0.444800 0.906976 0.063327 0.427568
C22   C     C_2   0.463344 0.557903 0.063456 0.423692
C23   C     C_R   0.867873 0.418119 0.861617 0.530672
C24   C     C_2   0.092324 0.535463 0.063248 0.427016
C25   C     C_2   0.027363 0.599945 0.036427 -0.001906
C26   C     C_2   0.398724 0.429617 0.036019 -0.002473
C27   C     C_2   0.574076 0.975906 0.037006 -0.000687
C28   C     C_2   0.601636 0.030662 0.964043 -0.002824
C29   C     C_2   0.426494 0.402388 0.962964 -0.002427
C30   C     C_2   0.972902 0.572775 0.963485 0.000426
C31   C     C_R   0.450382 0.582606 0.138886 0.527633
C32   C     C_R   0.131522 0.549093 0.138330 0.529378
C33   C     C_R   0.418350 0.867949 0.138481 0.530980
C34   C     C_R   0.545908 0.478851 0.646620 0.564293
C35   C     C_R   0.518307 0.058044 0.649821 0.562473
C36   C     C_R   0.867729 0.417928 0.640037 0.567721
Cr1   Cr    Cr6+3 0.464030 0.233680 0.750360 1.051533
Cr2   Cr    Cr6+3 0.766320 0.230350 0.750360 1.048873
Cr3   Cr    Cr6+3 0.769650 0.535970 0.750360 1.049109
Cr4   Cr    Cr6+3 0.233680 0.464030 0.249640 1.048313
Cr5   Cr    Cr6+3 0.230350 0.766320 0.249640 1.046589
Cr6   Cr    Cr6+3 0.535970 0.769650 0.249640 1.049922
F1    F     F_    0.122915 0.453675 0.021020 -0.599727
F2    F     F_    0.544800 0.669421 0.021629 -0.598400
F3    F     F_    0.333576 0.872585 0.020615 -0.599667
F4    F     F_    0.451747 0.122217 0.978614 -0.597490
F5    F     F_    0.666780 0.539883 0.979004 -0.600203
F6    F     F_    0.874055 0.332266 0.979172 -0.600261
H1    H     H_    0.918005 0.277466 0.418595 0.159927
H2    H     H_    0.569321 0.952609 0.566093 0.097911
H3    H     H_    0.416845 0.454568 0.552928 0.100362
H4    H     H_    0.970521 0.551814 0.548911 0.101283
H5    H     H_    0.013692 0.674719 0.068042 0.138400
H6    H     H_    0.324061 0.341950 0.067310 0.142096
H7    H     H_    0.662259 0.993045 0.069124 0.138961
H8    H     H_    0.677890 0.018695 0.932755 0.140063
H9    H     H_    0.338569 0.331298 0.930971 0.140984
H10   H     H_    0.988153 0.660961 0.931694 0.138740
H11   H     H_    0.710253 0.652515 0.426722 0.156432
H12   H     H_    0.234917 0.798564 0.464105 0.131092
H13   H     H_    0.278167 0.919053 0.581866 0.160769
H14   H     H_    0.735253 0.579827 0.547789 0.147786
H15   H     H_    0.796456 0.234740 0.536495 0.133130
H16   H     H_    0.951075 0.568573 0.433494 0.090198
H17   H     H_    0.423938 0.391898 0.437509 0.112417
H18   H     H_    0.551968 0.969778 0.450720 0.106726
O1    O     O_R   0.434100 0.092480 0.829780 -0.452647
O2    O     O_R   0.362730 0.477510 0.175360 -0.538265
O3    O     O_R   0.114780 0.637270 0.175360 -0.539665
O4    O     O_R   0.522490 0.885220 0.175360 -0.531340
O5    O     O_R   0.432250 0.092620 0.670380 -0.503598
O6    O     O_R   0.907380 0.339630 0.670380 -0.484324
O7    O     O_R   0.660370 0.567750 0.670380 -0.514537
O8    O     O_R   0.092620 0.432250 0.329620 -0.503753
O9    O     O_R   0.339630 0.907380 0.329620 -0.488064
O10   O     O_R   0.567750 0.660370 0.329620 -0.516568
O11   O     O_R   0.475790 0.362860 0.676880 -0.485226
O12   O     O_R   0.907520 0.341620 0.829780 -0.450239
O13   O     O_R   0.637140 0.112930 0.676880 -0.512588
O14   O     O_R   0.887070 0.524210 0.676880 -0.489347
O15   O     O_R   0.362860 0.475790 0.323120 -0.491266
O16   O     O_R   0.112930 0.637140 0.323120 -0.513740
O17   O     O_R   0.524210 0.887070 0.323120 -0.484081
O18   O     O_3   0.666667 0.333333 0.749450 -0.351057
O19   O     O_3   0.333333 0.666667 0.250550 -0.348720
O20   O     O_R   0.658380 0.565900 0.829780 -0.454115
O21   O     O_R   0.092480 0.434100 0.170220 -0.454660
O22   O     O_R   0.341620 0.907520 0.170220 -0.450611
O23   O     O_R   0.565900 0.658380 0.170220 -0.454741
O24   O     O_R   0.477510 0.362730 0.824640 -0.537100
O25   O     O_R   0.637270 0.114780 0.824640 -0.539528
O26   O     O_R   0.885220 0.522490 0.824640 -0.530218

loop_
_geom_bond_atom_site_label_1
_geom_bond_atom_site_label_2
_ccdc_geom_bond_type
C8    H18   S    
C1    O24   A    
C12   O25   A    
C4    C8    S    
C28   H8    S    
Cr1   O24   S    
Cr4   O21   S    
C33   O22   A    
C25   H5    S    
Cr3   O18   S    
C34   O11   A    
C27   H7    S    
C5    C17   D    
Cr2   O13   S    
C5    C36   S    
Cr1   O1    S    
Cr6   O4    S    
C3    O8    A    
C9    C13   D    
C4    O9    A    
C22   F2    S    
C31   O23   A    
C5    H4    S    
C18   C30   D    
C6    H3    S    
C20   C28   D    
C7    C15   D    
C21   C27   D    
C35   O5    A    
C16   H14   S    
C26   H6    S    
C21   F3    S    
C31   O2    A    
C12   O1    A    
Cr2   O6    S    
C1    C19   S    
C22   C31   S    
C18   C23   S    
C24   C25   D    
C36   O14   A    
Cr2   O12   S    
C32   O21   A    
Cr1   O11   S    
Cr2   O25   S    
C6    C34   S    
Cr4   O19   S    
C24   C32   S    
C11   H1    S    
Cr5   O9    S    
C12   C20   S    
C3    O16   A    
C15   H13   S    
Cr1   O18   S    
Cr6   O19   S    
C33   O4    A    
C29   H9    S    
Cr5   O19   S    
Cr1   O5    S    
Cr4   O2    S    
C19   C29   D    
Cr3   O26   S    
C2    O10   A    
Cr5   O3    S    
C25   C30   S    
Cr5   O22   S    
C11   C17   S    
C8    C14   D    
Cr2   O18   S    
C14   C15   S    
C7    C35   S    
Cr4   O15   S    
C10   H16   S    
Cr6   O17   S    
C7    H2    S    
C18   F6    S    
C32   O3    A    
C13   H11   S    
C14   H12   S    
Cr6   O10   S    
Cr6   O23   S    
Cr3   O14   S    
C3    C10   S    
C17   H15   S    
C4    O17   A    
Cr5   O16   S    
C30   H10   S    
C35   O13   A    
Cr4   O8    S    
C19   F5    S    
Cr3   O7    S    
C23   O12   A    
C9    H17   S    
C10   C11   D    
C34   O7    A    
C6    C16   D    
C1    O20   A    
C21   C33   S    
C26   C29   S    
C22   C26   D    
C13   C16   S    
C27   C28   S    
C24   F1    S    
C23   O26   A    
C2    O15   A    
Cr3   O20   S    
C2    C9    S    
C20   F4    S    
C36   O6    A    
