data_mof_unit_44302.cif
_audit_creation_date              2012-12-11T15:32:08-0500
_audit_creation_method            fapswitch 2.2
_symmetry_space_group_name_H-M    P1
_symmetry_Int_Tables_number       1
_space_group_crystal_system       triclinic
_cell_length_a                    8.222636
_cell_length_b                    16.588424
_cell_length_c                    18.997465
_cell_angle_alpha                 107.842006
_cell_angle_beta                  85.836912
_cell_angle_gamma                 98.01313
_cell_volume                      2441.32650506

loop_
_atom_site_label
_atom_site_type_symbol
_atom_type_description
_atom_site_fract_x
_atom_site_fract_y
_atom_site_fract_z
_atom_type_partial_charge
Ba1   Ba    Ba6+2 0.640410 0.457420 0.526150 1.628649
Ba2   Ba    Ba6+2 0.169770 0.542590 0.473910 1.625878
C1    C     C_3   0.737793 0.263314 0.760277 -0.375906
C2    C     C_3   0.778499 0.280659 0.686562 0.365760
C3    C     C_3   0.949724 0.282231 0.325770 0.306191
C4    C     C_3   0.929624 0.186046 0.290208 -0.400245
C5    C     C_3   0.549309 0.775196 0.324113 0.414887
C6    C     C_3   0.649104 0.792859 0.257987 -0.382885
C7    C     C_3   0.011953 0.722026 0.310041 0.384858
C8    C     C_3   0.053333 0.740798 0.236735 -0.389105
C9    C     C_2   0.707516 0.749556 0.511588 -0.274820
C10   C     C_R   0.100776 0.249174 0.479405 -0.285227
C11   C     C_2   0.561890 0.860895 0.597445 -0.147588
C12   C     C_3   0.224770 0.242881 0.699299 0.293115
C13   C     C_2   0.565796 0.777422 0.561588 0.077546
C14   C     C_2   0.824026 0.806973 0.494790 0.000741
C15   C     C_3   0.785952 0.897936 0.512490 -0.039840
C16   C     C_3   0.700718 0.927312 0.588422 -0.020063
C17   C     C_2   0.917775 0.963759 0.497664 -0.099546
C18   C     C_2   0.875799 0.035008 0.487550 -0.088826
C19   C     C_R   0.141381 0.076834 0.428725 -0.026524
C20   C     C_R   0.998541 0.101337 0.470278 -0.034269
C21   C     C_R   0.262351 0.137217 0.412825 -0.129341
C22   C     C_R   0.243062 0.223821 0.438789 0.076168
C23   C     C_3   0.239155 0.147427 0.683993 -0.064404
C24   C     C_R   0.976203 0.188763 0.493920 0.012198
C25   C     C_R   0.097628 0.467276 0.695199 -0.276359
C26   C     C_R   0.964399 0.511320 0.725236 0.070405
C27   C     C_R   0.911627 0.519803 0.798774 -0.128529
C28   C     C_R   0.993974 0.484830 0.842896 -0.015401
C29   C     C_R   0.133515 0.444128 0.812591 -0.144491
C30   C     C_R   0.185720 0.436605 0.739238 0.002077
C31   C     C_R   0.935687 0.423862 0.949347 -0.080018
C32   C     C_R   0.885997 0.431716 0.022941 -0.081070
C33   C     C_R   0.839033 0.508958 0.070055 0.060563
C34   C     C_3   0.332387 0.647242 0.704918 0.313681
C35   C     C_R   0.838870 0.577540 0.041205 -0.081001
C36   C     C_R   0.887753 0.569586 0.967459 -0.076592
C37   C     C_R   0.938042 0.492861 0.920809 0.063353
C38   C     C_R   0.656851 0.560628 0.183031 -0.148304
C39   C     C_R   0.614664 0.569999 0.257705 0.007326
C40   C     C_R   0.837304 0.491640 0.265267 0.032464
C41   C     C_R   0.881551 0.483159 0.190984 -0.122753
C42   C     C_R   0.792703 0.518345 0.149177 -0.007391
C43   C     C_R   0.708131 0.537657 0.298891 -0.272892
C44   C     C_3   0.312681 0.670511 0.788751 -0.399372
C45   C     C_3   0.472801 0.354329 0.295472 0.300180
C46   C     C_3   0.492334 0.332696 0.211263 -0.252848
C47   C     C_3   0.869798 0.716016 0.655138 0.319900
C48   C     C_3   0.915896 0.811671 0.687123 -0.393206
H1    H     H_    0.700246 0.328315 0.683097 0.128156
H2    H     H_    0.228190 0.720051 0.809327 0.123077
H3    H     H_    0.261688 0.613741 0.805769 0.067043
H4    H     H_    0.434044 0.695410 0.814252 0.125379
H5    H     H_    0.594733 0.377157 0.319897 0.002590
H6    H     H_    0.392838 0.405816 0.316368 0.063154
H7    H     H_    0.568787 0.279481 0.190003 0.123592
H8    H     H_    0.557299 0.388833 0.196871 0.056040
H9    H     H_    0.739082 0.702528 0.640624 -0.004784
H10   H     H_    0.948043 0.693646 0.604676 0.079392
H11   H     H_    0.617431 0.223175 0.758703 0.146787
H12   H     H_    0.831876 0.837204 0.734793 0.112550
H13   H     H_    0.907120 0.843710 0.644541 0.062498
H14   H     H_    0.044368 0.825540 0.706014 0.130783
H15   H     H_    0.909451 0.307788 0.685551 -0.062904
H16   H     H_    0.732355 0.324600 0.804888 0.090686
H17   H     H_    0.080253 0.303897 0.340174 0.018050
H18   H     H_    0.870200 0.296628 0.376828 0.062654
H19   H     H_    0.009693 0.169210 0.239521 0.115850
H20   H     H_    0.964298 0.154111 0.329356 0.062571
H21   H     H_    0.799622 0.162745 0.275306 0.125800
H22   H     H_    0.834680 0.230656 0.773221 0.088491
H23   H     H_    0.628897 0.750066 0.355281 -0.055146
H24   H     H_    0.570174 0.811836 0.222256 0.118134
H25   H     H_    0.751634 0.844573 0.277425 0.085687
H26   H     H_    0.700874 0.734747 0.223837 0.082443
H27   H     H_    0.876777 0.711221 0.316994 -0.075814
H28   H     H_    0.063160 0.662736 0.307246 0.105469
H29   H     H_    0.985776 0.690903 0.191800 0.073605
H30   H     H_    0.186518 0.740669 0.222888 0.148956
H31   H     H_    0.161451 0.250547 0.652192 -0.033245
H32   H     H_    0.018706 0.804013 0.239558 0.109055
H33   H     H_    0.466230 0.880668 0.639197 0.074821
H34   H     H_    0.369896 0.116248 0.379648 0.081671
H35   H     H_    0.724457 0.682594 0.495507 0.069680
H36   H     H_    0.084749 0.316142 0.497539 0.075623
H37   H     H_    0.046150 0.954678 0.496848 0.104069
H38   H     H_    0.747145 0.044791 0.493015 0.104789
H39   H     H_    0.983179 0.448136 0.165785 0.069080
H40   H     H_    0.882271 0.376934 0.042811 0.053672
H41   H     H_    0.970556 0.363386 0.914424 0.055603
H42   H     H_    0.150804 0.265937 0.751122 -0.010584
H43   H     H_    0.807106 0.553700 0.821357 0.087110
H44   H     H_    0.804221 0.638032 0.076139 0.058947
H45   H     H_    0.889781 0.624198 0.947410 0.059034
H46   H     H_    0.581817 0.584455 0.151151 0.070143
H47   H     H_    0.203463 0.419960 0.846174 0.070774
H48   H     H_    0.672965 0.543019 0.356006 0.062474
H49   H     H_    0.139172 0.461432 0.638673 0.066640
H50   H     H_    0.321437 0.141451 0.725724 0.110848
H51   H     H_    0.210145 0.626175 0.680463 0.007150
H52   H     H_    0.410629 0.594816 0.685372 0.065741
O1    O     O_2   0.558990 0.288510 0.428270 -0.455165
O2    O     O_3   0.893855 0.677665 0.709054 -0.636151
O3    O     O_3   0.383042 0.288991 0.707767 -0.610635
O4    O     O_2   0.251320 0.711540 0.571760 -0.463110
O5    O     O_3   0.469110 0.603410 0.553990 -0.500903
O6    O     O_3   0.001220 0.659660 0.436740 -0.487267
O7    O     O_3   0.405314 0.719632 0.686477 -0.636190
O8    O     O_3   0.861890 0.456640 0.409240 -0.476764
O9    O     O_3   0.404240 0.616350 0.394030 -0.466174
O10   O     O_2   0.275261 0.559612 0.260944 -0.497281
O11   O     O_3   0.406668 0.718315 0.298702 -0.589150
O12   O     O_3   0.341190 0.396600 0.446070 -0.498266
O13   O     O_3   0.948410 0.543360 0.590820 -0.495664
O14   O     O_2   0.117990 0.459640 0.323300 -0.465813
O15   O     O_3   0.903745 0.320990 0.275393 -0.648193
O16   O     O_2   0.163724 0.809812 0.504338 -0.494285
O17   O     O_3   0.079114 0.790763 0.368574 -0.596690
O18   O     O_3   0.809080 0.340350 0.563320 -0.496220
O19   O     O_2   0.634577 0.191740 0.498400 -0.491470
O20   O     O_3   0.405771 0.280701 0.313612 -0.646191
O21   O     O_3   0.747876 0.204967 0.627837 -0.618865
O22   O     O_2   0.692320 0.540420 0.676730 -0.462326
O23   O     O_3   0.406060 0.383660 0.606030 -0.467535
O24   O     O_2   0.524475 0.445673 0.741992 -0.497664
P1    P     P_3+3 0.391560 0.302240 0.409860 0.983876
P2    P     P_3+3 0.873530 0.566630 0.670640 0.978467
P3    P     P_3+3 0.373964 0.390505 0.699804 0.937486
P4    P     P_3+3 0.418740 0.697770 0.590200 0.984355
P5    P     P_3+3 0.427098 0.615378 0.301475 0.952508
P6    P     P_3+3 0.790061 0.229673 0.544387 0.933200
P7    P     P_3+3 0.928103 0.431736 0.316197 0.933095
P8    P     P_3+3 0.018942 0.769355 0.452036 0.945762
C49   C     C_3   0.325738 0.308099 0.174019 -0.174088
C50   C     C_3   0.347977 0.291180 0.090149 -0.218451
C51   C     C_3   0.182652 0.266089 0.052800 -0.421829
H53   H     H_    0.120212 0.206001 0.061716 0.133541
H54   H     H_    0.103127 0.317455 0.075744 0.130775
H55   H     H_    0.201672 0.256134 0.992402 0.122437
H56   H     H_    0.410467 0.349648 0.078087 0.129198
H57   H     H_    0.425519 0.238806 0.066626 0.121182
H58   H     H_    0.261349 0.249872 0.185813 0.135835
H59   H     H_    0.248925 0.360900 0.196841 0.135972
C52   C     C_3   0.068421 0.096478 0.690552 -0.243434
C53   C     C_3   0.024249 0.096359 0.770479 -0.212288
C54   C     C_3   0.851180 0.051297 0.776733 -0.414752
H60   H     H_    0.758548 0.083552 0.759496 0.139292
H61   H     H_    0.842091 0.984228 0.740983 0.136425
H62   H     H_    0.822810 0.051873 0.834904 0.121564
H63   H     H_    0.113003 0.062515 0.788634 0.119771
H64   H     H_    0.032331 0.162582 0.808412 0.110246
H65   H     H_    0.972547 0.123090 0.669137 0.137979
H66   H     H_    0.066051 0.028923 0.655967 0.127811
C55   C     C_3   0.500541 0.858365 0.379316 -0.145124
C56   C     C_3   0.408401 0.910822 0.345697 -0.364646
H67   H     H_    0.494048 0.943607 0.312341 0.098422
H68   H     H_    0.308978 0.870506 0.310198 0.179779
H69   H     H_    0.354277 0.960098 0.391157 0.123498
H70   H     H_    0.424291 0.842534 0.425054 0.143748
H71   H     H_    0.612893 0.899460 0.403628 0.051615
C57   C     C_3   0.319061 0.112959 0.606381 -0.192061
C58   C     C_3   0.393906 0.031223 0.596530 -0.404440
H72   H     H_    0.486124 0.042702 0.639482 0.142561
H73   H     H_    0.298651 0.978388 0.600580 0.138612
H74   H     H_    0.455585 0.011823 0.541015 0.134746
H75   H     H_    0.226560 0.101258 0.564101 0.100563
H76   H     H_    0.418696 0.160795 0.596068 0.193754

loop_
_geom_bond_atom_site_label_1
_geom_bond_atom_site_label_2
_ccdc_geom_bond_type
C4    H19   S    
O21   P6    S    
C48   H14   S    
C46   C49   S    
C17   C18   D    
Ba1   P2    S    
C3    H17   S    
O15   P7    S    
C47   O2    S    
C52   C53   S    
C49   C50   S    
C5    H23   S    
C29   C30   A    
C55   H71   S    
C51   H54   S    
C25   H49   S    
C41   H39   S    
C47   H10   S    
C11   C16   S    
C40   P7    S    
C26   C27   A    
C33   C35   A    
C35   C36   A    
Ba1   O23   S    
C32   C33   A    
C17   H37   S    
C43   H48   S    
C31   H41   S    
C49   H59   S    
C3    C4    S    
Ba1   O12   S    
C44   H2    S    
Ba2   O5    S    
C6    H26   S    
C34   H52   S    
Ba1   Ba2   S    
Ba2   O13   S    
Ba2   O6    S    
O20   P1    S    
C2    H15   S    
C50   H57   S    
C54   H60   S    
C15   C17   S    
Ba2   O14   S    
C12   O3    S    
Ba2   O8    S    
C58   H72   S    
C14   C15   S    
C36   H45   S    
C35   H44   S    
C22   P1    S    
C21   C22   A    
C34   C44   S    
O1    P1    D    
C7    C8    S    
Ba1   O1    S    
O16   P8    D    
O22   P2    D    
C52   H65   S    
C49   H58   S    
C55   H70   S    
C14   P8    S    
O10   P5    D    
C19   C20   A    
C48   H13   S    
C44   H4    S    
C9    C13   S    
C38   H46   S    
C3    H18   S    
C30   P3    S    
C31   C32   A    
C55   C56   S    
C1    H11   S    
C4    H21   S    
C51   H55   S    
Ba2   O9    S    
C54   H61   S    
O17   P8    S    
C21   H34   S    
O4    P4    D    
C2    H1    S    
C46   H7    S    
C54   H62   S    
C39   P5    S    
C8    H30   S    
C45   O20   S    
O3    P3    S    
O14   P7    D    
O24   P3    D    
Ba2   O4    S    
C6    H25   S    
O13   P2    S    
C53   H63   S    
C2    O21   S    
C3    O15   S    
C34   H51   S    
C40   C43   A    
C41   C42   A    
C32   H40   S    
O6    P8    S    
C27   C28   A    
Ba1   O8    S    
C9    C14   D    
C23   H50   S    
C45   C46   S    
O2    P2    S    
C23   C57   S    
C58   H74   S    
C6    H24   S    
C15   C16   S    
C31   C37   A    
C33   C42   S    
C12   H42   S    
Ba1   O5    S    
C53   H64   S    
C52   H66   S    
O9    P5    S    
C38   C39   A    
O5    P4    S    
C19   C21   A    
C48   H12   S    
C57   H76   S    
C1    H16   S    
C40   C41   A    
O19   P6    D    
C1    C2    S    
C34   O7    S    
C24   P6    S    
C45   H5    S    
C53   C54   S    
C4    H20   S    
C10   C22   A    
C56   H67   S    
O11   P5    S    
C58   H73   S    
C25   C30   A    
O18   P6    S    
C56   H69   S    
Ba1   P1    S    
C18   C20   S    
C50   C51   S    
C8    H29   S    
C46   H8    S    
C57   C58   S    
C51   H53   S    
C11   H33   S    
C47   H9    S    
C10   H36   S    
C5    O11   S    
C11   C13   D    
C1    H22   S    
C7    H27   S    
Ba1   O22   S    
C27   H43   S    
O12   P1    S    
Ba2   O12   S    
C28   C29   A    
C36   C37   A    
C13   P4    S    
C9    H35   S    
C7    O17   S    
C18   H38   S    
C44   H3    S    
C56   H68   S    
Ba2   P4    S    
C50   H56   S    
C8    H32   S    
C28   C37   S    
C7    H28   S    
C29   H47   S    
C12   C23   S    
C5    C6    S    
C57   H75   S    
O23   P3    S    
C38   C42   A    
C5    C55   S    
C47   C48   S    
C20   C24   A    
C10   C24   A    
O7    P4    S    
C39   C43   A    
O8    P7    S    
C23   C52   S    
Ba1   O13   S    
C12   H31   S    
Ba1   O18   S    
C26   P2    S    
C45   H6    S    
C25   C26   A    
