data_mof_unit_53009.cif
_audit_creation_date              2012-12-10T18:53:05-0500
_audit_creation_method            fapswitch 2.2
_symmetry_space_group_name_H-M    P1
_symmetry_Int_Tables_number       1
_space_group_crystal_system       triclinic
_cell_length_a                    9.814847
_cell_length_b                    10.839911
_cell_length_c                    16.653245
_cell_angle_alpha                 90.05105
_cell_angle_beta                  85.250285
_cell_angle_gamma                 91.178315
_cell_volume                      1765.31479109

loop_
_atom_site_label
_atom_site_type_symbol
_atom_type_description
_atom_site_fract_x
_atom_site_fract_y
_atom_site_fract_z
_atom_type_partial_charge
C1    C     C_R   0.502299 0.740321 0.499632 0.877171
C2    C     C_R   0.062071 0.500092 0.570850 -0.089949
C3    C     C_R   0.081753 0.500233 0.429226 -0.098271
C4    C     C_R   0.918179 0.499471 0.570833 -0.089470
C5    C     C_R   0.481388 0.506972 0.653332 0.855305
C6    C     C_R   0.518973 0.502437 0.346309 0.862631
C7    C     C_R   0.471435 0.550158 0.736272 -0.025718
C8    C     C_R   0.531107 0.526435 0.260009 -0.033346
C9    C     C_R   0.581708 0.617967 0.763689 -0.220064
C10   C     C_R   0.413957 0.521800 0.217466 -0.216124
C11   C     C_R   0.570682 0.670295 0.839710 -0.160828
C12   C     C_R   0.497805 0.259676 0.499584 0.879441
C13   C     C_R   0.420700 0.561811 0.138261 -0.148630
C14   C     C_R   0.450632 0.652218 0.890278 0.207677
C15   C     C_R   0.544752 0.608225 0.100756 0.207730
C16   C     C_R   0.337687 0.590448 0.861580 -0.171277
C17   C     C_R   0.662985 0.608315 0.142208 -0.183122
C18   C     C_R   0.347841 0.539720 0.784571 -0.207544
C19   C     C_R   0.656336 0.567942 0.221602 -0.203001
C20   C     C_2   0.449468 0.675688 0.976670 -0.247197
C21   C     C_2   0.557112 0.642148 0.015517 -0.232836
C22   C     C_3   0.773739 0.892128 0.494222 -0.389130
C23   C     C_R   0.629915 0.943321 0.497411 0.102219
C24   C     C_3   0.812060 0.854746 0.578338 -0.318030
C25   C     C_3   0.960340 0.814171 0.575539 -0.891581
C26   C     C_3   0.227921 0.107823 0.493731 -0.391173
C27   C     C_3   0.165340 0.145017 0.577706 -0.316559
C28   C     C_3   0.017845 0.185397 0.574516 -0.889741
C29   C     C_R   0.370804 0.056653 0.497250 0.101170
C30   C     C_R   0.620278 0.069790 0.498693 -0.257451
C31   C     C_R   0.380066 0.930180 0.498643 -0.254382
C32   C     C_R   0.493918 0.127131 0.498700 -0.088863
C33   C     C_R   0.506409 0.872848 0.498783 -0.084385
C34   C     C_R   0.937979 0.500328 0.429208 -0.103359
H1    H     H_    0.676150 0.632089 0.726059 0.141858
H2    H     H_    0.657697 0.720828 0.860088 0.126212
H3    H     H_    0.891876 0.500604 0.372507 0.129118
H4    H     H_    0.108209 0.499991 0.627551 0.133322
H5    H     H_    0.143502 0.500380 0.372461 0.131042
H6    H     H_    0.856394 0.499211 0.627605 0.135811
H7    H     H_    0.981203 0.774459 0.634614 0.244254
H8    H     H_    0.980893 0.744004 0.527840 0.278106
H9    H     H_    0.030826 0.893945 0.562412 0.256822
H10   H     H_    0.798656 0.934294 0.620226 0.211748
H11   H     H_    0.744639 0.778324 0.603287 0.239651
H12   H     H_    0.316643 0.488699 0.245640 0.141034
H13   H     H_    0.787620 0.816107 0.449902 0.219690
H14   H     H_    0.849462 0.963337 0.470042 0.177108
H15   H     H_    0.951307 0.105536 0.561311 0.255920
H16   H     H_    0.979893 0.224982 0.633491 0.245138
H17   H     H_    0.010901 0.255609 0.526744 0.277821
H18   H     H_    0.166789 0.065397 0.619634 0.211380
H19   H     H_    0.225397 0.221502 0.602818 0.242388
H20   H     H_    0.226800 0.183958 0.449388 0.219692
H21   H     H_    0.159189 0.036612 0.469422 0.177753
H22   H     H_    0.714121 0.124095 0.499552 0.172547
H23   H     H_    0.748122 0.572741 0.253454 0.142879
H24   H     H_    0.285986 0.875871 0.499444 0.172479
H25   H     H_    0.260402 0.490859 0.763318 0.136948
H26   H     H_    0.654179 0.622537 0.982244 0.148300
H27   H     H_    0.352057 0.694605 0.009638 0.144859
H28   H     H_    0.244414 0.575812 0.900230 0.119773
H29   H     H_    0.760165 0.640489 0.113256 0.122568
H30   H     H_    0.329233 0.553557 0.106468 0.121273
N1    N     N_R   0.142790 0.500030 0.500020 -0.072267
N2    N     N_R   0.857210 0.499970 0.499980 -0.072162
O1    O     O_R   0.385380 0.683250 0.500010 -0.615207
O2    O     O_R   0.614620 0.316750 0.499990 -0.613587
O3    O     O_R   0.614710 0.683220 0.500000 -0.625729
O4    O     O_R   0.385290 0.316780 0.500000 -0.622769
O5    O     O_R   0.371780 0.500040 0.615800 -0.625537
O6    O     O_R   0.628220 0.499960 0.384200 -0.627405
O7    O     O_R   0.601110 0.500010 0.615800 -0.628203
O8    O     O_R   0.398890 0.499990 0.384200 -0.626355
Zn1   Zn    Zn3+2 0.346870 0.500020 0.500000 0.936450
Zn2   Zn    Zn3+2 0.653130 0.499980 0.500000 0.933965

loop_
_geom_bond_atom_site_label_1
_geom_bond_atom_site_label_2
_ccdc_geom_bond_type
C25   H8    S    
C10   H12   S    
C23   C33   A    
C22   H14   S    
C24   C25   S    
C31   C33   A    
C30   H22   S    
C7    C9    A    
C5    O5    A    
O2    Zn2   S    
C34   H3    S    
C9    C11   A    
C28   H15   S    
C2    H4    S    
C2    C4    A    
N1    Zn1   S    
O6    Zn2   S    
C2    N1    A    
N2    Zn2   S    
C26   H21   S    
C7    C18   A    
C27   H19   S    
C22   H13   S    
C1    C33   S    
C29   C31   A    
C19   H23   S    
C30   C32   A    
C12   O2    A    
C34   N2    A    
C26   C27   S    
C3    N1    A    
C13   H30   S    
C16   H28   S    
C21   H26   S    
C24   H11   S    
C26   H20   S    
C31   H24   S    
C8    C10   A    
C25   H9    S    
C28   H17   S    
C6    O8    A    
C29   C32   A    
C22   C24   S    
C13   C15   A    
C12   C32   S    
C5    O7    A    
C24   H10   S    
O7    Zn2   S    
C14   C16   A    
O5    Zn1   S    
C8    C19   A    
O1    Zn1   S    
O8    Zn1   S    
C1    O1    A    
C9    H1    S    
C20   H27   S    
C23   C30   A    
C14   C20   S    
C18   H25   S    
C15   C21   S    
C27   H18   S    
C4    N2    A    
C26   C29   S    
C16   C18   A    
C17   H29   S    
C25   H7    S    
C11   C14   A    
C15   C17   A    
C12   O4    A    
C5    C7    S    
C11   H2    S    
O4    Zn1   S    
C6    C8    S    
C3    C34   A    
C17   C19   A    
C20   C21   D    
C22   C23   S    
O3    Zn2   S    
C28   H16   S    
C6    O6    A    
C1    O3    A    
C3    H5    S    
C4    H6    S    
C27   C28   S    
C10   C13   A    
