data_mof_unit_9430.cif
_audit_creation_date              2012-12-11T16:25:34-0500
_audit_creation_method            fapswitch 2.2
_symmetry_space_group_name_H-M    P1
_symmetry_Int_Tables_number       1
_space_group_crystal_system       triclinic
_cell_length_a                    20.192891
_cell_length_b                    7.263992
_cell_length_c                    13.41845
_cell_angle_alpha                 90.31346
_cell_angle_beta                  103.234022
_cell_angle_gamma                 89.488716
_cell_volume                      1915.87342465

loop_
_atom_site_label
_atom_site_type_symbol
_atom_type_description
_atom_site_fract_x
_atom_site_fract_y
_atom_site_fract_z
_atom_type_partial_charge
O1    O     O_R   0.449520 0.506760 0.599710 -0.536916
O2    O     O_R   0.550480 0.006760 0.400290 -0.536601
O3    O     O_R   0.587930 0.180200 0.595790 -0.537732
O4    O     O_R   0.412070 0.680200 0.404210 -0.538711
C1    C     C_R   0.614521 0.344003 0.617247 0.693496
C2    C     C_R   0.385476 0.844702 0.382780 0.693806
O5    O     O_R   0.452350 0.177380 0.611700 -0.540431
O6    O     O_R   0.547650 0.677380 0.388300 -0.540897
O7    O     O_R   0.413930 0.001760 0.416320 -0.534322
O8    O     O_R   0.586070 0.501760 0.583680 -0.535948
C3    C     C_R   0.436491 0.346491 0.638024 0.680725
C4    C     C_R   0.563586 0.844599 0.361981 0.680573
O9    O     O_3   0.487550 0.337460 0.435880 -0.377244
O10   O     O_3   0.512450 0.837460 0.564120 -0.377320
V1    V     V_3+5 0.502310 0.064670 0.511900 1.423422
V2    V     V_3+5 0.497690 0.564670 0.488100 1.419943
C5    C     C_R   0.610876 0.804887 0.108165 -0.167016
C6    C     C_R   0.389023 0.422517 0.889657 -0.165840
H1    H     H_    0.517349 0.798797 0.157938 0.101552
H2    H     H_    0.482602 0.418792 0.839821 0.101602
H3    H     H_    0.694686 0.785601 0.982774 0.139982
H4    H     H_    0.305129 0.458853 0.014185 0.140082
H5    H     H_    0.585451 0.781621 0.028814 0.115919
H6    H     H_    0.414395 0.454498 0.968030 0.115824
C7    C     C_R   0.603381 0.847512 0.283776 -0.027288
C8    C     C_R   0.396587 0.358738 0.715905 -0.026710
C9    C     C_R   0.931241 0.885280 0.319453 -0.188633
C10   C     C_R   0.068864 0.324354 0.681830 -0.190185
C11   C     C_R   0.895877 0.889627 0.397705 0.049952
C12   C     C_R   0.104279 0.308437 0.603966 0.048391
C13   C     C_R   0.824719 0.878541 0.372356 -0.238805
C14   C     C_R   0.175422 0.320045 0.628902 -0.239378
C15   C     C_R   0.787785 0.859363 0.269457 0.049675
C16   C     C_R   0.212286 0.351658 0.730830 0.048721
C17   C     C_R   0.824987 0.848426 0.191279 0.066651
C18   C     C_R   0.175051 0.373220 0.808443 0.067028
C19   C     C_R   0.715153 0.849140 0.241666 0.073233
C20   C     C_R   0.284855 0.364550 0.758087 0.072281
C21   C     C_R   0.681937 0.820618 0.137236 0.130756
C22   C     C_R   0.317995 0.404938 0.861266 0.130158
C23   C     C_R   0.719717 0.807003 0.062483 -0.194303
C24   C     C_R   0.280175 0.428219 0.935433 -0.195545
C25   C     C_R   0.789965 0.822747 0.088696 -0.192572
C26   C     C_R   0.209969 0.410921 0.909855 -0.191958
C27   C     C_R   0.674038 0.865395 0.313758 -0.220958
C28   C     C_R   0.325979 0.339479 0.686618 -0.220632
C29   C     C_R   0.571946 0.815940 0.181248 -0.180706
C30   C     C_R   0.428003 0.401286 0.817118 -0.181470
C31   C     C_R   0.896677 0.864487 0.217187 -0.097859
C32   C     C_R   0.103389 0.356563 0.783113 -0.096024
H7    H     H_    0.694983 0.888892 0.394076 0.108428
H8    H     H_    0.305120 0.306794 0.607313 0.107717
H9    H     H_    0.986082 0.898842 0.337962 0.133611
H10   H     H_    0.014022 0.311193 0.663772 0.133386
H11   H     H_    0.799672 0.881654 0.434958 0.158072
H12   H     H_    0.200483 0.307743 0.566566 0.157956
H13   H     H_    0.816632 0.813359 0.027441 0.132203
H14   H     H_    0.183229 0.428737 0.970602 0.131241
H15   H     H_    0.101020 0.702484 0.466040 0.150617
H16   H     H_    0.897366 0.490596 0.528791 0.150031
C33   C     C_R   0.233834 0.931258 0.038600 -0.138745
C34   C     C_R   0.767051 0.297287 0.963443 -0.139607
C35   C     C_R   0.290475 0.966061 0.998871 -0.099254
C36   C     C_R   0.710763 0.265519 0.004513 -0.098235
C37   C     C_R   0.355196 0.966331 0.062902 -0.135934
C38   C     C_R   0.645983 0.258708 0.940911 -0.136408
C39   C     C_R   0.363823 0.930292 0.167050 -0.145854
C40   C     C_R   0.636935 0.285251 0.835830 -0.146275
C41   C     C_R   0.307354 0.892956 0.209461 0.068470
C42   C     C_R   0.693037 0.319219 0.791956 0.069510
C43   C     C_R   0.240993 0.894291 0.144038 0.058817
C44   C     C_R   0.759483 0.324359 0.856988 0.058960
C45   C     C_R   0.316194 0.852445 0.314951 -0.175162
C46   C     C_R   0.683686 0.350857 0.685408 -0.175748
C47   C     C_R   0.258718 0.812726 0.355002 0.067767
C48   C     C_R   0.740727 0.388481 0.643920 0.067488
C49   C     C_R   0.192376 0.813950 0.289552 0.070715
C50   C     C_R   0.807165 0.393417 0.708952 0.070002
C51   C     C_R   0.183483 0.856350 0.184311 -0.173040
C52   C     C_R   0.816600 0.359662 0.815297 -0.173425
C53   C     C_R   0.265923 0.772772 0.460127 -0.143678
C54   C     C_R   0.733052 0.419556 0.537763 -0.144208
C55   C     C_R   0.209394 0.734019 0.499383 -0.121383
C56   C     C_R   0.789181 0.455903 0.497093 -0.124757
C57   C     C_R   0.144707 0.733634 0.435267 -0.060467
C58   C     C_R   0.853962 0.461855 0.560709 -0.061631
C59   C     C_R   0.136010 0.773294 0.331538 -0.112878
C60   C     C_R   0.863133 0.430828 0.665403 -0.108818
H17   H     H_    0.184565 0.932307 0.985630 0.113169
H18   H     H_    0.816352 0.301699 0.016193 0.114328
H19   H     H_    0.284066 0.993383 0.917963 0.131028
H20   H     H_    0.717498 0.245536 0.086140 0.129826
H21   H     H_    0.398991 0.994215 0.031688 0.118199
H22   H     H_    0.602455 0.233321 0.973189 0.118269
H23   H     H_    0.415150 0.931436 0.213780 0.092138
H24   H     H_    0.585520 0.280099 0.789603 0.092649
H25   H     H_    0.315168 0.771676 0.513154 0.112541
H26   H     H_    0.683758 0.415643 0.484987 0.113942
H27   H     H_    0.215866 0.704040 0.579999 0.128756
H28   H     H_    0.782338 0.479583 0.415760 0.127812
H29   H     H_    0.084758 0.771344 0.284658 0.086803
H30   H     H_    0.914474 0.436511 0.711727 0.087394
O11   O     O_R   0.913760 0.203480 0.916370 -0.533088
O12   O     O_R   0.086240 0.703480 0.083630 -0.535447
O13   O     O_R   0.047590 0.535230 0.888250 -0.538319
O14   O     O_R   0.952410 0.035230 0.111750 -0.539297
C61   C     C_R   0.063562 0.367529 0.861739 0.680593
C62   C     C_R   0.936367 0.869131 0.138260 0.679777
O15   O     O_R   0.912020 0.532880 0.904260 -0.539395
O16   O     O_R   0.087980 0.032880 0.095740 -0.536750
O17   O     O_R   0.949590 0.708460 0.099750 -0.536446
O18   O     O_R   0.050410 0.208460 0.900250 -0.536692
C63   C     C_R   0.885810 0.365397 0.883316 0.681668
C64   C     C_R   0.114196 0.864500 0.116613 0.681899
O19   O     O_3   0.012370 0.375360 0.064120 -0.376488
O20   O     O_3   0.987630 0.875360 0.935880 -0.377199
V3    V     V_3+5 0.997700 0.648160 0.988110 1.425089
V4    V     V_3+5 0.002300 0.148160 0.011890 1.426280
C65   C     C_2   0.933112 0.905982 0.506546 0.773514
O21   O     O_2   0.995097 0.890263 0.530015 -0.571195
O22   O     O_R   0.897383 0.938644 0.582856 -0.669293
H31   H     H_    0.928423 0.947610 0.653713 0.294657
C66   C     C_2   0.067083 0.280169 0.495916 0.775703
O23   O     O_2   0.005096 0.295503 0.471897 -0.571917
O24   O     O_R   0.102846 0.236731 0.420952 -0.668651
H32   H     H_    0.071821 0.219949 0.350575 0.292890

loop_
_geom_bond_atom_site_label_1
_geom_bond_atom_site_label_2
_ccdc_geom_bond_type
C38   C40   A    
C35   C37   A    
C9    C11   A    
C54   H26   S    
C61   O18   A    
O1    C3    A    
O2    C4    A    
O16   V4    S    
C2    O7    A    
C43   C51   A    
O15   V3    S    
C66   O23   D    
C21   C23   A    
H4    C24   S    
O5    C3    A    
O13   C61   A    
C40   H24   S    
C46   C48   A    
C6    H6    S    
O11   C63   A    
C56   C58   A    
C58   C60   A    
C66   O24   S    
C27   H7    S    
C28   H8    S    
O20   V3    S    
C41   C43   A    
C5    C21   A    
C1    C46   S    
C33   C35   A    
C6    C22   A    
C34   C36   A    
C59   H29   S    
C10   C32   A    
C26   H14   S    
C37   C39   A    
C17   C31   A    
C13   C15   A    
C41   C45   A    
C17   C25   A    
C7    C29   A    
C16   C18   A    
O15   C63   A    
C38   H22   S    
C33   C43   A    
C22   C24   A    
O6    V2    S    
C20   C22   A    
C55   H27   S    
O14   V4    S    
C39   H23   S    
C45   C47   A    
O13   V3    S    
C24   C26   A    
C11   C13   A    
C53   C55   A    
C33   H17   S    
C51   C64   S    
C31   C62   S    
C49   C51   A    
C57   C59   A    
C56   H28   S    
O4    C2    A    
C48   C54   A    
C10   H10   S    
C47   C53   A    
C3    C8    S    
C15   C19   A    
C44   C52   A    
C39   C41   A    
C36   C38   A    
O4    V2    S    
H15   C57   S    
C42   C46   A    
O18   V4    S    
C11   C65   S    
O6    C4    A    
O19   V4    S    
C50   C52   A    
C34   C44   A    
O1    V2    S    
C5    H5    S    
C52   C63   S    
O2    V1    S    
C47   C49   A    
O22   H31   S    
H2    C30   S    
C65   O22   S    
H3    C23   S    
C55   C57   A    
C54   C56   A    
O24   H32   S    
O12   C64   A    
C18   C26   A    
O11   V4    S    
C36   H20   S    
C19   C27   A    
C7    C27   A    
C18   C32   A    
C2    C45   S    
O12   V3    S    
C50   C60   A    
O16   C64   A    
H16   C58   S    
C16   C20   A    
C23   C25   A    
C5    C29   A    
C48   C50   A    
O3    C1    A    
C6    C30   A    
C60   H30   S    
C65   O21   D    
C9    H9    S    
C8    C30   A    
C62   O17   A    
C4    C7    S    
O17   V3    S    
C10   C12   A    
O7    V1    S    
C1    O8    A    
C19   C21   A    
O8    V2    S    
C12   C14   A    
C32   C61   S    
O14   C62   A    
C34   H18   S    
O5    V1    S    
C37   H21   S    
C15   C17   A    
H1    C29   S    
C20   C28   A    
C8    C28   A    
C25   H13   S    
C12   C66   S    
C49   C59   A    
C40   C42   A    
O9    V2    S    
C35   H19   S    
C53   H25   S    
O10   V1    S    
O3    V1    S    
C42   C44   A    
C13   H11   S    
C14   H12   S    
C9    C31   A    
C14   C16   A    
