data_mof_unit_37679.cif
_audit_creation_date              2012-12-10T21:26:04-0500
_audit_creation_method            fapswitch 2.2
_symmetry_space_group_name_H-M    P1
_symmetry_Int_Tables_number       1
_space_group_crystal_system       triclinic
_cell_length_a                    8.58155
_cell_length_b                    16.124872
_cell_length_c                    16.523632
_cell_angle_alpha                 87.188457
_cell_angle_beta                  91.288003
_cell_angle_gamma                 101.099293
_cell_volume                      2240.81308736

loop_
_atom_site_label
_atom_site_type_symbol
_atom_type_description
_atom_site_fract_x
_atom_site_fract_y
_atom_site_fract_z
_atom_type_partial_charge
C1    C     C_R   0.498917 0.488425 0.653401 0.885134
C2    C     C_R   0.494901 0.511058 0.346325 0.881124
C3    C     C_R   0.418966 0.756995 0.463134 0.625259
C4    C     C_R   0.582542 0.243136 0.535940 0.630265
C5    C     C_R   0.425060 0.844293 0.465789 -0.391042
C6    C     C_R   0.576449 0.155850 0.533158 -0.389165
C7    C     C_R   0.536709 0.893769 0.516532 0.115341
C8    C     C_R   0.463170 0.106221 0.483314 0.114071
C9    C     C_R   0.641751 0.852842 0.564214 -0.065546
C10   C     C_R   0.356445 0.146989 0.436687 -0.062062
C11   C     C_R   0.628760 0.763628 0.559677 0.638562
C12   C     C_R   0.369568 0.236201 0.441255 0.632579
C13   C     C_R   0.800934 0.521932 0.501155 0.962571
C14   C     C_R   0.199072 0.478048 0.499041 0.955894
C15   C     C_2   0.966926 0.533834 0.501907 -0.360588
C16   C     C_2   0.033100 0.466113 0.498613 -0.359533
C17   C     C_R   0.469383 0.477505 0.738984 -0.088822
C18   C     C_R   0.453496 0.515724 0.260719 -0.102132
C19   C     C_R   0.327085 0.493707 0.767265 -0.240860
C20   C     C_R   0.349029 0.447601 0.228465 -0.229881
C21   C     C_R   0.291162 0.481732 0.849276 0.175354
C22   C     C_R   0.299900 0.450522 0.147741 0.142022
C23   C     C_R   0.405598 0.456399 0.903691 0.208711
C24   C     C_R   0.362337 0.522950 0.097753 0.228858
C25   C     C_R   0.545932 0.435690 0.873937 0.153346
C26   C     C_R   0.457301 0.594433 0.132027 0.144589
C27   C     C_R   0.576046 0.446182 0.791062 -0.223850
C28   C     C_R   0.502276 0.590081 0.213669 -0.235140
H1    H     H_    0.034195 0.598125 0.505068 0.216524
H2    H     H_    0.965842 0.401819 0.495479 0.218288
H3    H     H_    0.302198 0.392414 0.266898 0.217715
H4    H     H_    0.241909 0.513646 0.724702 0.153639
H5    H     H_    0.684596 0.432266 0.767412 0.165531
H6    H     H_    0.577481 0.644031 0.240273 0.166413
H7    H     H_    0.659808 0.127593 0.570169 0.204642
H8    H     H_    0.343026 0.872682 0.427975 0.204513
N1    N     N_2   0.389106 0.455371 0.988274 -0.201463
N2    N     N_2   0.353902 0.521202 0.012453 -0.190601
N3    N     N_R   0.519180 0.718290 0.509780 -0.201365
N4    N     N_R   0.480820 0.281710 0.490220 -0.197743
N5    N     N_2   0.548335 0.983904 0.521425 -0.141704
N6    N     N_2   0.451561 0.016094 0.478334 -0.142254
O1    O     O_R   0.493140 0.422050 0.612640 -0.583379
O2    O     O_R   0.506860 0.577950 0.387360 -0.584254
O3    O     O_R   0.505450 0.562230 0.618920 -0.578195
O4    O     O_R   0.494550 0.437770 0.381080 -0.592575
O5    O     O_R   0.723530 0.446300 0.497600 -0.580001
O6    O     O_R   0.276470 0.553700 0.502400 -0.582543
O7    O     O_R   0.735850 0.586490 0.503880 -0.578467
O8    O     O_R   0.264150 0.413510 0.496120 -0.577133
Zn1   Zn    Zn3+2 0.491780 0.406400 0.495810 1.044077
Zn2   Zn    Zn3+2 0.508220 0.593600 0.504190 1.046955
C29   C     C_3   0.178203 0.376910 0.118085 -0.392311
C30   C     C_3   0.248605 0.297199 0.112730 -0.836448
H9    H     H_    0.350546 0.308582 0.070809 0.272362
H10   H     H_    0.289496 0.276715 0.173349 0.256288
H11   H     H_    0.156550 0.245272 0.089723 0.243564
H12   H     H_    0.076954 0.363444 0.160628 0.203503
H13   H     H_    0.127398 0.392275 0.058292 0.208126
C31   C     C_3   0.128077 0.492218 0.874966 -0.409086
C32   C     C_3   0.111368 0.584910 0.869069 -0.839951
H14   H     H_    0.206935 0.623948 0.904638 0.270011
H15   H     H_    0.117922 0.609301 0.804967 0.261505
H16   H     H_    0.994660 0.590954 0.893348 0.241506
H17   H     H_    0.036895 0.455348 0.835072 0.201969
H18   H     H_    0.100561 0.466230 0.937329 0.210870
C33   C     C_3   0.669719 0.406764 0.929633 -0.427190
C34   C     C_3   0.675354 0.313935 0.918966 -0.853846
H19   H     H_    0.557815 0.273673 0.932738 0.264746
H20   H     H_    0.708427 0.304053 0.856059 0.270070
H21   H     H_    0.765582 0.294410 0.961185 0.246022
H22   H     H_    0.787884 0.446271 0.916120 0.203925
H23   H     H_    0.647366 0.414659 0.994427 0.224490
C35   C     C_3   0.518095 0.674180 0.081166 -0.403552
C36   C     C_3   0.386397 0.724359 0.064033 -0.835917
H24   H     H_    0.284368 0.685498 0.032520 0.257991
H25   H     H_    0.344830 0.744730 0.121705 0.267931
H26   H     H_    0.432342 0.781448 0.024979 0.246913
H27   H     H_    0.617394 0.715359 0.112809 0.202338
H28   H     H_    0.566158 0.658294 0.023221 0.216674
F1    F     F_    0.690688 0.289438 0.585061 -0.651748
F2    F     F_    0.312312 0.710794 0.413234 -0.646072
C37   C     C_3   0.763068 0.907979 0.617657 -0.362526
C38   C     C_3   0.880692 0.864856 0.666594 -0.743016
H29   H     H_    0.817475 0.817373 0.711484 0.286309
H30   H     H_    0.953151 0.835271 0.625780 0.286309
H31   H     H_    0.962961 0.913092 0.700637 0.217968
H32   H     H_    0.833880 0.958863 0.578400 0.211568
H33   H     H_    0.697762 0.938907 0.660987 0.211097
C39   C     C_3   0.233266 0.091723 0.384267 -0.359839
C40   C     C_3   0.112312 0.134461 0.337566 -0.753678
H34   H     H_    0.042104 0.163748 0.379794 0.288417
H35   H     H_    0.172360 0.182133 0.291988 0.278965
H36   H     H_    0.028429 0.086078 0.304493 0.219307
H37   H     H_    0.296963 0.061478 0.339657 0.208918
H38   H     H_    0.165035 0.040332 0.423960 0.212189
F3    F     F_    0.723932 0.720767 0.604432 -0.655097
F4    F     F_    0.272805 0.278867 0.397459 -0.673257

loop_
_geom_bond_atom_site_label_1
_geom_bond_atom_site_label_2
_ccdc_geom_bond_type
C2    C18   S    
N5    N6    D    
C25   C33   S    
C38   H31   S    
C8    N6    S    
O1    Zn1   S    
C29   H13   S    
C39   H37   S    
C29   C30   S    
C27   H5    S    
C19   C21   A    
C38   H30   S    
C16   H2    S    
C15   C16   D    
C5    H8    S    
C6    H7    S    
C18   C20   A    
C33   H22   S    
C32   H15   S    
C26   C35   S    
C1    O1    A    
O5    Zn1   S    
C4    F1    S    
C4    N4    A    
C2    O2    A    
C34   H19   S    
C24   N2    S    
C33   H23   S    
C12   F4    S    
O2    Zn2   S    
C7    N5    S    
C37   H32   S    
C3    N3    A    
C35   H28   S    
C19   H4    S    
C15   H1    S    
C22   C29   S    
C37   H33   S    
C30   H10   S    
C35   C36   S    
C33   C34   S    
C17   C27   A    
C18   C28   A    
C38   H29   S    
C21   C31   S    
C4    C6    A    
C40   H34   S    
C5    C7    A    
C6    C8    A    
O3    Zn2   S    
C23   N1    S    
O4    Zn1   S    
C2    O4    A    
C31   C32   S    
C12   N4    A    
C32   H16   S    
C36   H24   S    
N1    N2    D    
C40   H35   S    
C9    C11   A    
C37   C38   S    
O7    Zn2   S    
C3    F2    S    
O8    Zn1   S    
C11   N3    A    
C36   H25   S    
C10   C12   A    
C9    C37   S    
C13   O7    A    
C34   H20   S    
C20   C22   A    
C31   H17   S    
C35   H27   S    
C13   C15   S    
C14   C16   S    
C13   O5    A    
C7    C9    A    
C30   H9    S    
C28   H6    S    
C1    C17   S    
C24   C26   A    
C3    C5    A    
C14   O6    A    
C29   H12   S    
C39   H38   S    
C25   C27   A    
N4    Zn1   S    
C26   C28   A    
C11   F3    S    
C21   C23   A    
C40   H36   S    
C1    O3    A    
C39   C40   S    
C14   O8    A    
C34   H21   S    
C17   C19   A    
N3    Zn2   S    
C22   C24   A    
C23   C25   A    
C32   H14   S    
C36   H26   S    
C31   H18   S    
O6    Zn2   S    
C10   C39   S    
C8    C10   A    
C30   H11   S    
C20   H3    S    
