data_mof_unit_42377.cif
_audit_creation_date              2012-12-10T16:57:13-0500
_audit_creation_method            fapswitch 2.2
_symmetry_space_group_name_H-M    P1
_symmetry_Int_Tables_number       1
_space_group_crystal_system       triclinic
_cell_length_a                    15.875399
_cell_length_b                    10.880344
_cell_length_c                    9.730284
_cell_angle_alpha                 87.636329
_cell_angle_beta                  89.435013
_cell_angle_gamma                 90.632628
_cell_volume                      1679.08817281

loop_
_atom_site_label
_atom_site_type_symbol
_atom_type_description
_atom_site_fract_x
_atom_site_fract_y
_atom_site_fract_z
_atom_type_partial_charge
C1    C     C_R   0.493000 0.264903 0.503884 0.797939
C2    C     C_3   0.949739 0.472681 0.648693 -0.384881
C3    C     C_3   0.917091 0.482831 0.499199 0.271079
C4    C     C_3   0.952469 0.604155 0.429831 -0.422890
C5    C     C_3   0.049772 0.607040 0.432245 -0.441345
C6    C     C_1   0.824770 0.489071 0.498739 -0.114163
C7    C     C_1   0.175430 0.493088 0.501858 -0.109089
C8    C     C_1   0.250886 0.497173 0.501888 -0.173708
C9    C     C_2   0.444235 0.929648 0.422825 -0.193888
C10   C     C_2   0.505273 0.866815 0.487498 -0.228658
C11   C     C_2   0.441603 0.065462 0.418389 0.027090
C12   C     C_R   0.340388 0.499957 0.500639 0.857622
C13   C     C_2   0.475107 0.131929 0.520514 -0.179924
C14   C     C_2   0.440737 0.448858 0.928275 0.158912
C15   C     C_2   0.434348 0.476599 0.078805 -0.065160
C16   C     C_R   0.501715 0.734543 0.496889 0.839501
C17   C     C_R   0.659698 0.499153 0.499424 0.820086
C18   C     C_3   0.047142 0.477918 0.649715 -0.380229
C19   C     C_3   0.050429 0.376408 0.414482 -0.043190
C20   C     C_3   0.950464 0.370961 0.418248 -0.059826
C21   C     C_1   0.749310 0.494309 0.498593 -0.184379
C22   C     C_3   0.083321 0.486203 0.500555 0.299733
Cu1   Cu    Cu3+1 0.500020 0.500020 0.638630 0.937099
Cu2   Cu    Cu3+1 0.499980 0.499980 0.361370 0.961571
H1    H     H_    0.927207 0.385404 0.700881 0.156387
H2    H     H_    0.067731 0.560388 0.705163 0.164015
H3    H     H_    0.924531 0.549337 0.708691 0.166586
H4    H     H_    0.930848 0.613446 0.321445 0.161858
H5    H     H_    0.395071 0.879960 0.370252 0.136360
H6    H     H_    0.557580 0.911809 0.536574 0.119822
H7    H     H_    0.539902 0.559931 0.890049 0.188136
H8    H     H_    0.373250 0.467411 0.128946 0.173873
H9    H     H_    0.071632 0.398210 0.710384 0.149358
H10   H     H_    0.557101 0.496308 0.105171 0.190224
H11   H     H_    0.065580 0.405102 0.305474 0.098749
H12   H     H_    0.929057 0.388356 0.310345 0.121264
H13   H     H_    0.071606 0.687682 0.489755 0.180375
H14   H     H_    0.074860 0.620203 0.325329 0.163243
H15   H     H_    0.928057 0.684800 0.484093 0.180833
N1    N     N_2   0.499090 0.498660 0.846910 -0.297650
N2    N     N_2   0.499070 0.498630 0.153040 -0.293168
O1    O     O_R   0.500010 0.321960 0.617040 -0.615802
O2    O     O_R   0.499990 0.321920 0.382900 -0.525773
O3    O     O_R   0.379450 0.500030 0.617120 -0.599134
O4    O     O_R   0.379420 0.499980 0.382980 -0.555471
O5    O     O_R   0.500010 0.678080 0.617100 -0.552384
O6    O     O_R   0.499990 0.678040 0.382960 -0.578036
O7    O     O_R   0.620580 0.500020 0.617020 -0.576126
O8    O     O_R   0.620550 0.499970 0.382880 -0.580184
C23   C     C_2   0.394309 0.122648 0.302293 0.324022
H16   H     H_    0.391374 0.077017 0.205357 0.065620
O9    O     O_2   0.353229 0.215502 0.317041 -0.572417
C24   C     C_2   0.484877 0.078210 0.663659 0.322051
H17   H     H_    0.533432 0.113554 0.729700 0.079295
O10   O     O_2   0.436410 0.998954 0.710906 -0.533060
C25   C     C_3   0.371550 0.367434 0.873297 -0.350564
C26   C     C_3   0.355048 0.250209 0.962849 -0.413543
C27   C     C_3   0.289042 0.167968 0.898213 -0.817448
H18   H     H_    0.227993 0.216535 0.889722 0.236117
H19   H     H_    0.309809 0.142177 0.794129 0.288550
H20   H     H_    0.279622 0.082753 0.963583 0.250869
H21   H     H_    0.414595 0.198317 0.975776 0.235971
H22   H     H_    0.330829 0.274443 0.065181 0.255327
H23   H     H_    0.312571 0.421331 0.865457 0.182998
H24   H     H_    0.388300 0.335670 0.771295 0.263816
C28   C     C_3   0.099945 0.252640 0.429737 -0.386527
C29   C     C_3   0.123252 0.205492 0.575964 -0.339539
C30   C     C_3   0.160831 0.076988 0.573409 -0.836969
H25   H     H_    0.114549 0.010997 0.532165 0.243526
H26   H     H_    0.218925 0.078433 0.508680 0.279776
H27   H     H_    0.177287 0.044991 0.679488 0.245876
H28   H     H_    0.171290 0.266998 0.619804 0.225438
H29   H     H_    0.067972 0.201267 0.646109 0.202803
H30   H     H_    0.065591 0.179564 0.376809 0.203197
H31   H     H_    0.160303 0.264886 0.371231 0.216509
C31   C     C_3   0.909602 0.245200 0.468354 -0.393070
C32   C     C_3   0.886192 0.164470 0.347988 -0.371843
C33   C     C_3   0.858303 0.035722 0.399123 -0.856538
H32   H     H_    0.910586 0.988625 0.454234 0.249494
H33   H     H_    0.803019 0.041007 0.469436 0.250090
H34   H     H_    0.840327 0.980622 0.310224 0.241326
H35   H     H_    0.833712 0.208000 0.289656 0.217745
H36   H     H_    0.940244 0.156441 0.275892 0.209935
H37   H     H_    0.950330 0.193947 0.540802 0.216947
H38   H     H_    0.850638 0.259373 0.527503 0.197561

loop_
_geom_bond_atom_site_label_1
_geom_bond_atom_site_label_2
_ccdc_geom_bond_type
C14   C25   S    
C5    H13   S    
C2    C18   S    
C19   C20   S    
C18   H2    S    
C17   O7    A    
C3    C6    S    
C31   H37   S    
C7    C8    T    
C24   H17   S    
H7    N1    S    
Cu1   O1    S    
Cu2   O4    S    
C33   H33   S    
C32   H36   S    
C27   H19   S    
Cu1   N1    S    
C28   H30   S    
C25   C26   S    
C20   C31   S    
C19   C28   S    
C29   H28   S    
C1    O2    A    
C5    C22   S    
C30   H25   S    
C23   O9    D    
Cu1   Cu2   S    
C25   H23   S    
C2    H3    S    
C29   H29   S    
C9    C10   D    
C9    H5    S    
C27   H20   S    
C28   C29   S    
Cu1   O5    S    
C5    H14   S    
Cu2   N2    S    
H10   N2    S    
C16   O6    A    
C4    H4    S    
C26   H22   S    
C13   C24   S    
C24   O10   D    
C29   C30   S    
C26   H21   S    
C19   C22   S    
C31   C32   S    
C15   N2    D    
C17   O8    A    
C33   H32   S    
C12   O4    A    
C27   H18   S    
C32   C33   S    
C6    C21   T    
C17   C21   S    
Cu1   O3    S    
C10   H6    S    
C4    H15   S    
C8    C12   S    
C23   H16   S    
C3    C20   S    
C9    C11   S    
C1    C13   S    
C16   O5    A    
C3    C4    S    
Cu2   O8    S    
Cu1   O7    S    
C18   C22   S    
Cu2   O6    S    
C4    C5    S    
C15   H8    S    
C7    C22   S    
C2    C3    S    
C12   O3    A    
C11   C23   S    
C19   H11   S    
C11   C13   D    
C33   H34   S    
C26   C27   S    
C32   H35   S    
C30   H27   S    
C28   H31   S    
C2    H1    S    
C18   H9    S    
C14   N1    D    
C20   H12   S    
C1    O1    A    
C30   H26   S    
Cu2   O2    S    
C14   C15   S    
C10   C16   S    
C31   H38   S    
C25   H24   S    
