data_mof_unit_25678.cif
_audit_creation_date              2012-12-10T18:14:21-0500
_audit_creation_method            fapswitch 2.2
_symmetry_space_group_name_H-M    P1
_symmetry_Int_Tables_number       1
_space_group_crystal_system       triclinic
_cell_length_a                    12.59527
_cell_length_b                    13.098181
_cell_length_c                    18.860581
_cell_angle_alpha                 90.581231
_cell_angle_beta                  101.743628
_cell_angle_gamma                 82.311687
_cell_volume                      3018.54296504

loop_
_atom_site_label
_atom_site_type_symbol
_atom_type_description
_atom_site_fract_x
_atom_site_fract_y
_atom_site_fract_z
_atom_type_partial_charge
C1    C     C_R   0.438719 0.691372 0.489559 0.841620
C2    C     C_R   0.490736 0.517379 0.710323 -0.034987
C3    C     C_R   0.421188 0.614200 0.061604 0.327254
C4    C     C_R   0.431579 0.597665 0.920018 0.285938
C5    C     C_R   0.357673 0.557543 0.169526 -0.141136
C6    C     C_R   0.381412 0.525543 0.241666 -0.221358
C7    C     C_R   0.484621 0.532563 0.286436 -0.184277
C8    C     C_R   0.564403 0.575289 0.256044 0.449134
C9    C     C_R   0.536576 0.611103 0.184266 -0.217347
C10   C     C_R   0.435548 0.599708 0.140183 -0.000045
C11   C     C_R   0.703779 0.064654 0.447965 0.392560
C12   C     C_R   0.499318 0.501771 0.634758 0.848611
C13   C     C_R   0.598456 0.199419 0.503462 -0.130528
C14   C     C_R   0.297706 0.840268 0.497026 -0.166338
C15   C     C_R   0.268004 0.946167 0.500006 -0.114425
C16   C     C_R   0.343239 0.012690 0.493507 -0.192268
C17   C     C_R   0.448547 0.973578 0.482015 0.117856
C18   C     C_R   0.467825 0.869686 0.463771 0.067955
C19   C     C_R   0.533672 0.034890 0.484810 0.019966
C20   C     C_R   0.623533 0.999755 0.451145 -0.045359
C21   C     C_R   0.629447 0.901597 0.420807 -0.126491
C22   C     C_R   0.554023 0.836912 0.428370 -0.195552
C23   C     C_R   0.561116 0.308680 0.507815 0.908610
C24   C     C_R   0.533646 0.129237 0.521129 0.133419
C25   C     C_R   0.686071 0.166394 0.469970 -0.312907
C26   C     C_R   0.399119 0.801397 0.480606 -0.119608
C27   C     C_R   0.095679 0.333651 0.410388 -0.253764
C28   C     C_R   0.795345 0.636514 0.579849 0.042644
C29   C     C_R   0.898560 0.667380 0.596501 -0.242937
C30   C     C_R   0.982847 0.614036 0.567916 -0.165408
C31   C     C_R   0.963727 0.528886 0.522589 -0.001477
C32   C     C_R   0.857492 0.499766 0.508347 0.220689
C33   C     C_R   0.044328 0.473269 0.489416 -0.015095
C34   C     C_R   0.497923 0.505391 0.364450 0.881621
C35   C     C_R   0.018071 0.388240 0.444773 0.159716
C36   C     C_R   0.913935 0.359837 0.433618 -0.164115
C37   C     C_R   0.834360 0.416343 0.463935 -0.122231
C38   C     C_R   0.150180 0.499188 0.497681 -0.026857
C39   C     C_R   0.198623 0.363757 0.420452 0.004318
C40   C     C_R   0.403375 0.483140 0.734884 -0.189350
C41   C     C_R   0.383021 0.511039 0.802476 -0.157685
C42   C     C_R   0.449926 0.573409 0.846989 0.083186
C43   C     C_R   0.539043 0.605772 0.823140 -0.148924
C44   C     C_R   0.559490 0.577677 0.755238 -0.191376
H1    H     H_    0.349032 0.436455 0.701154 0.157964
H2    H     H_    0.692437 0.872955 0.391656 0.244973
H3    H     H_    0.242303 0.788998 0.508428 0.162671
H4    H     H_    0.317369 0.094388 0.495848 0.160952
H5    H     H_    0.188366 0.976567 0.510228 0.177476
H6    H     H_    0.561163 0.761994 0.403960 0.211294
H7    H     H_    0.260799 0.321901 0.395284 0.142981
H8    H     H_    0.892177 0.296919 0.398273 0.211177
H9    H     H_    0.076910 0.268670 0.376276 0.176654
H10   H     H_    0.314623 0.483771 0.819633 0.154389
H11   H     H_    0.178666 0.560991 0.531177 0.122566
H12   H     H_    0.729167 0.677984 0.601503 0.134389
H13   H     H_    0.061298 0.641295 0.582161 0.137123
H14   H     H_    0.913052 0.732682 0.631067 0.150317
H15   H     H_    0.753507 0.397091 0.448082 0.215398
H16   H     H_    0.592907 0.652900 0.856756 0.156264
H17   H     H_    0.626487 0.606043 0.736984 0.151913
H18   H     H_    0.279044 0.547190 0.136306 0.167851
H19   H     H_    0.317921 0.494055 0.261982 0.190886
H20   H     H_    0.597537 0.641306 0.160643 0.207166
H21   H     H_    0.739020 0.220372 0.459448 0.189371
N1    N     N_R   0.498673 0.654034 0.964746 -0.166369
N2    N     N_R   0.493642 0.661983 0.034241 -0.159465
N3    N     N_R   0.350100 0.562468 0.016015 -0.164876
N4    N     N_R   0.355068 0.554586 0.946452 -0.173265
N5    N     N_R   0.222200 0.444680 0.463280 -0.105388
N6    N     N_R   0.776960 0.554780 0.536340 -0.116453
O1    O     O_R   0.366740 0.627160 0.482470 -0.608387
O2    O     O_R   0.544830 0.662520 0.505920 -0.611250
O3    O     O_R   0.410920 0.482320 0.590130 -0.619539
O4    O     O_R   0.589010 0.517690 0.613590 -0.617740
O5    O     O_R   0.455170 0.337480 0.494080 -0.607958
O6    O     O_R   0.633260 0.372840 0.517530 -0.645189
O7    O     O_R   0.410990 0.482310 0.386410 -0.620687
O8    O     O_R   0.589080 0.517680 0.409870 -0.545553
Zn1   Zn    Zn3+2 0.381090 0.476390 0.484340 0.943333
Zn2   Zn    Zn3+2 0.618910 0.523610 0.515660 0.968762
S1    S     S_3+6 0.823737 0.023467 0.414078 0.016580
O9    O     O_2   0.792767 0.012563 0.333386 -0.236548
O10   O     O_2   0.903832 0.100040 0.430846 -0.331473
O11   O     O_3   0.883975 0.908666 0.451393 -0.541625
H22   H     H_    0.894416 0.918841 0.504352 0.340767
C45   C     C_3   0.481607 0.150546 0.586655 -0.895485
H23   H     H_    0.538483 0.186094 0.629736 0.234503
H24   H     H_    0.404315 0.204388 0.572689 0.251659
H25   H     H_    0.466151 0.078462 0.610842 0.246083
S2    S     S_3+6 0.704296 0.570867 0.298273 0.020046
O12   O     O_2   0.749786 0.459856 0.313745 -0.313610
O13   O     O_2   0.767235 0.614240 0.248586 -0.287989
O14   O     O_3   0.719890 0.638335 0.375115 -0.568625
H26   H     H_    0.798073 0.648380 0.386461 0.388716

loop_
_geom_bond_atom_site_label_1
_geom_bond_atom_site_label_2
_ccdc_geom_bond_type
C8    C9    A    
C39   H7    S    
C45   H23   S    
C38   N5    A    
C12   O3    A    
C9    H20   S    
C41   C42   A    
C3    N3    A    
C18   C26   A    
C23   O5    A    
C2    C12   S    
C16   H4    S    
C28   H12   S    
C7    C8    A    
O11   H22   S    
C28   C29   A    
C30   C31   A    
O7    Zn1   S    
C11   C25   A    
C15   C16   A    
C30   H13   S    
C13   C23   S    
C33   C35   A    
N3    N4    A    
C38   H11   S    
C19   C20   A    
C2    C44   A    
C16   C17   A    
C31   C33   A    
C9    C10   A    
C36   H8    S    
C22   H6    S    
N1    N2    A    
O3    Zn1   S    
C21   C22   A    
C13   C25   A    
O2    Zn2   S    
C4    N4    A    
C32   N6    A    
C11   S1    S    
C40   H1    S    
C11   C20   A    
C1    O1    A    
N5    Zn1   S    
C25   H21   S    
C27   C39   A    
S2    O12   D    
O8    Zn2   S    
O4    Zn2   S    
C27   C35   A    
C14   C26   A    
C13   C24   A    
C35   C36   A    
C6    H19   S    
C43   C44   A    
C29   C30   A    
C34   O8    A    
S2    O13   D    
C31   C32   A    
O6    Zn2   S    
C17   C18   A    
C8    S2    S    
C37   H15   S    
C32   C37   A    
C23   O6    A    
C6    C7    A    
C43   H16   S    
C40   C41   A    
S1    O10   D    
C45   H24   S    
C1    C26   S    
C7    C34   S    
C45   H25   S    
C28   N6    A    
C42   C43   A    
C29   H14   S    
C21   H2    S    
C36   C37   A    
C18   C22   A    
C3    N2    A    
O5    Zn1   S    
C27   H9    S    
C14   H3    S    
C44   H17   S    
S1    O11   S    
C33   C38   A    
C1    O2    A    
C19   C24   A    
C5    C10   A    
O1    Zn1   S    
C3    C10   S    
C34   O7    A    
S2    O14   S    
C4    N1    A    
C5    C6    A    
C4    C42   S    
C17   C19   A    
C39   N5    A    
C5    H18   S    
C15   H5    S    
O14   H26   S    
C24   C45   S    
C41   H10   S    
C2    C40   A    
C20   C21   A    
S1    O9    D    
C12   O4    A    
C14   C15   A    
N6    Zn2   S    
