data_mof_unit_30290.cif
_audit_creation_date              2012-12-10T19:24:29-0500
_audit_creation_method            fapswitch 2.2
_symmetry_space_group_name_H-M    P1
_symmetry_Int_Tables_number       1
_space_group_crystal_system       triclinic
_cell_length_a                    17.752551
_cell_length_b                    16.638701
_cell_length_c                    11.160164
_cell_angle_alpha                 92.222254
_cell_angle_beta                  94.344556
_cell_angle_gamma                 92.824631
_cell_volume                      3280.02450323

loop_
_atom_site_label
_atom_site_type_symbol
_atom_type_description
_atom_site_fract_x
_atom_site_fract_y
_atom_site_fract_z
_atom_type_partial_charge
C1    C     C_R   0.355678 0.498064 0.509933 0.924726
C2    C     C_R   0.645052 0.501276 0.494284 0.950170
C3    C     C_R   0.884073 0.471855 0.533591 -0.242938
C4    C     C_R   0.113781 0.492623 0.503628 -0.231735
C5    C     C_1   0.965314 0.475573 0.523940 0.244788
C6    C     C_1   0.032588 0.483102 0.512762 0.252301
C7    C     C_R   0.563557 0.835949 0.524180 0.149543
C8    C     C_R   0.444380 0.165818 0.425759 0.178228
C9    C     C_R   0.431240 0.823483 0.459152 0.178315
C10   C     C_R   0.551073 0.173377 0.574176 0.148177
C11   C     C_R   0.560383 0.752048 0.547850 0.097282
C12   C     C_R   0.442729 0.251644 0.435322 0.037949
C13   C     C_R   0.437885 0.738342 0.446663 0.049383
C14   C     C_R   0.555700 0.258982 0.565097 0.036316
C15   C     C_R   0.496375 0.873573 0.491966 -0.148190
C16   C     C_R   0.497045 0.125934 0.499590 -0.125910
C17   C     C_1   0.495013 0.962692 0.494537 0.235291
C18   C     C_1   0.495738 0.036630 0.497448 0.239571
C19   C     C_R   0.503534 0.499031 0.262622 0.849305
C20   C     C_R   0.498725 0.501140 0.737905 0.883381
C21   C     C_R   0.594757 0.622855 0.134474 -0.041995
C22   C     C_R   0.421401 0.370817 0.864510 0.043570
C23   C     C_R   0.565794 0.637080 0.896725 0.020373
C24   C     C_R   0.443997 0.360027 0.102935 0.034328
C25   C     C_R   0.653704 0.654183 0.070162 -0.076231
C26   C     C_R   0.362819 0.334050 0.922944 -0.167070
C27   C     C_R   0.635939 0.667692 0.949282 -0.183547
C28   C     C_R   0.377525 0.323047 0.045148 -0.055502
C29   C     C_R   0.534146 0.567036 0.945172 0.071339
C30   C     C_R   0.472134 0.432310 0.055912 -0.052428
C31   C     C_R   0.543818 0.562800 0.072220 -0.002854
C32   C     C_R   0.464140 0.435993 0.928992 0.071036
C33   C     C_R   0.497184 0.502622 0.871875 -0.082338
C34   C     C_R   0.508002 0.497357 0.129329 -0.107240
C35   C     C_R   0.852023 0.537144 0.589665 0.315740
C36   C     C_R   0.152203 0.426999 0.460449 0.308912
C37   C     C_R   0.155913 0.560479 0.558566 0.291926
C38   C     C_R   0.837089 0.415060 0.462722 0.293559
C39   C     C_R   0.779591 0.558683 0.548797 0.246356
C40   C     C_R   0.228644 0.420756 0.497140 0.315577
C41   C     C_R   0.235808 0.558377 0.577244 0.273521
C42   C     C_R   0.760535 0.431658 0.432734 0.300005
C43   C     C_R   0.729372 0.500481 0.485824 -0.400807
C44   C     C_R   0.272561 0.492774 0.527209 -0.363994
Cu1   Cu    Cu3+1 0.500000 0.580420 0.500000 1.083092
Cu2   Cu    Cu3+1 0.500000 0.419580 0.500000 1.081144
H1    H     H_    0.347783 0.273763 0.084690 0.226330
H2    H     H_    0.667451 0.715242 0.908117 0.176572
H3    H     H_    0.322022 0.292189 0.873505 0.181774
H4    H     H_    0.699974 0.690864 0.116331 0.200922
N1    N     N_R   0.500000 0.701220 0.500000 -0.224147
N2    N     N_R   0.500000 0.298780 0.500000 -0.237277
O1    O     O_R   0.391260 0.567930 0.500000 -0.594271
O2    O     O_R   0.608740 0.432070 0.500000 -0.561067
O3    O     O_R   0.608740 0.567930 0.500000 -0.505536
O4    O     O_R   0.391260 0.432070 0.500000 -0.530076
O5    O     O_R   0.500000 0.567910 0.319660 -0.609956
O6    O     O_R   0.500000 0.432090 0.680340 -0.572831
O7    O     O_R   0.500000 0.567910 0.680340 -0.523873
O8    O     O_R   0.500000 0.432090 0.319660 -0.559190
C45   C     C_2   0.563103 0.686994 0.208397 0.420584
H5    H     H_    0.502914 0.689958 0.208563 0.156862
O9    O     O_2   0.603103 0.741184 0.260680 -0.512301
C46   C     C_2   0.463219 0.307591 0.805543 0.460920
H6    H     H_    0.435831 0.268865 0.733104 0.091439
O10   O     O_2   0.526967 0.293669 0.845236 -0.483210
C47   C     C_2   0.514979 0.698247 0.848277 0.466986
H7    H     H_    0.538088 0.756448 0.824181 0.022710
O11   O     O_2   0.446470 0.686807 0.842786 -0.459161
C48   C     C_2   0.499688 0.306538 0.159368 0.511077
H8    H     H_    0.556827 0.329512 0.184245 0.158660
O12   O     O_2   0.484017 0.235263 0.171499 -0.528197
S1    S     S_3+6 0.899204 0.589957 0.716968 0.133720
O13   O     O_2   0.960737 0.541244 0.772632 -0.223301
O14   O     O_2   0.932238 0.669514 0.681273 -0.137609
O15   O     O_3   0.835787 0.606728 0.818514 -0.485476
H9    H     H_    0.863981 0.640193 0.884058 0.393896
S2    S     S_3+6 0.106300 0.351888 0.360560 0.117858
O16   O     O_2   0.065656 0.290439 0.430713 -0.153794
O17   O     O_2   0.050690 0.389837 0.274626 -0.222116
O18   O     O_3   0.170843 0.306611 0.282238 -0.492477
H10   H     H_    0.141924 0.262828 0.233431 0.403528
S3    S     S_3+6 0.109402 0.649753 0.592713 0.131979
O19   O     O_2   0.041474 0.656880 0.505545 -0.225251
O20   O     O_2   0.084733 0.646479 0.718255 -0.160446
O21   O     O_3   0.167945 0.731380 0.583573 -0.438382
H11   H     H_    0.139767 0.777165 0.612934 0.405939
S4    S     S_3+6 0.871509 0.318491 0.432068 0.132700
O22   O     O_2   0.908900 0.318708 0.315820 -0.154649
O23   O     O_2   0.928188 0.299055 0.532341 -0.216541
O24   O     O_3   0.800851 0.246880 0.422666 -0.451036
H12   H     H_    0.824889 0.196302 0.401573 0.406168
S5    S     S_3+6 0.775969 0.660768 0.512857 0.127593
O25   O     O_2   0.776584 0.712264 0.626318 -0.175351
O26   O     O_2   0.845388 0.684453 0.450483 -0.197295
O27   O     O_3   0.700310 0.676875 0.419973 -0.457823
H13   H     H_    0.708277 0.645436 0.345214 0.350908
S6    S     S_3+6 0.244183 0.337537 0.589534 0.030426
O28   O     O_2   0.216014 0.259577 0.525232 -0.217593
O29   O     O_2   0.325758 0.332249 0.631380 -0.373815
O30   O     O_3   0.194870 0.351021 0.710965 -0.483237
H14   H     H_    0.194593 0.298604 0.750103 0.387942
S7    S     S_3+6 0.286157 0.618256 0.695618 0.124269
O31   O     O_2   0.234611 0.644145 0.788987 -0.169857
O32   O     O_2   0.344925 0.568438 0.755924 -0.258710
O33   O     O_3   0.328478 0.700089 0.640985 -0.514800
H15   H     H_    0.325846 0.743834 0.703037 0.396765
S8    S     S_3+6 0.709367 0.380240 0.307007 0.048116
O34   O     O_2   0.661758 0.311233 0.348871 -0.295851
O35   O     O_2   0.659443 0.438190 0.243933 -0.370150
O36   O     O_3   0.767637 0.344973 0.207760 -0.411711
H16   H     H_    0.733861 0.316403 0.143421 0.396276
S9    S     S_3+6 0.651721 0.893357 0.533369 0.106440
O37   O     O_2   0.669267 0.926726 0.659901 -0.174485
O38   O     O_2   0.714376 0.841382 0.500548 -0.154504
O39   O     O_3   0.648801 0.969775 0.439084 -0.457375
H17   H     H_    0.638034 0.943639 0.357907 0.364083
S10   S     S_3+6 0.380510 0.107100 0.320520 0.090789
O40   O     O_2   0.317248 0.071733 0.386927 -0.134850
O41   O     O_2   0.346782 0.155576 0.221203 -0.273286
O42   O     O_3   0.426163 0.032350 0.256819 -0.457854
H18   H     H_    0.468309 0.059760 0.218453 0.369690
S11   S     S_3+6 0.342203 0.867596 0.432264 0.098870
O43   O     O_2   0.336854 0.898625 0.307574 -0.117477
O44   O     O_2   0.276569 0.808588 0.442942 -0.231601
O45   O     O_3   0.335372 0.944240 0.532847 -0.461392
H19   H     H_    0.340614 0.919670 0.612298 0.344132
S12   S     S_3+6 0.613112 0.125632 0.680090 0.087587
O46   O     O_2   0.680645 0.100131 0.617770 -0.133930
O47   O     O_2   0.640139 0.181466 0.785349 -0.217058
O48   O     O_3   0.569271 0.044246 0.733745 -0.477875
H20   H     H_    0.525692 0.065321 0.773168 0.347682
C49   C     C_2   0.618568 0.726944 0.639149 0.490698
H21   H     H_    0.657606 0.771626 0.685934 0.121603
O49   O     O_2   0.621856 0.658695 0.672176 -0.528743
C50   C     C_2   0.373933 0.286367 0.380761 0.584593
H22   H     H_    0.319519 0.256560 0.391151 0.155336
O50   O     O_2   0.376102 0.343258 0.316115 -0.550994
C51   C     C_2   0.376285 0.692363 0.372971 0.570155
H23   H     H_    0.324638 0.673786 0.412356 0.140659
O51   O     O_2   0.379620 0.679911 0.265311 -0.546370
C52   C     C_2   0.625548 0.301804 0.620641 0.632930
H24   H     H_    0.679994 0.281959 0.596715 0.107046
O52   O     O_2   0.624172 0.355380 0.697891 -0.491477

loop_
_geom_bond_atom_site_label_1
_geom_bond_atom_site_label_2
_ccdc_geom_bond_type
C27   H2    S    
C4    C36   A    
C28   H1    S    
O30   H14   S    
C29   C33   A    
S1    O13   D    
O36   H16   S    
S12   O46   D    
C14   C52   S    
O18   H10   S    
C24   C48   S    
S11   O43   D    
Cu1   Cu2   S    
C19   O5    A    
C7    C11   A    
C21   C31   A    
Cu1   O5    S    
S5    O25   D    
C22   C32   A    
C13   C51   S    
C1    O4    A    
C38   C42   A    
C2    O3    A    
C11   C49   S    
C40   S6    S    
C5    C6    T    
S2    O17   D    
S11   O44   D    
O33   H15   S    
Cu1   N1    S    
Cu2   N2    S    
O39   H17   S    
C23   C47   S    
C45   O9    D    
C9    C13   A    
S10   O40   D    
C39   S5    S    
C1    O1    A    
C9    S11   S    
C25   H4    S    
C14   N2    A    
C3    C38   A    
C48   H8    S    
C23   C27   A    
C35   S1    S    
C40   C44   A    
C21   C45   S    
S9    O39   S    
C7    C15   A    
Cu1   O1    S    
C8    C16   A    
C13   N1    A    
Cu2   O6    S    
S1    O14   D    
C10   S12   S    
C12   N2    A    
S10   O41   D    
C30   C34   A    
C8    S10   S    
C47   H7    S    
C36   C40   A    
O15   H9    S    
C50   O50   D    
C10   C14   A    
C26   H3    S    
O24   H12   S    
O21   H11   S    
S11   O45   S    
C39   C43   A    
C41   S7    S    
C38   S4    S    
C47   O11   D    
S10   O42   S    
C46   O10   D    
C35   C39   A    
C1    C44   S    
S3    O19   D    
S4    O24   S    
C3    C35   A    
C2    C43   S    
C8    C12   A    
O27   H13   S    
Cu2   O2    S    
C17   C18   T    
C31   C34   A    
S7    O32   D    
S4    O22   D    
C20   O7    A    
O42   H18   S    
C22   C26   A    
C20   C33   S    
C4    C6    S    
S3    O20   D    
S4    O23   D    
S5    O27   S    
S6    O29   D    
C2    O2    A    
C49   H21   S    
C41   C44   A    
C52   O52   D    
C42   C43   A    
C20   O6    A    
O48   H20   S    
S12   O48   S    
C23   C29   A    
S9    O37   D    
C15   C17   S    
C21   C25   A    
Cu1   O7    S    
Cu2   O8    S    
S2    O16   D    
C24   C28   A    
C50   H22   S    
C3    C5    S    
C19   C34   S    
S12   O47   D    
C48   O12   D    
C51   H23   S    
C19   O8    A    
C25   C27   A    
S6    O30   S    
C26   C28   A    
S8    O36   S    
C32   C33   A    
C7    S9    S    
C9    C15   A    
C29   C31   A    
C10   C16   A    
C46   H6    S    
C30   C32   A    
C51   O51   D    
S2    O18   S    
S5    O26   D    
O45   H19   S    
S1    O15   S    
S8    O35   D    
S7    O33   S    
C37   C41   A    
C45   H5    S    
C24   C30   A    
C11   N1    A    
C22   C46   S    
S8    O34   D    
S3    O21   S    
C4    C37   A    
Cu1   O3    S    
C16   C18   S    
S6    O28   D    
C12   C50   S    
Cu2   O4    S    
S7    O31   D    
C49   O49   D    
C52   H24   S    
C37   S3    S    
C36   S2    S    
C42   S8    S    
S9    O38   D    
