data_mof_unit_60507.cif
_audit_creation_date              2012-10-26T17:34:57-0400
_audit_creation_method            fapswitch 2.2
_symmetry_space_group_name_H-M    P1
_symmetry_Int_Tables_number       1
_space_group_crystal_system       triclinic
_cell_length_a                    18.914279
_cell_length_b                    18.831711
_cell_length_c                    18.803773
_cell_angle_alpha                 109.34953
_cell_angle_beta                  109.590195
_cell_angle_gamma                 109.793729
_cell_volume                      5135.37135413

loop_
_atom_site_label
_atom_site_type_symbol
_atom_type_description
_atom_site_fract_x
_atom_site_fract_y
_atom_site_fract_z
_atom_type_partial_charge
C1    C     C_R   0.622245 0.619149 0.503703 0.528715
C2    C     C_R   0.215248 0.232662 0.327073 0.243058
C3    C     C_R   0.833183 0.862929 0.747790 -0.036855
C4    C     C_R   0.148739 0.153623 0.249768 -0.093006
C5    C     C_R   0.882152 0.932968 0.741589 0.214821
C6    C     C_R   0.098323 0.081655 0.252638 0.233801
C7    C     C_R   0.876265 0.918123 0.661688 -0.042733
C8    C     C_R   0.111464 0.090083 0.333015 -0.042496
C9    C     C_R   0.818701 0.834811 0.586021 -0.049903
C10   C     C_R   0.175998 0.169123 0.411788 -0.061482
C11   C     C_R   0.762450 0.765794 0.590193 0.005432
C12   C     C_R   0.377698 0.380980 0.496188 0.595210
C13   C     C_R   0.233635 0.238985 0.409656 0.058223
C14   C     C_R   0.694959 0.687114 0.510004 0.013088
C15   C     C_R   0.305939 0.313030 0.490653 0.041732
C16   C     C_R   0.381842 0.500390 0.381215 0.576931
C17   C     C_R   0.618226 0.499567 0.618783 0.537024
C18   C     C_R   0.691627 0.675481 0.431185 -0.133360
C19   C     C_R   0.314517 0.319766 0.569803 -0.152768
C20   C     C_R   0.751869 0.740465 0.429298 -0.125906
C21   C     C_R   0.254108 0.254202 0.570936 -0.128201
C22   C     C_R   0.815269 0.819517 0.505765 0.020129
C23   C     C_R   0.240786 0.493088 0.318088 0.099081
C24   C     C_R   0.184810 0.179500 0.492967 0.013336
C25   C     C_R   0.998311 0.618928 0.116486 0.589800
C26   C     C_R   0.001840 0.381077 0.883689 0.591501
C27   C     C_R   0.118865 0.499842 0.118751 0.558477
C28   C     C_R   0.881198 0.500179 0.881318 0.555323
C29   C     C_R   0.005916 0.124724 0.619402 0.538971
C30   C     C_R   0.993844 0.875130 0.380520 0.539014
C31   C     C_R   0.881333 0.882709 0.501432 0.526279
C32   C     C_R   0.118675 0.116526 0.497725 0.528877
C33   C     C_R   0.905713 0.712407 0.072749 0.225922
C34   C     C_R   0.757602 0.502610 0.679733 0.083910
C35   C     C_R   0.098493 0.290936 0.927752 0.232619
C36   C     C_R   0.840247 0.734750 0.048324 0.095051
C37   C     C_R   0.165243 0.270102 0.951630 0.096004
C38   C     C_R   0.810075 0.759896 0.106083 0.267742
C39   C     C_R   0.194419 0.245075 0.892856 0.268526
C40   C     C_R   0.404832 0.522235 0.243621 -0.110542
C41   C     C_R   0.597718 0.482783 0.759517 -0.108303
C42   C     C_R   0.854773 0.777213 0.191093 -0.038654
C43   C     C_R   0.147606 0.226115 0.807569 -0.039938
C44   C     C_R   0.928424 0.767985 0.220659 -0.077187
C45   C     C_R   0.178068 0.496549 0.255810 0.076346
C46   C     C_R   0.072881 0.233751 0.778831 -0.074382
C47   C     C_R   0.943977 0.721807 0.157124 0.035452
C48   C     C_R   0.058095 0.280082 0.843006 0.039588
C49   C     C_R   0.997076 0.686400 0.180785 0.022749
C50   C     C_R   0.002990 0.313534 0.819391 0.023971
C51   C     C_R   0.041424 0.706119 0.266631 -0.122366
C52   C     C_R   0.955659 0.291230 0.733130 -0.121429
C53   C     C_R   0.038178 0.763960 0.332156 0.084059
C54   C     C_R   0.958476 0.233217 0.667356 0.085305
C55   C     C_R   0.984838 0.799930 0.310839 -0.005650
C56   C     C_R   0.820693 0.500178 0.742755 0.086389
C57   C     C_R   0.014365 0.199711 0.688725 -0.003858
C58   C     C_R   0.411218 0.519753 0.171315 -0.097108
C59   C     C_R   0.592783 0.487817 0.833093 -0.100764
C60   C     C_R   0.340555 0.503646 0.099121 0.261933
C61   C     C_R   0.663691 0.503748 0.904901 0.259479
C62   C     C_R   0.265647 0.494808 0.102485 -0.018966
C63   C     C_R   0.737301 0.509887 0.899946 -0.023306
C64   C     C_R   0.259105 0.500819 0.177027 -0.044483
C65   C     C_R   0.742393 0.501603 0.824278 -0.045623
C66   C     C_R   0.327277 0.508354 0.245676 -0.009704
C67   C     C_R   0.186019 0.498332 0.184261 -0.022497
C68   C     C_R   0.674144 0.494177 0.755827 0.002809
C69   C     C_R   0.316108 0.501313 0.314235 -0.000576
C70   C     C_R   0.683907 0.498262 0.685607 0.007315
C71   C     C_R   0.814144 0.501560 0.815753 -0.020765
C72   C     C_R   0.776801 0.779386 0.674544 0.239661
Cu1   Cu    Cu3+1 0.500020 0.438200 0.438210 1.048823
Cu2   Cu    Cu3+1 0.499980 0.561800 0.561790 1.066810
Cu3   Cu    Cu3+1 0.938190 0.438210 0.000010 1.074535
Cu4   Cu    Cu3+1 0.061810 0.561790 0.999990 1.075938
Cu5   Cu    Cu3+1 0.938200 0.000020 0.438210 1.045186
Cu6   Cu    Cu3+1 0.061800 0.999980 0.561790 1.045441
H1    H     H_    0.916106 0.973237 0.659279 0.167233
H2    H     H_    0.540578 0.469265 0.705705 0.131553
H3    H     H_    0.470926 0.529119 0.171240 0.107438
H4    H     H_    0.533929 0.480321 0.834337 0.108409
H5    H     H_    0.212268 0.480778 0.044643 0.175846
H6    H     H_    0.790845 0.523414 0.957327 0.174532
H7    H     H_    0.640950 0.616012 0.370069 0.131568
H8    H     H_    0.369168 0.375923 0.631493 0.122054
H9    H     H_    0.841247 0.872388 0.810671 0.158823
H10   H     H_    0.135822 0.148354 0.187037 0.121582
H11   H     H_    0.935512 0.015732 0.864500 0.339416
H12   H     H_    0.071123 0.033259 0.332843 0.171248
H13   H     H_    0.032833 0.007271 0.126491 0.342321
H14   H     H_    0.903638 0.679191 0.961376 0.347352
H15   H     H_    0.101243 0.322780 0.039371 0.345773
H16   H     H_    0.702072 0.738864 0.019439 0.355606
H17   H     H_    0.304393 0.268655 0.978643 0.357965
H18   H     H_    0.399542 0.503595 0.032200 0.331674
H19   H     H_    0.606913 0.507803 0.973946 0.331902
H20   H     H_    0.742116 0.662065 0.650301 0.333210
H21   H     H_    0.236101 0.289738 0.260510 0.342924
H22   H     H_    0.749140 0.728968 0.367749 0.129592
H23   H     H_    0.261036 0.262185 0.633137 0.136235
H24   H     H_    0.080230 0.676829 0.283028 0.158386
H25   H     H_    0.914747 0.318506 0.716625 0.158066
H26   H     H_    0.827676 0.793717 0.232050 0.175710
H27   H     H_    0.173544 0.209248 0.765493 0.174148
H28   H     H_    0.461592 0.535435 0.297667 0.132201
I1    I     I_    0.218212 0.469333 0.415081 -0.177617
I2    I     I_    0.777264 0.517531 0.577833 -0.229344
I3    I     I_    0.791126 0.738078 0.929254 -0.308624
I4    I     I_    0.217613 0.268318 0.071137 -0.388038
I5    I     I_    0.111365 0.783022 0.458131 -0.231295
I6    I     I_    0.879524 0.209585 0.540732 -0.227951
I7    I     I_    0.075047 0.506170 0.275278 -0.226104
I8    I     I_    0.922851 0.488066 0.723168 -0.222071
O1    O     O_R   0.590200 0.537990 0.447830 -0.517533
O2    O     O_R   0.409830 0.357640 0.447810 -0.468652
O3    O     O_R   0.409850 0.447820 0.357640 -0.486830
O4    O     O_R   0.590150 0.552180 0.642360 -0.484550
O5    O     O_R   0.409820 0.552200 0.462010 -0.488647
O6    O     O_R   0.590180 0.447800 0.537990 -0.493528
O7    O     O_R   0.947790 0.538000 0.090170 -0.510000
O8    O     O_R   0.052210 0.462000 0.909830 -0.509416
O9    O     O_R   0.052190 0.642370 0.090170 -0.458413
O10   O     O_R   0.947810 0.357630 0.909830 -0.460113
O11   O     O_R   0.037970 0.447810 0.090190 -0.458363
O12   O     O_R   0.409800 0.462010 0.552170 -0.515479
O13   O     O_R   0.962030 0.552190 0.909810 -0.458288
O14   O     O_R   0.142360 0.552180 0.090180 -0.531949
O15   O     O_R   0.857640 0.447820 0.909820 -0.531242
O16   O     O_R   0.947800 0.090190 0.538000 -0.468489
O17   O     O_R   0.052200 0.909810 0.462000 -0.468437
O18   O     O_3   0.938631 0.015990 0.812968 -0.663437
O19   O     O_3   0.034135 0.002824 0.177966 -0.659461
O20   O     O_3   0.937980 0.687458 0.019063 -0.678724
O21   O     O_3   0.066856 0.315503 0.982228 -0.680810
O22   O     O_3   0.739209 0.771534 0.083670 -0.664573
O23   O     O_R   0.052170 0.090160 0.642370 -0.531340
O24   O     O_3   0.266205 0.234890 0.914519 -0.664562
O25   O     O_3   0.342667 0.496653 0.024571 -0.688799
O26   O     O_3   0.662984 0.512971 0.980518 -0.689724
O27   O     O_3   0.743186 0.712808 0.690102 -0.641572
O28   O     O_3   0.258449 0.304979 0.322429 -0.663964
O29   O     O_R   0.947830 0.909840 0.357630 -0.533780
O30   O     O_R   0.857630 0.909850 0.447810 -0.509855
O31   O     O_R   0.142370 0.090150 0.552190 -0.510736
O32   O     O_R   0.962000 0.909820 0.552180 -0.496738
O33   O     O_R   0.038000 0.090180 0.447820 -0.499418
O34   O     O_R   0.590170 0.642360 0.552190 -0.471874

loop_
_geom_bond_atom_site_label_1
_geom_bond_atom_site_label_2
_ccdc_geom_bond_type
C62   H5    S    
C63   C65   A    
C52   H25   S    
C34   C56   A    
C23   C45   A    
Cu1   Cu2   S    
C14   C18   A    
H21   O28   S    
C59   H4    S    
Cu6   O17   S    
C19   H8    S    
H18   O25   S    
Cu5   O29   S    
C47   C49   A    
C32   O33   A    
Cu5   Cu6   S    
C51   H24   S    
C15   C19   A    
Cu2   O5    S    
H11   O18   S    
C42   C44   A    
Cu2   O34   S    
C19   C21   A    
C38   C42   A    
C6    O19   S    
C26   C50   S    
C11   C14   A    
C9    C22   A    
C66   C69   A    
C12   O12   A    
C58   C60   A    
C30   O17   A    
C33   C36   A    
C60   C62   A    
C28   O15   A    
C43   H27   S    
C31   O30   A    
C61   C63   A    
C2    C13   A    
C23   C69   A    
C62   C64   A    
Cu6   O31   S    
C31   O32   A    
C33   O20   S    
C5    O18   S    
C49   C51   A    
H13   O19   S    
C45   C67   A    
H16   O22   S    
C38   O22   S    
C34   C70   A    
H19   O26   S    
C17   O6    A    
C44   C47   A    
C21   H23   S    
C65   C68   A    
C48   C50   A    
C39   O24   S    
C17   C70   S    
C25   O9    A    
Cu1   O6    S    
C40   C66   A    
C26   O10   A    
C41   H2    S    
C35   C48   A    
C52   C54   A    
C41   C68   A    
C53   C55   A    
C72   O27   S    
Cu2   O4    S    
C46   C48   A    
C59   C61   A    
C18   H7    S    
C40   C58   A    
C22   C31   S    
C3    H9    S    
Cu3   O10   S    
C64   C67   A    
Cu1   O3    S    
C41   C59   A    
C4    C6    A    
C58   H3    S    
C35   O21   S    
C5    C7    A    
C11   C72   A    
C39   C43   A    
C32   O31   A    
C10   C24   A    
C65   C71   A    
C30   O29   A    
Cu3   O11   S    
C64   C66   A    
C2    C4    A    
Cu3   Cu4   S    
C24   C32   S    
C9    C11   A    
C27   O14   A    
C50   C52   A    
C29   O16   A    
C20   H22   S    
C12   C15   S    
C56   C71   A    
C23   I1    S    
C54   I6    S    
Cu1   O2    S    
C37   I4    S    
C17   O4    A    
C68   C70   A    
C29   C57   S    
C13   C15   A    
H20   O27   S    
Cu4   O14   S    
C16   O5    A    
C28   C71   S    
C8    H12   S    
Cu6   O23   S    
C40   H28   S    
C7    C9    A    
Cu5   O33   S    
H17   O24   S    
C35   C37   A    
Cu3   O7    S    
Cu4   O9    S    
H14   O20   S    
C16   C69   S    
C20   C22   A    
C3    C5    A    
C10   C13   A    
C42   H26   S    
C6    C8    A    
C28   O13   A    
C61   O26   S    
H15   O21   S    
C4    H10   S    
C29   O23   A    
C30   C55   S    
Cu1   O1    S    
C63   H6    S    
Cu4   O8    S    
C36   C38   A    
C3    C72   A    
Cu5   O30   S    
C34   I2    S    
C46   C57   A    
C16   O3    A    
C27   O11   A    
C44   C55   A    
C53   I5    S    
Cu2   O12   S    
C2    O28   S    
C26   O8    A    
C33   C47   A    
C18   C20   A    
Cu5   O16   S    
C43   C46   A    
C25   C49   S    
C27   C67   S    
Cu6   O32   S    
C60   O25   S    
C45   I7    S    
C37   C39   A    
C7    H1    S    
C8    C10   A    
C21   C24   A    
C36   I3    S    
Cu4   O13   S    
C56   I8    S    
C1    O34   A    
C1    C14   S    
C1    O1    A    
C51   C53   A    
C25   O7    A    
Cu3   O15   S    
C12   O2    A    
C54   C57   A    
