data_mof_unit_47626.cif
_audit_creation_date              2012-10-26T17:10:23-0400
_audit_creation_method            fapswitch 2.2
_symmetry_space_group_name_H-M    P1
_symmetry_Int_Tables_number       1
_space_group_crystal_system       triclinic
_cell_length_a                    16.856829
_cell_length_b                    16.858097
_cell_length_c                    16.861509
_cell_angle_alpha                 67.502608
_cell_angle_beta                  67.501514
_cell_angle_gamma                 67.516256
_cell_volume                      3930.57761092

loop_
_atom_site_label
_atom_site_type_symbol
_atom_type_description
_atom_site_fract_x
_atom_site_fract_y
_atom_site_fract_z
_atom_type_partial_charge
C1    C     C_R   0.596042 0.021038 0.596985 0.213964
C2    C     C_R   0.405445 0.971059 0.406080 0.231314
C3    C     C_R   0.030413 0.594053 0.593762 0.200284
C4    C     C_R   0.979812 0.403559 0.403052 0.215878
C5    C     C_R   0.595570 0.595250 0.024612 0.241705
C6    C     C_R   0.405687 0.404835 0.972999 0.237767
C7    C     C_R   0.023931 0.829521 0.566400 0.816392
C8    C     C_R   0.976979 0.170359 0.433264 0.808928
C9    C     C_R   0.829684 0.566761 0.022968 0.809667
C10   C     C_R   0.170432 0.433378 0.976744 0.814486
C11   C     C_R   0.566549 0.023445 0.829635 0.812782
C12   C     C_R   0.433442 0.976403 0.170490 0.811639
C13   C     C_R   0.433383 0.170381 0.976587 0.808488
C14   C     C_R   0.566657 0.829619 0.023143 0.816433
C15   C     C_R   0.977115 0.433238 0.170272 0.813978
C16   C     C_R   0.023172 0.566732 0.829623 0.812862
C17   C     C_R   0.170378 0.976540 0.433412 0.815694
C18   C     C_R   0.829768 0.022356 0.566975 0.811306
C19   C     C_R   0.546954 0.009157 0.547818 -0.266770
C20   C     C_R   0.454319 0.983558 0.455214 -0.265638
C21   C     C_R   0.019961 0.543872 0.544649 -0.265967
C22   C     C_R   0.993559 0.451959 0.451815 -0.264688
C23   C     C_R   0.547465 0.545651 0.011963 -0.281988
C24   C     C_R   0.455763 0.452839 0.985174 -0.284567
C25   C     C_R   0.475043 0.078761 0.520377 0.370946
C26   C     C_R   0.528058 0.915105 0.479785 0.353977
C27   C     C_R   0.087972 0.520275 0.469825 0.367038
C28   C     C_R   0.926864 0.473036 0.528069 0.363292
C29   C     C_R   0.545585 0.557626 0.925158 0.369713
C30   C     C_R   0.459563 0.439194 0.071674 0.392647
C31   C     C_R   0.426954 0.064787 0.477078 0.364177
C32   C     C_R   0.570197 0.926004 0.531574 0.330600
C33   C     C_R   0.499990 0.511373 0.911544 0.366383
C34   C     C_R   0.504911 0.485664 0.085346 0.373834
C35   C     C_R   0.073678 0.476551 0.422196 0.351860
C36   C     C_R   0.938278 0.523721 0.570855 0.344642
C37   C     C_R   0.555430 0.025992 0.685095 -0.147186
C38   C     C_R   0.445279 0.969552 0.316695 -0.189396
C39   C     C_R   0.032579 0.683135 0.553789 -0.157589
C40   C     C_R   0.976202 0.314835 0.443381 -0.176502
C41   C     C_R   0.684953 0.555937 0.025686 -0.233137
C42   C     C_R   0.316315 0.444843 0.971748 -0.114955
C43   C     C_R   0.315944 0.970327 0.445337 -0.125243
C44   C     C_R   0.685612 0.021680 0.557445 -0.179384
C45   C     C_R   0.445060 0.315661 0.971193 -0.224809
C46   C     C_R   0.555557 0.684404 0.026452 -0.115083
C47   C     C_R   0.976970 0.443492 0.314207 -0.126883
C48   C     C_R   0.029547 0.555099 0.683763 -0.167673
C49   C     C_R   0.604505 0.030262 0.734001 -0.090059
C50   C     C_R   0.395740 0.967960 0.266657 -0.082172
C51   C     C_R   0.032720 0.733393 0.603923 -0.089714
C52   C     C_R   0.970477 0.266068 0.395069 -0.083366
C53   C     C_R   0.733966 0.604840 0.029892 -0.073493
C54   C     C_R   0.266439 0.395590 0.969101 -0.097121
C55   C     C_R   0.266340 0.968343 0.395698 -0.099794
C56   C     C_R   0.734233 0.028169 0.605416 -0.083039
C57   C     C_R   0.395501 0.266245 0.968870 -0.075073
C58   C     C_R   0.604568 0.733796 0.030234 -0.097022
C59   C     C_R   0.970877 0.395071 0.265786 -0.096625
C60   C     C_R   0.031248 0.604619 0.733616 -0.087306
C61   C     C_R   0.692867 0.033418 0.693063 -0.233654
C62   C     C_R   0.307142 0.965562 0.307235 -0.224260
C63   C     C_R   0.034083 0.693060 0.692845 -0.227032
C64   C     C_R   0.966163 0.307221 0.307124 -0.235894
C65   C     C_R   0.692849 0.692947 0.033704 -0.229072
C66   C     C_R   0.307039 0.307116 0.966212 -0.228241
Cu1   Cu    Cu3+1 0.995180 0.995180 0.424630 0.945434
Cu2   Cu    Cu3+1 0.004820 0.004820 0.575370 0.947192
Cu3   Cu    Cu3+1 0.995180 0.424630 0.995180 0.934359
Cu4   Cu    Cu3+1 0.004820 0.575370 0.004820 0.960348
Cu5   Cu    Cu3+1 0.424630 0.995180 0.995180 0.957655
Cu6   Cu    Cu3+1 0.575370 0.004820 0.004820 0.923481
H1    H     H_    0.486936 0.022744 0.716230 0.157785
H2    H     H_    0.513339 0.973976 0.285306 0.138053
H3    H     H_    0.030170 0.713911 0.485047 0.163208
H4    H     H_    0.981869 0.282952 0.510979 0.146532
H5    H     H_    0.716555 0.487974 0.020868 0.136523
H6    H     H_    0.285290 0.513053 0.975868 0.156018
H7    H     H_    0.284627 0.974113 0.513638 0.164099
H8    H     H_    0.717295 0.015836 0.489834 0.148556
H9    H     H_    0.513707 0.284517 0.973817 0.135514
H10   H     H_    0.487381 0.715563 0.022228 0.154474
H11   H     H_    0.981842 0.511437 0.282549 0.167095
H12   H     H_    0.025548 0.486841 0.715009 0.154400
H13   H     H_    0.730742 0.036334 0.730798 0.177944
H14   H     H_    0.268557 0.965483 0.268580 0.182417
H15   H     H_    0.033521 0.731856 0.731638 0.181334
H16   H     H_    0.962888 0.269490 0.269461 0.178527
H17   H     H_    0.730931 0.731100 0.035579 0.178512
H18   H     H_    0.268479 0.268724 0.965590 0.180162
O1    O     O_R   0.124540 0.978640 0.385460 -0.585513
O2    O     O_R   0.875460 0.021360 0.614540 -0.589784
O3    O     O_R   0.978640 0.385460 0.124540 -0.591224
O4    O     O_R   0.021360 0.614540 0.875460 -0.586896
O5    O     O_R   0.385460 0.124540 0.978640 -0.585869
O6    O     O_R   0.614540 0.875460 0.021360 -0.588289
O7    O     O_R   0.614540 0.021360 0.875460 -0.590252
O8    O     O_R   0.385460 0.978640 0.124540 -0.584260
O9    O     O_R   0.875460 0.614540 0.021360 -0.589210
O10   O     O_R   0.124540 0.385460 0.978640 -0.588831
O11   O     O_R   0.021360 0.875460 0.614540 -0.587438
O12   O     O_R   0.978640 0.124540 0.385460 -0.590551
O13   O     O_R   0.013780 0.867370 0.487190 -0.588562
O14   O     O_R   0.986220 0.132630 0.512810 -0.592013
O15   O     O_R   0.867370 0.487190 0.013780 -0.595880
O16   O     O_R   0.132630 0.512810 0.986220 -0.583619
O17   O     O_R   0.487190 0.013780 0.867370 -0.588412
O18   O     O_R   0.512810 0.986220 0.132630 -0.597911
O19   O     O_R   0.512810 0.132630 0.986220 -0.599320
O20   O     O_R   0.487190 0.867370 0.013780 -0.586618
O21   O     O_R   0.986220 0.512810 0.132630 -0.585611
O22   O     O_R   0.013780 0.487190 0.867370 -0.591964
O23   O     O_R   0.132630 0.986220 0.512810 -0.587571
O24   O     O_R   0.867370 0.013780 0.487190 -0.593545
O25   O     O_3   0.631962 0.854286 0.569577 -0.587948
C67   C     C_3   0.584863 0.805687 0.651196 -0.212990
H19   H     H_    0.549727 0.769108 0.639288 0.206168
H20   H     H_    0.536660 0.849116 0.695030 0.151122
H21   H     H_    0.633013 0.755770 0.688303 0.185743
O26   O     O_3   0.349597 0.129157 0.461080 -0.539120
C68   C     C_3   0.367242 0.180579 0.370963 -0.308609
H22   H     H_    0.374217 0.244942 0.366777 0.182322
H23   H     H_    0.309368 0.195252 0.346438 0.178481
H24   H     H_    0.427683 0.147394 0.324966 0.121793
O27   O     O_3   0.868015 0.557302 0.636366 -0.587139
C69   C     C_3   0.817576 0.641335 0.594899 -0.259383
H25   H     H_    0.768709 0.632549 0.571815 0.197670
H26   H     H_    0.859247 0.682697 0.538166 0.150862
H27   H     H_    0.780438 0.679771 0.644737 0.178748
O28   O     O_3   0.135602 0.464194 0.342482 -0.532509
C70   C     C_3   0.196311 0.378790 0.359459 -0.212092
H28   H     H_    0.236938 0.373797 0.400611 0.172082
H29   H     H_    0.242866 0.367864 0.294672 0.208002
H30   H     H_    0.162074 0.324872 0.392021 0.137013
O29   O     O_3   0.499498 0.478237 0.171789 -0.519373
C71   C     C_3   0.577009 0.415631 0.195219 -0.287823
H31   H     H_    0.615775 0.368472 0.152959 0.111167
H32   H     H_    0.556693 0.374891 0.265173 0.169966
H33   H     H_    0.621231 0.451471 0.193091 0.178127
O30   O     O_3   0.494150 0.529022 0.826479 -0.529031
C72   C     C_3   0.559065 0.461838 0.786963 -0.278672
H34   H     H_    0.623072 0.437200 0.805131 0.115435
H35   H     H_    0.574909 0.489919 0.713317 0.196976
H36   H     H_    0.532049 0.404939 0.804471 0.165572
O31   O     O_3   0.550969 0.834054 0.462364 -0.548511
C73   C     C_3   0.636413 0.820142 0.400715 -0.253622
H37   H     H_    0.689792 0.798674 0.433806 0.195103
H38   H     H_    0.643693 0.880286 0.342849 0.120385
H39   H     H_    0.646199 0.765408 0.373840 0.182214
O32   O     O_3   0.446694 0.158758 0.541297 -0.532755
C74   C     C_3   0.499795 0.214663 0.476432 -0.293812
H40   H     H_    0.467581 0.283279 0.484141 0.186498
H41   H     H_    0.506162 0.218494 0.406929 0.127162
H42   H     H_    0.567188 0.192447 0.486459 0.159143
O33   O     O_3   0.414368 0.383537 0.144121 -0.529228
C75   C     C_3   0.473135 0.296783 0.163167 -0.320370
H43   H     H_    0.490202 0.283770 0.225130 0.166643
H44   H     H_    0.536632 0.283977 0.109274 0.119098
H45   H     H_    0.438170 0.247766 0.174712 0.175877
O34   O     O_3   0.584512 0.618754 0.853453 -0.555804
C76   C     C_3   0.675354 0.576662 0.817986 -0.271987
H46   H     H_    0.683770 0.567072 0.753432 0.198630
H47   H     H_    0.703700 0.510915 0.862161 0.124026
H48   H     H_    0.715646 0.621413 0.804989 0.188628
O35   O     O_3   0.846329 0.453845 0.552685 -0.550921
C77   C     C_3   0.834285 0.391504 0.637882 -0.284101
H49   H     H_    0.809408 0.424979 0.691519 0.192425
H50   H     H_    0.896214 0.336194 0.645483 0.131256
H51   H     H_    0.782544 0.360928 0.647011 0.170813
O36   O     O_3   0.166227 0.545449 0.437618 -0.526275
C78   C     C_3   0.221990 0.491705 0.494517 -0.260842
H52   H     H_    0.292466 0.486879 0.454184 0.195881
H53   H     H_    0.215768 0.422117 0.526521 0.129144
H54   H     H_    0.208741 0.523528 0.546685 0.169981

loop_
_geom_bond_atom_site_label_1
_geom_bond_atom_site_label_2
_ccdc_geom_bond_type
C25   C31   A    
C39   C51   A    
C78   H52   S    
C55   C62   A    
C26   C32   A    
C69   H25   S    
C6    C45   A    
Cu5   O17   S    
C16   O4    A    
C36   O27   S    
C17   O1    A    
C57   C66   A    
C70   H30   S    
C18   O24   A    
O31   C73   S    
Cu1   O13   S    
O29   C71   S    
C66   H18   S    
C21   C36   A    
O26   C68   S    
C65   H17   S    
C22   C35   A    
C78   H53   S    
C45   C57   A    
C59   C64   A    
O35   C77   S    
C13   O5    A    
C60   C63   A    
C23   C29   A    
C75   H43   S    
Cu4   O4    S    
Cu1   O24   S    
Cu3   O3    S    
C72   H35   S    
C41   H5    S    
Cu3   O22   S    
Cu5   O5    S    
O36   C78   S    
C33   O30   S    
C9    O15   A    
O25   C67   S    
Cu5   O20   S    
C29   C33   A    
C3    C48   A    
C4    C22   S    
C67   H19   S    
C16   C60   S    
C74   H42   S    
C44   C56   A    
C68   H24   S    
C13   O19   A    
C1    C44   A    
C46   H10   S    
C4    C40   A    
C74   H40   S    
C5    C41   A    
C39   H3    S    
Cu6   O19   S    
C53   C65   A    
C8    C52   S    
C12   O8    A    
C1    C37   A    
Cu2   O23   S    
C21   C27   A    
C3    C39   A    
C9    O9    A    
C7    O13   A    
C46   C58   A    
C77   H50   S    
C71   H33   S    
C10   C54   S    
C19   C32   A    
C14   O6    A    
C76   H47   S    
C48   C60   A    
C29   O34   S    
C73   H38   S    
Cu6   O7    S    
C14   C58   S    
C78   H54   S    
C1    C19   S    
C49   C61   A    
C30   C34   A    
C17   O23   A    
Cu1   Cu2   S    
C20   C31   A    
C15   O21   A    
C44   H8    S    
C51   C63   A    
O30   C72   S    
C71   H32   S    
C52   C64   A    
C72   H36   S    
C12   O18   A    
Cu3   O15   S    
C69   H27   S    
C27   C35   A    
C40   C52   A    
C2    C20   S    
C48   H12   S    
C25   O32   S    
C8    O12   A    
C26   O31   S    
C11   C49   S    
C73   H39   S    
C37   C49   A    
C2    C38   A    
C58   C65   A    
C5    C23   S    
C16   O22   A    
C2    C43   A    
C23   C34   A    
C6    C24   S    
Cu1   O1    S    
Cu2   O11   S    
C10   O10   A    
C8    O14   A    
C35   O28   S    
C41   C53   A    
C68   H22   S    
C61   H13   S    
C28   O35   S    
C54   C66   A    
C43   C55   A    
C30   O33   S    
C42   H6    S    
C47   H11   S    
Cu4   O16   S    
C77   H49   S    
C50   C62   A    
C10   O16   A    
C9    C53   S    
C70   H28   S    
C76   H48   S    
Cu4   O9    S    
C62   H14   S    
C73   H37   S    
C38   H2    S    
C14   O20   A    
C37   H1    S    
Cu5   O8    S    
C69   H26   S    
C63   H15   S    
C56   C61   A    
C15   C59   S    
C75   H45   S    
C45   H9    S    
Cu2   O14   S    
C71   H31   S    
C70   H29   S    
C15   O3    A    
C12   C50   S    
C38   C50   A    
C18   C56   S    
C5    C46   A    
C27   O36   S    
C24   C33   A    
C67   H21   S    
C11   O7    A    
C18   O2    A    
O34   C76   S    
C75   H44   S    
O28   C70   S    
C7    C51   S    
Cu5   Cu6   S    
C76   H46   S    
C72   H34   S    
C42   C54   A    
C11   O17   A    
O27   C69   S    
C20   C26   A    
C34   O29   S    
C17   C55   S    
Cu2   O2    S    
C67   H20   S    
C74   H41   S    
C32   O25   S    
Cu6   O18   S    
Cu3   Cu4   S    
C19   C25   A    
C24   C30   A    
C31   O26   S    
C68   H23   S    
C3    C21   S    
Cu4   O21   S    
C47   C59   A    
Cu6   O6    S    
Cu3   O10   S    
C40   H4    S    
C13   C57   S    
C28   C36   A    
C77   H51   S    
C6    C42   A    
O33   C75   S    
O32   C74   S    
C4    C47   A    
C22   C28   A    
C43   H7    S    
C64   H16   S    
Cu1   O12   S    
C7    O11   A    
