data_mof_unit_29005.cif
_audit_creation_date              2013-03-05T16:04:12-0500
_audit_creation_method            fapswitch 2.2
_symmetry_space_group_name_H-M    P1
_symmetry_Int_Tables_number       1
_space_group_crystal_system       triclinic
_cell_length_a                    19.509111
_cell_length_b                    6.932972
_cell_length_c                    17.709063
_cell_angle_alpha                 90.000091
_cell_angle_beta                  109.031912
_cell_angle_gamma                 89.999573
_cell_volume                      2264.32733775

loop_
_atom_site_label
_atom_site_type_symbol
_atom_site_description
_atom_site_fract_x
_atom_site_fract_y
_atom_site_fract_z
_atom_type_partial_charge
O1    O     O_R   0.561710 0.369960 0.440200 -0.601333
O2    O     O_R   0.061710 0.630040 0.940200 -0.601329
O3    O     O_R   0.412630 0.033330 0.406330 -0.599355
O4    O     O_R   0.912630 0.966670 0.906330 -0.599356
O5    O     O_R   0.438290 0.869790 0.559800 -0.591891
O6    O     O_R   0.938290 0.130210 0.059800 -0.591893
C1    C     C_R   0.384546 0.203045 0.383624 0.942777
C2    C     C_R   0.884546 0.796956 0.883624 0.942781
O7    O     O_R   0.559570 0.039810 0.430640 -0.607237
O8    O     O_R   0.059570 0.960190 0.930640 -0.607234
O9    O     O_R   0.586280 0.876320 0.584290 -0.567677
O10   O     O_R   0.086280 0.123680 0.084290 -0.567671
C3    C     C_R   0.581131 0.209009 0.415633 0.907352
C4    C     C_R   0.081132 0.790990 0.915633 0.907343
O11   O     O_R   0.413720 0.363440 0.415710 -0.597146
O12   O     O_R   0.913720 0.636560 0.915710 -0.597143
O13   O     O_3   0.508590 0.205630 0.550380 -0.237356
O14   O     O_3   0.008590 0.794370 0.050380 -0.237368
V1    V     V_3+5 0.498410 0.928130 0.490650 1.171993
V2    V     V_3+5 0.998410 0.071870 0.990650 1.171991
O15   O     O_R   0.587370 0.546990 0.593670 -0.594398
O16   O     O_R   0.087370 0.453010 0.093670 -0.594409
C5    C     C_R   0.615579 0.716790 0.616473 0.964134
C6    C     C_R   0.115579 0.283210 0.116473 0.964133
O17   O     O_R   0.440430 0.540520 0.569360 -0.590958
O18   O     O_R   0.940430 0.459480 0.069360 -0.590975
C7    C     C_R   0.419003 0.709296 0.584572 0.948867
C8    C     C_R   0.919004 0.290704 0.084573 0.948886
V3    V     V_3+5 0.501590 0.428960 0.509350 1.187450
V4    V     V_3+5 0.001590 0.571040 0.009350 1.187436
O19   O     O_3   0.491410 0.701330 0.449620 -0.288506
O20   O     O_3   0.991410 0.298670 0.949620 -0.288505
C9    C     C_R   0.314046 0.906681 0.714859 -0.141178
C10   C     C_R   0.813996 0.093279 0.214798 -0.141150
H1    H     H_    0.309604 0.043223 0.742525 0.105313
H2    H     H_    0.809516 0.956694 0.242415 0.105260
C11   C     C_R   0.360468 0.895334 0.669121 -0.115941
C12   C     C_R   0.860417 0.104624 0.169060 -0.115926
H3    H     H_    0.389343 0.023940 0.662090 0.143915
H4    H     H_    0.889249 0.975976 0.161979 0.143865
C13   C     C_R   0.370254 0.720129 0.633880 -0.138589
C14   C     C_R   0.870256 0.279873 0.133882 -0.138592
C15   C     C_R   0.332098 0.556679 0.645240 -0.121303
C16   C     C_R   0.832154 0.443370 0.145307 -0.121283
H5    H     H_    0.337803 0.419830 0.618365 0.126257
H6    H     H_    0.837902 0.580260 0.118485 0.126252
C17   C     C_R   0.284779 0.568626 0.689975 -0.129591
C18   C     C_R   0.784834 0.431428 0.190040 -0.129588
H7    H     H_    0.254942 0.440589 0.695284 0.100005
H8    H     H_    0.755042 0.559511 0.195396 0.099959
C19   C     C_R   0.275091 0.743783 0.725742 0.105207
C20   C     C_R   0.775092 0.256225 0.225743 0.105236
C21   C     C_R   0.214675 0.596894 0.818645 -0.146704
C22   C     C_R   0.714679 0.403099 0.318656 -0.146697
H9    H     H_    0.243813 0.463465 0.819888 0.105315
H10   H     H_    0.743821 0.536520 0.319911 0.105314
C23   C     C_R   0.167683 0.608042 0.863683 -0.153973
C24   C     C_R   0.667686 0.391949 0.363692 -0.153981
H11   H     H_    0.161536 0.482227 0.897174 0.126317
H12   H     H_    0.661544 0.517754 0.397190 0.126321
C25   C     C_R   0.130234 0.779783 0.866670 -0.126440
C26   C     C_R   0.630231 0.220218 0.366669 -0.126432
C27   C     C_R   0.140695 0.939874 0.822918 -0.160072
C28   C     C_R   0.640683 0.060140 0.322907 -0.160084
H13   H     H_    0.112487 0.074159 0.823467 0.130112
H14   H     H_    0.612469 0.925863 0.323448 0.130114
C29   C     C_R   0.186932 0.927936 0.776869 -0.139906
C30   C     C_R   0.686919 0.072083 0.276857 -0.139892
H15   H     H_    0.191980 0.053056 0.742522 0.103996
H16   H     H_    0.691957 0.946973 0.242501 0.103994
C31   C     C_R   0.224938 0.756371 0.774208 0.115402
C32   C     C_R   0.724935 0.243636 0.274208 0.115403
C33   C     C_R   0.766010 0.630363 0.813712 0.160465
C34   C     C_R   0.266001 0.369635 0.313724 0.160470
C35   C     C_R   0.814289 0.783455 0.817867 -0.204462
C36   C     C_R   0.314288 0.216546 0.317868 -0.204475
C37   C     C_R   0.792270 0.924890 0.757757 -0.177832
C38   C     C_R   0.292271 0.075108 0.257757 -0.177817
H17   H     H_    0.826611 0.048005 0.758772 0.123031
H18   H     H_    0.326612 0.951989 0.258772 0.123028
C39   C     C_R   0.727975 0.901440 0.692365 -0.057332
C40   C     C_R   0.227976 0.098559 0.192364 -0.057307
H19   H     H_    0.714666 0.008932 0.645464 0.117174
H20   H     H_    0.214669 0.991061 0.145464 0.117167
C41   C     C_R   0.683281 0.737025 0.685495 -0.264657
C42   C     C_R   0.183281 0.262973 0.185496 -0.264679
C43   C     C_R   0.701842 0.609252 0.750025 0.115512
C44   C     C_R   0.201831 0.390741 0.250037 0.115569
C45   C     C_3   0.707753 0.394708 0.752664 0.183409
C46   C     C_3   0.207749 0.605290 0.252660 0.183368
C47   C     C_3   0.778194 0.417641 0.822463 -0.590004
C48   C     C_3   0.278194 0.582364 0.322453 -0.589995
H21   H     H_    0.714749 0.332046 0.697853 0.055159
H22   H     H_    0.214739 0.667932 0.197842 0.055172
H23   H     H_    0.826957 0.372228 0.807710 0.181837
H24   H     H_    0.326955 0.627751 0.307689 0.181828
H25   H     H_    0.775921 0.363190 0.880648 0.225457
H26   H     H_    0.275929 0.636859 0.380638 0.225450
N1    N     N_R   0.649486 0.305004 0.775519 0.262311
O21   O     O_R   0.632995 0.367350 0.836802 -0.385024
O22   O     O_R   0.611375 0.166717 0.732103 -0.379874
N2    N     N_R   0.149491 0.695023 0.275524 0.262315
O23   O     O_R   0.132999 0.632684 0.336807 -0.385022
O24   O     O_R   0.111392 0.833333 0.232118 -0.379875

loop_
_geom_bond_atom_site_label_1
_geom_bond_atom_site_label_2
_geom_bond_distance
_ccdc_geom_bond_type
C24   C26   1.406919 A    
V4    O20   2.141750 S    
C27   H13   1.083134 S    
O11   V3    2.010209 S    
O6    C8    1.296059 A    
O13   V3    1.696834 S    
O4    C2    1.304852 A    
V1    O19   1.718813 S    
C48   H26   1.111799 S    
C17   H7    1.082285 S    
O9    V1    1.990882 S    
C19   C31   1.499788 S    
C45   N1    1.463839 S    
C28   C30   1.401893 A    
C36   C38   1.407493 A    
C12   C14   1.406817 A    
O3    C1    1.304852 A    
V2    O20   1.718814 S    
C38   H18   1.081617 S    
C23   H11   1.083231 S    
O12   V4    2.010204 S    
C48   H24   1.111090 S    
C42   C44   1.397218 A    
O9    C5    1.289321 A    
C25   C27   1.406063 A    
C7    C13   1.488038 S    
C46   N2    1.463849 S    
O7    C3    1.302514 A    
O13   V1    2.173174 S    
O5    C7    1.296062 A    
O7    V1    1.994881 S    
C33   C43   1.392749 A    
C3    C26   1.489009 S    
O8    V2    1.994873 S    
C26   C28   1.406038 A    
O3    V1    1.983048 S    
O14   V4    1.696835 S    
C45   C47   1.527693 S    
C13   C15   1.405837 A    
C29   C31   1.410511 A    
C37   H17   1.081595 S    
C34   C48   1.493880 S    
C2    O12   1.293239 A    
C11   C13   1.406804 A    
C33   C35   1.404969 A    
C14   C16   1.405848 A    
C39   H19   1.082590 S    
C16   H6    1.083348 S    
C46   H22   1.111731 S    
C24   H12   1.083220 S    
C27   C29   1.401902 A    
C21   H9    1.082217 S    
O17   V3    1.994549 S    
C22   H10   1.082187 S    
C41   C43   1.397103 A    
C33   C47   1.493823 S    
O8    C4    1.302518 A    
C21   C23   1.399803 A    
C17   C19   1.410545 A    
C1    O11   1.293241 A    
C40   C42   1.416074 A    
C4    C25   1.489031 S    
O15   V3    2.017467 S    
C2    C35   1.484088 S    
C9    C11   1.400306 A    
C9    C19   1.409158 A    
C29   H15   1.082225 S    
C28   H14   1.083133 S    
C20   C32   1.499815 S    
C15   H5    1.083333 S    
C38   C40   1.411909 A    
C46   C48   1.527683 S    
N1    O21   1.302241 A    
C37   C39   1.411918 A    
C30   C32   1.410518 A    
O10   V2    1.990885 S    
O1    V3    1.994823 S    
C47   H25   1.111768 S    
N2    O24   1.300076 A    
C35   C37   1.407464 A    
C34   C36   1.405057 A    
C30   H16   1.082207 S    
N1    O22   1.300123 A    
C44   C46   1.491492 S    
O18   V4    1.994560 S    
C40   H20   1.082604 S    
O15   C5    1.306460 A    
O16   C6    1.306460 A    
O1    C3    1.298269 A    
C21   C31   1.408746 A    
C22   C24   1.399789 A    
O16   V4    2.017459 S    
C10   C12   1.400297 A    
C10   C20   1.409184 A    
C23   C25   1.406938 A    
C1    C36   1.484092 S    
O5    V1    1.993893 S    
O17   C7    1.299971 A    
O6    V2    1.993890 S    
O10   C6    1.289323 A    
O18   C8    1.299970 A    
O2    V4    1.994826 S    
C43   C45   1.491449 S    
C11   H3    1.083323 S    
C12   H4    1.083338 S    
C15   C17   1.401299 A    
C18   H8    1.082276 S    
C9    H1    1.082306 S    
C10   H2    1.082315 S    
O14   V2    2.173174 S    
C45   H21   1.111717 S    
N2    O23   1.302247 A    
O2    C4    1.298278 A    
C47   H23   1.111075 S    
O4    V2    1.983057 S    
C18   C20   1.410571 A    
C22   C32   1.408740 A    
V3    O19   2.141751 S    
C5    C41   1.485043 S    
C34   C44   1.392773 A    
C6    C42   1.485048 S    
C39   C41   1.416060 A    
C16   C18   1.401287 A    
C8    C14   1.488036 S    
