data_mof_unit_30170.cif
_audit_creation_date              2012-12-10T17:46:31-0500
_audit_creation_method            fapswitch 2.2
_symmetry_space_group_name_H-M    P1
_symmetry_Int_Tables_number       1
_space_group_crystal_system       triclinic
_cell_length_a                    20.791013
_cell_length_b                    21.586499
_cell_length_c                    14.79677
_cell_angle_alpha                 89.999941
_cell_angle_beta                  129.70886
_cell_angle_gamma                 90.000117
_cell_volume                      5108.82412458

loop_
_atom_site_label
_atom_site_type_symbol
_atom_type_description
_atom_site_fract_x
_atom_site_fract_y
_atom_site_fract_z
_atom_type_partial_charge
C1    C     C_R   0.604464 0.915156 0.633760 0.810736
C2    C     C_R   0.396846 0.085999 0.368363 0.806840
C3    C     C_R   0.395536 0.915156 0.366240 0.810735
C4    C     C_R   0.603153 0.086000 0.631636 0.806839
C5    C     C_R   0.104463 0.415156 0.633760 0.810736
C6    C     C_R   0.896846 0.585999 0.368364 0.806840
C7    C     C_R   0.895536 0.415156 0.366240 0.810736
C8    C     C_R   0.103154 0.585999 0.631636 0.806839
C9    C     C_R   0.349694 0.760415 0.953546 -0.238306
C10   C     C_R   0.622645 0.276659 0.988717 -0.233634
C11   C     C_R   0.650302 0.760411 0.046449 -0.238303
C12   C     C_R   0.377351 0.276659 0.011283 -0.233636
C13   C     C_R   0.849681 0.260430 0.953522 -0.238268
C14   C     C_R   0.122647 0.776660 0.988716 -0.233637
C15   C     C_R   0.150300 0.260409 0.046444 -0.238307
C16   C     C_R   0.877353 0.776661 0.011285 -0.233637
C17   C     C_R   0.319182 0.981256 0.655807 -0.303578
C18   C     C_R   0.680817 0.981254 0.344192 -0.303576
C19   C     C_R   0.819182 0.481253 0.655805 -0.303561
C20   C     C_R   0.180816 0.481252 0.344191 -0.303575
C21   C     C_R   0.350213 0.992170 0.597163 0.001250
C22   C     C_R   0.649787 0.992169 0.402837 0.001248
C23   C     C_R   0.850213 0.492167 0.597162 0.001248
C24   C     C_R   0.149786 0.492167 0.402836 0.001249
C25   C     C_R   0.488813 0.997761 0.779473 0.407105
C26   C     C_R   0.511187 0.997761 0.220527 0.407104
C27   C     C_R   0.988813 0.497761 0.779473 0.407103
C28   C     C_R   0.011186 0.497762 0.220527 0.407107
C29   C     C_R   0.461193 0.981284 0.843803 -0.073495
C30   C     C_R   0.538806 0.981283 0.156196 -0.073497
C31   C     C_R   0.961193 0.481284 0.843803 -0.073494
C32   C     C_R   0.038804 0.481284 0.156195 -0.073499
C33   C     C_R   0.373929 0.975037 0.778996 0.082624
C34   C     C_R   0.626070 0.975035 0.221003 0.082624
C35   C     C_R   0.873928 0.475039 0.778995 0.082607
C36   C     C_R   0.126069 0.475034 0.221002 0.082624
C37   C     C_R   0.516534 0.973712 0.970198 0.026474
C38   C     C_R   0.483465 0.973712 0.029801 0.026474
C39   C     C_R   0.016532 0.473713 0.970197 0.026474
C40   C     C_R   0.983463 0.473714 0.029800 0.026468
C41   C     C_R   0.397008 0.962311 0.961346 -0.252338
C42   C     C_R   0.602990 0.962310 0.038653 -0.252339
C43   C     C_R   0.897005 0.462318 0.961343 -0.252327
C44   C     C_R   0.102988 0.462309 0.038651 -0.252336
C45   C     C_R   0.342697 0.962722 0.838283 0.258393
C46   C     C_R   0.657302 0.962721 0.161716 0.258391
C47   C     C_R   0.842694 0.462731 0.838281 0.258383
C48   C     C_R   0.157300 0.462719 0.161714 0.258392
C49   C     C_R   0.664166 0.134747 0.706217 -0.098036
C50   C     C_R   0.328239 0.872764 0.279953 -0.107240
C51   C     C_R   0.335828 0.134742 0.293775 -0.098032
C52   C     C_R   0.671760 0.872763 0.720047 -0.107241
C53   C     C_R   0.164170 0.634744 0.706222 -0.098033
C54   C     C_R   0.828239 0.372764 0.279952 -0.107244
C55   C     C_R   0.835829 0.634743 0.293777 -0.098031
C56   C     C_R   0.171760 0.372763 0.720046 -0.107240
C57   C     C_R   0.798682 0.183932 0.799601 0.265523
C58   C     C_R   0.185771 0.835031 0.169532 0.267664
C59   C     C_R   0.201302 0.183913 0.200370 0.265529
C60   C     C_R   0.814229 0.835031 0.830468 0.267663
C61   C     C_R   0.298693 0.683920 0.799621 0.265529
C62   C     C_R   0.685772 0.335027 0.169538 0.267665
C63   C     C_R   0.701305 0.683916 0.200375 0.265524
C64   C     C_R   0.314228 0.335030 0.830467 0.267665
C65   C     C_R   0.737157 0.140546 0.720499 -0.226957
C66   C     C_R   0.254761 0.868487 0.264586 -0.227951
C67   C     C_R   0.262832 0.140533 0.279481 -0.226957
C68   C     C_R   0.745238 0.868487 0.735414 -0.227951
C69   C     C_R   0.237164 0.640537 0.720512 -0.226958
C70   C     C_R   0.754763 0.368484 0.264591 -0.227949
C71   C     C_R   0.762834 0.640535 0.279485 -0.226959
C72   C     C_R   0.245238 0.368487 0.735413 -0.227949
C73   C     C_R   0.649916 0.174316 0.765607 -0.267390
C74   C     C_R   0.334853 0.841979 0.203777 -0.263561
C75   C     C_R   0.350079 0.174313 0.234388 -0.267391
C76   C     C_R   0.665146 0.841978 0.796222 -0.263560
C77   C     C_R   0.149920 0.674313 0.765610 -0.267391
C78   C     C_R   0.834850 0.341981 0.203771 -0.263560
C79   C     C_R   0.850080 0.674314 0.234391 -0.267392
C80   C     C_R   0.165145 0.341977 0.796220 -0.263560
C81   C     C_R   0.711820 0.215394 0.851626 0.046843
C82   C     C_R   0.266353 0.811486 0.103664 0.053560
C83   C     C_R   0.288170 0.215386 0.148360 0.046844
C84   C     C_R   0.733645 0.811486 0.896335 0.053561
C85   C     C_R   0.211827 0.715388 0.851636 0.046844
C86   C     C_R   0.766350 0.311489 0.103659 0.053568
C87   C     C_R   0.788172 0.715388 0.148363 0.046842
C88   C     C_R   0.233644 0.311485 0.896333 0.053561
C89   C     C_R   0.787157 0.219890 0.868422 0.087287
C90   C     C_R   0.191381 0.807316 0.087695 0.090455
C91   C     C_R   0.212828 0.219873 0.131552 0.087279
C92   C     C_R   0.808619 0.807316 0.912305 0.090455
C93   C     C_R   0.287168 0.719879 0.868440 0.087277
C94   C     C_R   0.691379 0.307315 0.087696 0.090454
C95   C     C_R   0.712830 0.719876 0.131557 0.087282
C96   C     C_R   0.308618 0.307315 0.912303 0.090456
C97   C     C_R   0.702634 0.249359 0.925533 0.089608
C98   C     C_R   0.271159 0.784494 0.020151 0.089169
C99   C     C_R   0.297357 0.249353 0.074456 0.089619
C100  C     C_R   0.728839 0.784493 0.979847 0.089169
C101  C     C_R   0.202640 0.749355 0.925540 0.089618
C102  C     C_R   0.771153 0.284500 0.020141 0.089151
C103  C     C_R   0.797359 0.749355 0.074459 0.089617
C104  C     C_R   0.228838 0.284491 0.979844 0.089169
C105  C     C_R   0.341976 0.792079 0.027487 -0.246913
C106  C     C_R   0.627933 0.248393 0.909631 -0.236897
C107  C     C_R   0.658021 0.792076 0.972508 -0.246918
C108  C     C_R   0.372061 0.248391 0.090364 -0.236902
C109  C     C_R   0.841966 0.292090 0.027469 -0.246945
C110  C     C_R   0.127937 0.748392 0.909633 -0.236900
C111  C     C_R   0.158019 0.292074 0.972505 -0.246915
C112  C     C_R   0.872063 0.748393 0.090367 -0.236901
Cu1   Cu    Cu3+1 0.526640 0.000000 0.436960 0.923368
Cu2   Cu    Cu3+1 0.473360 1.000000 0.563040 0.923368
Cu3   Cu    Cu3+1 0.026640 0.500000 0.436960 0.923368
Cu4   Cu    Cu3+1 0.973360 0.500000 0.563040 0.923368
H1    H     H_    0.406024 0.767703 0.964919 0.170377
H2    H     H_    0.563580 0.274039 0.971098 0.161929
H3    H     H_    0.593971 0.767696 0.035074 0.170380
H4    H     H_    0.436419 0.274042 0.028907 0.161934
H5    H     H_    0.906007 0.267722 0.964888 0.170374
H6    H     H_    0.063580 0.774042 0.971092 0.161931
H7    H     H_    0.093969 0.267694 0.035069 0.170373
H8    H     H_    0.936420 0.774043 0.028909 0.161933
H9    H     H_    0.370378 0.949687 0.001846 0.175098
H10   H     H_    0.629620 0.949685 0.998152 0.175100
H11   H     H_    0.870372 0.449697 0.001840 0.175107
H12   H     H_    0.129617 0.449684 0.998150 0.175099
H13   H     H_    0.394933 0.843087 0.225133 0.159301
H14   H     H_    0.590248 0.170439 0.744351 0.153195
H15   H     H_    0.605066 0.843086 0.774865 0.159300
H16   H     H_    0.409750 0.170442 0.255655 0.153190
H17   H     H_    0.894929 0.343091 0.225123 0.159304
H18   H     H_    0.090249 0.670441 0.744347 0.153192
H19   H     H_    0.105065 0.343086 0.774863 0.159300
H20   H     H_    0.909752 0.670443 0.255657 0.153190
H21   H     H_    0.251505 0.892105 0.326012 0.158382
H22   H     H_    0.747060 0.109627 0.672857 0.158807
H23   H     H_    0.748495 0.892106 0.673989 0.158382
H24   H     H_    0.252929 0.109612 0.327121 0.158803
H25   H     H_    0.751508 0.392100 0.326020 0.158383
H26   H     H_    0.247067 0.609617 0.672871 0.158805
H27   H     H_    0.248495 0.392106 0.673989 0.158381
H28   H     H_    0.752931 0.609614 0.327124 0.158805
H29   H     H_    0.392725 0.823083 0.088432 0.149197
H30   H     H_    0.571147 0.226875 0.835750 0.139358
H31   H     H_    0.607270 0.823078 0.911561 0.149199
H32   H     H_    0.428848 0.226874 0.164247 0.139358
H33   H     H_    0.892713 0.323097 0.088412 0.149203
H34   H     H_    0.071150 0.726874 0.835751 0.139358
H35   H     H_    0.107269 0.323076 0.911558 0.149197
H36   H     H_    0.928849 0.726876 0.164250 0.139358
H37   H     H_    0.692346 0.993552 0.497841 0.131677
H38   H     H_    0.307653 0.993553 0.502158 0.131676
H39   H     H_    0.192346 0.493549 0.497841 0.131676
H40   H     H_    0.807654 0.493548 0.502157 0.131678
H41   H     H_    0.252205 0.976649 0.603742 0.182734
H42   H     H_    0.747794 0.976646 0.396257 0.182734
H43   H     H_    0.752205 0.476641 0.603739 0.182743
H44   H     H_    0.247792 0.476642 0.396256 0.182734
N1    N     N_R   0.433280 0.000000 0.657760 -0.194729
N2    N     N_R   0.566720 0.000000 0.342240 -0.194728
N3    N     N_R   0.933280 0.500000 0.657760 -0.194730
N4    N     N_R   0.066720 0.500000 0.342240 -0.194727
O1    O     O_R   0.600040 0.935040 0.546740 -0.584705
O2    O     O_R   0.399960 0.064960 0.453260 -0.585597
O3    O     O_R   0.399960 0.935040 0.453260 -0.584705
O4    O     O_R   0.600040 0.064960 0.546740 -0.585597
O5    O     O_R   0.100040 0.435040 0.546740 -0.584706
O6    O     O_R   0.899960 0.564960 0.453260 -0.585596
O7    O     O_R   0.899960 0.435040 0.453260 -0.584707
O8    O     O_R   0.100040 0.564960 0.546740 -0.585596
O9    O     O_R   0.555010 0.935070 0.653220 -0.597888
O10   O     O_R   0.444990 0.064930 0.346780 -0.577282
O11   O     O_R   0.444990 0.935070 0.346780 -0.597888
O12   O     O_R   0.555010 0.064930 0.653220 -0.577282
O13   O     O_R   0.055010 0.435070 0.653220 -0.597888
O14   O     O_R   0.944990 0.564930 0.346780 -0.577280
O15   O     O_R   0.944990 0.435070 0.346780 -0.597887
O16   O     O_R   0.055010 0.564930 0.653220 -0.577282
N5    N     N_2   0.374584 0.689035 0.817098 -0.443684
H45   H     H_    0.427570 0.675606 0.899176 0.238315
C113  C     C_3   0.374425 0.673478 0.721811 -0.695553
H46   H     H_    0.431869 0.692239 0.741356 0.233732
H47   H     H_    0.319387 0.694415 0.638225 0.239731
H48   H     H_    0.374178 0.622401 0.712590 0.214853
N6    N     N_2   0.610758 0.328609 0.154302 -0.431317
H49   H     H_    0.593461 0.283396 0.151308 0.237048
C114  C     C_3   0.593913 0.370970 0.212813 -0.691980
H50   H     H_    0.528247 0.365072 0.176579 0.238636
H51   H     H_    0.601942 0.419666 0.197295 0.233643
H52   H     H_    0.635812 0.360930 0.308476 0.214553
N7    N     N_2   0.625414 0.689030 0.182896 -0.443687
H53   H     H_    0.572429 0.675594 0.100823 0.238314
C115  C     C_3   0.625576 0.673481 0.278189 -0.695541
H54   H     H_    0.568130 0.692242 0.258642 0.233731
H55   H     H_    0.680613 0.694423 0.361770 0.239730
H56   H     H_    0.625826 0.622404 0.287423 0.214851
N8    N     N_2   0.389245 0.328615 0.845709 -0.431316
H57   H     H_    0.406543 0.283404 0.848700 0.237048
C116  C     C_3   0.406094 0.370981 0.787206 -0.691979
H58   H     H_    0.471761 0.365084 0.823445 0.238640
H59   H     H_    0.398062 0.419675 0.802728 0.233642
H60   H     H_    0.364198 0.360943 0.691543 0.214551
N9    N     N_2   0.874569 0.189053 0.817070 -0.443684
H61   H     H_    0.927560 0.175629 0.899148 0.238314
C117  C     C_3   0.874408 0.173495 0.721781 -0.695553
H62   H     H_    0.931848 0.192260 0.741317 0.233732
H63   H     H_    0.819365 0.194428 0.638193 0.239729
H64   H     H_    0.874167 0.122418 0.712567 0.214855
N10   N     N_2   0.110754 0.828616 0.154291 -0.431317
H65   H     H_    0.093456 0.783404 0.151301 0.237048
C118  C     C_3   0.093906 0.870981 0.212793 -0.691977
H66   H     H_    0.028238 0.865085 0.176554 0.238639
H67   H     H_    0.101937 0.919675 0.197272 0.233642
H68   H     H_    0.135801 0.860944 0.308456 0.214549
N11   N     N_2   0.125409 0.189025 0.182888 -0.443686
H69   H     H_    0.072425 0.175595 0.100810 0.238317
C119  C     C_3   0.125566 0.173468 0.278173 -0.695551
H70   H     H_    0.068120 0.192227 0.258625 0.233734
H71   H     H_    0.180602 0.194407 0.361760 0.239731
H72   H     H_    0.125816 0.122391 0.287396 0.214853
N12   N     N_2   0.889246 0.828617 0.845711 -0.431316
H73   H     H_    0.906544 0.783405 0.848701 0.237048
C120  C     C_3   0.906095 0.870983 0.787210 -0.691975
H74   H     H_    0.971763 0.865087 0.823450 0.238640
H75   H     H_    0.898063 0.919677 0.802731 0.233642
H76   H     H_    0.864200 0.860946 0.691546 0.214549
N13   N     N_2   0.255513 0.953533 0.774620 -0.441600
H77   H     H_    0.234353 0.970435 0.816723 0.255856
C121  C     C_3   0.227032 0.890951 0.732659 -0.693401
H78   H     H_    0.157763 0.889408 0.674617 0.228354
H79   H     H_    0.253047 0.859302 0.807828 0.245239
H80   H     H_    0.246163 0.874876 0.681569 0.238420
N14   N     N_2   0.744485 0.953530 0.225379 -0.441602
H81   H     H_    0.765645 0.970434 0.183278 0.255857
C122  C     C_3   0.772964 0.890948 0.267335 -0.693400
H82   H     H_    0.842233 0.889404 0.325378 0.228354
H83   H     H_    0.746949 0.859301 0.192162 0.245238
H84   H     H_    0.753832 0.874871 0.318422 0.238421
N15   N     N_2   0.755508 0.453555 0.774614 -0.441614
H85   H     H_    0.734346 0.470486 0.816697 0.255856
C123  C     C_3   0.727019 0.390970 0.732699 -0.693391
H86   H     H_    0.657744 0.389443 0.674593 0.228357
H87   H     H_    0.752981 0.359346 0.807888 0.245224
H88   H     H_    0.746197 0.374850 0.681688 0.238439
N16   N     N_2   0.244482 0.453527 0.225377 -0.441600
H89   H     H_    0.265643 0.470431 0.183275 0.255856
C124  C     C_3   0.272960 0.390944 0.267330 -0.693405
H90   H     H_    0.342229 0.389399 0.325376 0.228354
H91   H     H_    0.246947 0.359298 0.192158 0.245239
H92   H     H_    0.253825 0.374866 0.318413 0.238422
N17   N     N_2   0.427851 0.018627 0.157817 -0.450155
H93   H     H_    0.396080 0.004336 0.185753 0.288208
C125  C     C_3   0.411956 0.081114 0.112636 -0.679622
H94   H     H_    0.347576 0.095269 0.073799 0.232820
H95   H     H_    0.417495 0.083897 0.042980 0.231196
H96   H     H_    0.458120 0.113447 0.184044 0.226248
N18   N     N_2   0.572149 0.018626 0.842183 -0.450154
H97   H     H_    0.603920 0.004336 0.814246 0.288209
C126  C     C_3   0.588045 0.081112 0.887367 -0.679626
H98   H     H_    0.652424 0.095269 0.926200 0.232819
H99   H     H_    0.582511 0.083894 0.957028 0.231199
H100  H     H_    0.541878 0.113446 0.815962 0.226245
N19   N     N_2   0.927852 0.518630 0.157819 -0.450155
H101  H     H_    0.896079 0.504338 0.185752 0.288205
C127  C     C_3   0.911959 0.581117 0.112641 -0.679628
H102  H     H_    0.847580 0.595274 0.073803 0.232819
H103  H     H_    0.917498 0.583901 0.042985 0.231194
H104  H     H_    0.958125 0.613449 0.184050 0.226251
N20   N     N_2   0.072149 0.518626 0.842184 -0.450155
H105  H     H_    0.103919 0.504336 0.814246 0.288210
C128  C     C_3   0.088045 0.581113 0.887367 -0.679623
H106  H     H_    0.152425 0.595268 0.926203 0.232819
H107  H     H_    0.082508 0.583895 0.957025 0.231198
H108  H     H_    0.041880 0.613446 0.815960 0.226247

loop_
_geom_bond_atom_site_label_1
_geom_bond_atom_site_label_2
_ccdc_geom_bond_type
C72   H27   S    
C27   N20   S    
C88   C96   A    
C14   H6    S    
C7    O7    A    
C98   C105  A    
C33   C45   A    
C116  H58   S    
Cu1   O10   S    
Cu4   N3    S    
C19   C23   A    
N12   H73   S    
C6    C55   S    
Cu3   O5    S    
C53   C69   A    
C76   C84   A    
Cu1   O4    S    
C125  H95   S    
C13   H5    S    
C116  H59   S    
C3    O3    A    
Cu2   O3    S    
C61   C69   A    
N5    H45   S    
C79   H20   S    
C1    O9    A    
C124  H90   S    
C37   C38   A    
C80   H19   S    
C57   C89   A    
C68   H23   S    
C18   H42   S    
N12   C120  S    
C32   C36   A    
C71   H28   S    
C51   C75   A    
C48   N16   S    
C1    C52   S    
C113  H47   S    
Cu1   O1    S    
N17   H93   S    
C22   N2    A    
C127  H104  S    
C61   C93   A    
C108  H32   S    
C10   C94   A    
C9    C105  A    
C123  H86   S    
C57   N9    S    
C125  H94   S    
C37   C42   A    
C120  H76   S    
C107  H31   S    
C117  H63   S    
C30   C38   A    
C14   C110  A    
N15   H85   S    
C42   C46   A    
C4    O12   A    
Cu3   N4    S    
C114  H51   S    
C14   C90   A    
C13   C109  A    
C86   C94   A    
C59   C67   A    
Cu1   N2    S    
C12   H4    S    
C85   C93   A    
C58   C66   A    
Cu2   O9    S    
C20   C24   A    
C29   C33   A    
C25   N1    A    
C56   C72   A    
C128  H107  S    
C87   C95   A    
C117  H64   S    
N14   H81   S    
C63   N7    S    
C34   C46   A    
C17   H41   S    
N19   H101  S    
C2    O2    A    
C97   C102  A    
C52   C68   A    
C24   H39   S    
Cu1   O11   S    
C115  H56   S    
C27   N3    A    
C78   C86   A    
N16   C124  S    
C99   C104  A    
C125  H96   S    
C35   C47   A    
N8    H57   S    
C83   C99   A    
C122  H82   S    
C6    O14   A    
N14   C122  S    
C62   C70   A    
C24   N4    A    
C17   C33   A    
C74   C82   A    
C73   C81   A    
C43   C47   A    
C88   C104  A    
C3    C50   S    
Cu2   O2    S    
C23   N3    A    
C60   C92   A    
C25   C29   A    
C120  H75   S    
C124  H91   S    
C21   N1    A    
C30   C34   A    
C27   C31   A    
C117  H62   S    
C84   C100  A    
C15   C111  A    
C28   C32   A    
C63   C95   A    
C8    O8    A    
C64   C96   A    
C38   C41   A    
C11   H3    S    
C59   N11   S    
C113  H48   S    
C43   H11   S    
C39   C40   A    
C126  H99   S    
Cu2   N1    S    
C51   C67   A    
C123  H87   S    
C69   H26   S    
C118  H66   S    
C15   C91   A    
C26   N2    A    
C100  C103  A    
C17   C21   A    
C28   N19   S    
C4    O4    A    
Cu4   O7    S    
C103  C112  A    
N15   C123  S    
C6    O6    A    
C8    C53   S    
C114  H52   S    
C109  H33   S    
C113  H46   S    
C62   C94   A    
N13   H77   S    
C99   C108  A    
C41   H9    S    
C10   H2    S    
C119  H71   S    
C55   C79   A    
C8    O16   A    
N17   C125  S    
N10   H65   S    
C54   C70   A    
C1    O1    A    
C21   H38   S    
C123  H88   S    
C105  H29   S    
C40   C43   A    
C126  H100  S    
N7    C115  S    
C120  H74   S    
C122  H84   S    
Cu4   O6    S    
C121  H79   S    
C59   C91   A    
C82   C90   A    
C84   C92   A    
C67   H24   S    
C18   C34   A    
C5    O13   A    
C106  H30   S    
C79   C87   A    
C49   C65   A    
C58   C90   A    
C87   C103  A    
C65   H22   S    
C128  H108  S    
C3    O11   A    
N10   C118  S    
C63   C71   A    
C26   C30   A    
C5    C56   S    
C122  H83   S    
C52   C76   A    
C53   C77   A    
C116  H60   S    
C31   C35   A    
C64   N8    S    
C77   H18   S    
C97   C106  A    
N18   H97   S    
C86   C102  A    
C60   N12   S    
C9    C93   A    
N19   C127  S    
C119  H70   S    
C32   C40   A    
C85   C101  A    
C75   H16   S    
C16   C112  A    
C12   C108  A    
Cu1   Cu2   S    
C47   N15   S    
C118  H68   S    
C11   C95   A    
C100  C107  A    
N20   C128  S    
Cu4   O16   S    
N9    H61   S    
C73   H14   S    
C44   H12   S    
C70   H25   S    
C5    O5    A    
C13   C89   A    
C18   C22   A    
C45   N13   S    
C101  C110  A    
C57   C65   A    
Cu3   O8    S    
C110  H34   S    
C26   N17   S    
C111  H35   S    
C112  H36   S    
C104  C111  A    
C127  H102  S    
C50   C66   A    
C16   C92   A    
C39   C44   A    
N11   C119  S    
C98   C101  A    
C83   C91   A    
C61   N5    S    
C56   C80   A    
C4    C49   S    
C7    O15   A    
C19   H43   S    
C46   N14   S    
C50   C74   A    
N11   H69   S    
C118  H67   S    
C81   C89   A    
N6    H49   S    
N13   C121  S    
N18   C126  S    
C19   C35   A    
C2    O10   A    
C119  H72   S    
C11   C107  A    
C28   N4    A    
C75   C83   A    
Cu3   Cu4   S    
C126  H98   S    
C66   H21   S    
C81   C97   A    
Cu2   O12   S    
C76   H15   S    
C31   C39   A    
C36   C48   A    
C121  H80   S    
C49   C73   A    
C64   C72   A    
C16   H8    S    
C114  H50   S    
C78   H17   S    
Cu3   O15   S    
C82   C98   A    
C124  H92   S    
Cu3   O14   S    
C10   C106  A    
C2    C51   S    
C42   H10   S    
C77   C85   A    
C115  H54   S    
C25   N18   S    
C44   C48   A    
N5    C113  S    
C23   H40   S    
C58   N10   S    
C60   C68   A    
C80   C88   A    
N7    H53   S    
C20   H44   S    
C74   H13   S    
C29   C37   A    
C121  H78   S    
N8    C116  S    
C20   C36   A    
C41   C45   A    
C12   C96   A    
C102  C109  A    
C15   H7    S    
C7    C54   S    
C54   C78   A    
Cu4   O13   S    
N9    C117  S    
C127  H103  S    
N6    C114  S    
C55   C71   A    
C9    H1    S    
N20   H105  S    
N16   H89   S    
C62   N6    S    
C115  H55   S    
C22   H37   S    
C128  H106  S    
