data_mof_unit_33633.cif
_audit_creation_date              2012-12-10T18:11:39-0500
_audit_creation_method            fapswitch 2.2
_symmetry_space_group_name_H-M    P1
_symmetry_Int_Tables_number       1
_space_group_crystal_system       triclinic
_cell_length_a                    10.496683
_cell_length_b                    12.680116
_cell_length_c                    13.098232
_cell_angle_alpha                 81.233168
_cell_angle_beta                  91.633374
_cell_angle_gamma                 102.659954
_cell_volume                      1681.08431423

loop_
_atom_site_label
_atom_site_type_symbol
_atom_type_description
_atom_site_fract_x
_atom_site_fract_y
_atom_site_fract_z
_atom_type_partial_charge
C1    C     C_R   0.479336 0.438691 0.691328 0.890045
C2    C     C_3   0.057635 0.567388 0.417490 -0.165886
C3    C     C_3   0.988697 0.603139 0.504890 -0.126893
C4    C     C_3   0.878181 0.502276 0.501940 -0.048193
C5    C     C_R   0.403720 0.701846 0.060025 -0.194356
C6    C     C_R   0.500867 0.598081 0.199004 -0.042551
C7    C     C_R   0.496948 0.302037 0.843492 -0.157778
C8    C     C_R   0.507868 0.273738 0.949293 -0.162467
C9    C     C_R   0.494209 0.347181 0.014549 -0.187603
C10   C     C_R   0.463420 0.448834 0.974323 0.091842
C11   C     C_R   0.431359 0.468593 0.868993 0.084407
C12   C     C_R   0.742167 0.500840 0.500936 0.911752
C13   C     C_R   0.463311 0.531431 0.035337 0.078142
C14   C     C_R   0.409341 0.622836 0.996837 0.169955
C15   C     C_R   0.360084 0.632739 0.896726 -0.237960
C16   C     C_R   0.371430 0.556856 0.833221 -0.196944
C17   C     C_R   0.518044 0.526233 0.133359 -0.255387
C18   C     C_R   0.446835 0.688175 0.162007 -0.207279
C19   C     C_R   0.462370 0.400211 0.802188 -0.107995
C20   C     C_R   0.338130 0.097503 0.330518 -0.301140
C21   C     C_R   0.664417 0.800603 0.622973 0.018229
C22   C     C_R   0.715648 0.908212 0.635427 -0.238087
C23   C     C_R   0.512592 0.561517 0.308688 0.841122
C24   C     C_R   0.660732 0.990168 0.581217 -0.157797
C25   C     C_R   0.549068 0.964263 0.519051 0.025715
C26   C     C_R   0.510652 0.855479 0.499977 0.243344
C27   C     C_R   0.479787 0.043012 0.470282 -0.062655
C28   C     C_R   0.395543 0.017356 0.386987 0.188889
C29   C     C_R   0.367450 0.911304 0.362894 -0.281577
C30   C     C_R   0.420335 0.830481 0.421494 -0.208283
C31   C     C_R   0.485916 0.144654 0.503730 0.056642
C32   C     C_R   0.361980 0.201285 0.358921 -0.021020
C33   C     C_R   0.257990 0.499092 0.499595 0.842310
C34   C     C_3   0.944829 0.433905 0.583349 -0.008112
C35   C     C_3   0.056784 0.533924 0.587406 -0.223272
C36   C     C_3   0.122501 0.497828 0.499908 0.009701
C37   C     C_3   0.012631 0.396830 0.496927 -0.173388
C38   C     C_3   0.944841 0.466556 0.414484 -0.191730
H1    H     H_    0.106393 0.560549 0.658096 0.144811
H2    H     H_    0.570183 0.463463 0.162577 0.147360
H3    H     H_    0.521099 0.249491 0.793843 0.191777
H4    H     H_    0.505291 0.321419 0.096106 0.134742
H5    H     H_    0.533172 0.196912 0.980474 0.147906
H6    H     H_    0.331092 0.567141 0.756342 0.165307
H7    H     H_    0.321471 0.264903 0.313922 0.147635
H8    H     H_    0.301283 0.889920 0.300553 0.147727
H9    H     H_    0.276341 0.080299 0.264723 0.149230
H10   H     H_    0.708241 0.736137 0.662503 0.152403
H11   H     H_    0.710379 0.073278 0.585545 0.184280
H12   H     H_    0.799527 0.928327 0.684450 0.168934
H13   H     H_    0.392421 0.749924 0.401567 0.203900
H14   H     H_    0.025824 0.312824 0.493937 0.171095
H15   H     H_    0.895208 0.439732 0.343884 0.147566
H16   H     H_    0.108872 0.621690 0.349561 0.128575
H17   H     H_    0.975497 0.687083 0.508117 0.155019
H18   H     H_    0.432216 0.744408 0.212717 0.147336
H19   H     H_    0.315047 0.700260 0.866799 0.158492
H20   H     H_    0.361197 0.771311 0.031990 0.140927
N1    N     N_R   0.432930 0.222190 0.444670 -0.139632
N2    N     N_R   0.566370 0.776980 0.554790 -0.135019
O1    O     O_R   0.467970 0.366730 0.627150 -0.581675
O2    O     O_R   0.510820 0.544830 0.662520 -0.615280
O3    O     O_R   0.664630 0.410960 0.482340 -0.582059
O4    O     O_R   0.707470 0.589060 0.517710 -0.623304
O5    O     O_R   0.489180 0.455170 0.337480 -0.623757
O6    O     O_R   0.532030 0.633270 0.372850 -0.634012
O7    O     O_R   0.292530 0.410940 0.482290 -0.621453
O8    O     O_R   0.335370 0.589040 0.517660 -0.644801
Zn1   Zn    Zn3+2 0.471390 0.381080 0.476380 0.974842
Zn2   Zn    Zn3+2 0.528610 0.618920 0.523620 0.932979
C39   C     C_2   0.526366 0.158941 0.609849 0.897617
O9    O     O_2   0.619876 0.230567 0.625612 -0.611476
O10   O     O_R   0.466474 0.080814 0.691327 -0.816047
H21   H     H_    0.516725 0.084273 0.758320 0.328841
C40   C     C_2   0.882871 0.362652 0.678490 0.956024
O11   O     O_2   0.889565 0.266542 0.695463 -0.622532
O12   O     O_R   0.819387 0.407191 0.748097 -0.812950
H22   H     H_    0.782850 0.351637 0.810073 0.344932

loop_
_geom_bond_atom_site_label_1
_geom_bond_atom_site_label_2
_ccdc_geom_bond_type
C30   H13   S    
C34   C37   S    
O10   H21   S    
C35   C36   S    
C8    H5    S    
C1    O2    A    
C7    C8    A    
O12   H22   S    
C11   C19   A    
C9    H4    S    
C29   C30   A    
C5    H20   S    
C23   O6    A    
C36   C37   S    
C12   O4    A    
O1    Zn1   S    
C15   C16   A    
C33   C36   S    
O2    Zn2   S    
C34   C35   S    
C11   C16   A    
C31   N1    A    
C3    H17   S    
O3    Zn1   S    
C8    C9    A    
O4    Zn2   S    
C4    C12   S    
C9    C10   A    
C16   H6    S    
C18   H18   S    
C34   C40   S    
C22   H12   S    
C21   H10   S    
C31   C39   S    
C13   C14   A    
C15   H19   S    
C6    C18   A    
C4    C34   S    
C1    C19   S    
C27   C31   A    
C24   C25   A    
C21   N2    A    
C2    H16   S    
C39   O10   S    
C12   O3    A    
C5    C18   A    
C20   C28   A    
C25   C26   A    
O7    Zn1   S    
C17   H2    S    
C35   H1    S    
C40   O11   D    
C37   C38   S    
C3    C35   S    
C2    C38   S    
N2    Zn2   S    
C32   H7    S    
C40   O12   S    
C5    C14   A    
N1    Zn1   S    
C4    C38   S    
C26   C30   A    
C7    C19   A    
C22   C24   A    
C3    C4    S    
C33   O7    A    
C20   C32   A    
C2    C36   S    
C24   H11   S    
C37   H14   S    
C6    C17   A    
C28   C29   A    
C10   C13   A    
C1    O1    A    
C25   C27   A    
C13   C17   A    
C29   H8    S    
C23   O5    A    
C2    C3    S    
C39   O9    D    
O6    Zn2   S    
C38   H15   S    
O5    Zn1   S    
C6    C23   S    
C7    H3    S    
C20   H9    S    
C10   C11   A    
O8    Zn2   S    
C27   C28   A    
C14   C15   A    
C32   N1    A    
C21   C22   A    
C26   N2    A    
C33   O8    A    
