data_mof_unit_42918.cif
_audit_creation_date              2012-12-11T15:52:34-0500
_audit_creation_method            fapswitch 2.2
_symmetry_space_group_name_H-M    P1
_symmetry_Int_Tables_number       1
_space_group_crystal_system       triclinic
_cell_length_a                    6.930679
_cell_length_b                    14.647571
_cell_length_c                    15.94649
_cell_angle_alpha                 90.234949
_cell_angle_beta                  90.089192
_cell_angle_gamma                 89.650664
_cell_volume                      1618.80399723

loop_
_atom_site_label
_atom_site_type_symbol
_atom_type_description
_atom_site_fract_x
_atom_site_fract_y
_atom_site_fract_z
_atom_type_partial_charge
O1    O     O_R   0.494400 0.415640 0.412830 -0.539429
O2    O     O_R   0.823920 0.405510 0.586560 -0.546943
O3    O     O_R   0.994250 0.584360 0.587170 -0.541822
C1    C     C_R   0.655990 0.386665 0.618361 0.686702
O4    O     O_R   0.824110 0.404610 0.413450 -0.541629
O5    O     O_R   0.994440 0.583460 0.412820 -0.539753
C2    C     C_R   0.655174 0.382187 0.384312 0.693123
O6    O     O_R   0.494210 0.416540 0.587180 -0.537533
O7    O     O_3   0.660810 0.558680 0.500000 -0.369877
V1    V     V_3+5 0.935650 0.489110 0.500000 1.387548
O8    O     O_R   0.324150 0.594490 0.413440 -0.543136
C3    C     C_R   0.154778 0.616590 0.384340 0.687565
O9    O     O_R   0.323970 0.595390 0.586550 -0.545281
C4    C     C_R   0.154766 0.617367 0.615623 0.668560
V2    V     V_3+5 0.435660 0.510890 0.500000 1.391133
O10   O     O_3   0.160630 0.441320 0.500000 -0.368632
C5    C     C_3   0.943424 0.683660 0.731165 -0.374876
H1    H     H_    0.827980 0.698550 0.684461 0.136768
H2    H     H_    0.914983 0.613920 0.754784 0.139353
C6    C     C_3   0.930177 0.755835 0.802725 0.058336
H3    H     H_    0.814464 0.805519 0.785151 0.104415
H4    H     H_    0.064917 0.798081 0.603411 0.123022
H5    H     H_    0.028060 0.899668 0.709453 0.112965
C7    C     C_3   0.174561 0.783590 0.652768 -0.341171
C8    C     C_3   0.305780 0.667755 0.754968 0.009068
C9    C     C_3   0.144542 0.685853 0.687584 0.004888
H6    H     H_    0.447763 0.677728 0.723690 0.134773
C10   C     C_3   0.123794 0.809772 0.810894 0.035651
C11   C     C_3   0.157404 0.856807 0.723599 0.019757
C12   C     C_3   0.289432 0.739410 0.827560 -0.321008
H7    H     H_    0.265213 0.706079 0.889087 0.151791
H8    H     H_    0.429929 0.774466 0.834789 0.127124
H9    H     H_    0.318106 0.787429 0.621762 0.161039
C13   C     C_R   0.953593 0.773856 0.215304 -0.150049
H10   H     H_    0.812922 0.792319 0.190845 0.118145
C14   C     C_R   0.964236 0.710706 0.280927 -0.153641
H11   H     H_    0.831394 0.682336 0.304801 0.118579
C15   C     C_R   0.143574 0.684502 0.315073 -0.048326
C16   C     C_R   0.311980 0.723201 0.281618 -0.154527
H12   H     H_    0.452655 0.704721 0.306063 0.116989
C17   C     C_R   0.301338 0.786353 0.215998 -0.152772
H13   H     H_    0.434181 0.814711 0.192112 0.119092
C18   C     C_R   0.121988 0.812620 0.181907 -0.047743
C19   C     C_R   0.795917 0.307965 0.749204 0.156416
C20   C     C_R   0.787267 0.234064 0.805056 -0.169634
H14   H     H_    0.907327 0.222021 0.847361 0.136567
C21   C     C_R   0.620586 0.181672 0.813179 -0.079003
C22   C     C_R   0.465781 0.198142 0.758538 -0.153324
H15   H     H_    0.335077 0.158299 0.762965 0.120042
C23   C     C_R   0.480739 0.264323 0.695684 -0.184299
H16   H     H_    0.361862 0.272078 0.652074 0.130259
C24   C     C_R   0.645992 0.319667 0.688798 -0.082182
C25   C     C_R   0.812240 0.274260 0.280903 -0.155061
H17   H     H_    0.953110 0.292796 0.304709 0.116851
C26   C     C_R   0.801009 0.210443 0.215370 -0.150803
H18   H     H_    0.933863 0.181673 0.190932 0.118641
C27   C     C_R   0.621258 0.184056 0.182029 -0.047279
C28   C     C_R   0.453071 0.223394 0.216159 -0.155407
H19   H     H_    0.312207 0.204863 0.192343 0.116393
C29   C     C_R   0.464303 0.287216 0.281694 -0.149625
H20   H     H_    0.331457 0.315999 0.306126 0.119097
C30   C     C_R   0.644052 0.313552 0.315075 -0.048726
O11   O     O_R   0.771300 0.080930 0.910090 -0.544277
O12   O     O_R   0.441270 0.092800 0.083770 -0.543111
O13   O     O_R   0.271080 0.913920 0.084380 -0.541571
C31   C     C_R   0.610180 0.115316 0.112882 0.685527
O14   O     O_R   0.441580 0.091910 0.910670 -0.544358
O15   O     O_R   0.271390 0.913020 0.910040 -0.547411
C32   C     C_R   0.609823 0.112571 0.880706 0.689574
O16   O     O_R   0.770990 0.081830 0.084440 -0.541983
O17   O     O_3   0.604750 0.938760 0.997250 -0.364742
V3    V     V_3+5 0.329850 0.008280 0.997210 1.392777
O18   O     O_R   0.941680 0.901940 0.910610 -0.527797
C33   C     C_R   0.111111 0.880033 0.881442 0.705772
O19   O     O_R   0.941370 0.902830 0.083720 -0.538800
C34   C     C_R   0.110759 0.880670 0.112761 0.695690
V4    V     V_3+5 0.829860 0.986420 0.997150 1.414831
O20   O     O_3   0.104830 0.056030 0.997180 -0.373124
N1    N     N_3   0.325016 0.917673 0.721566 -0.670969
H21   H     H_    0.300971 0.973870 0.760821 0.223736
H22   H     H_    0.449913 0.883802 0.741213 0.230167
C35   C     C_3   0.961097 0.374006 0.762095 -0.356037
C36   C     C_3   0.963321 0.413062 0.851936 -0.798693
H23   H     H_    0.894176 0.481467 0.853334 0.213498
H24   H     H_    0.886120 0.370375 0.898140 0.233999
H25   H     H_    0.114366 0.418603 0.874364 0.226026
H26   H     H_    0.098591 0.336837 0.750273 0.177933
H27   H     H_    0.956166 0.432744 0.718880 0.181308
N2    N     N_3   0.874013 0.714761 0.882876 -0.664266
H28   H     H_    0.728451 0.697512 0.879340 0.226788
H29   H     H_    0.951154 0.654564 0.893763 0.225655
C37   C     C_3   0.302570 0.568810 0.789091 -0.354258
C38   C     C_3   0.490252 0.540980 0.832102 -0.800393
H30   H     H_    0.613510 0.550992 0.789005 0.221498
H31   H     H_    0.511150 0.580922 0.890564 0.225109
H32   H     H_    0.484487 0.467538 0.848941 0.236352
H33   H     H_    0.184297 0.562585 0.834786 0.192197
H34   H     H_    0.276887 0.518740 0.737989 0.186197

loop_
_geom_bond_atom_site_label_1
_geom_bond_atom_site_label_2
_ccdc_geom_bond_type
C26   H18   S    
C38   H30   S    
C17   H13   S    
C27   C31   S    
C1    O6    A    
C10   C33   S    
C37   H34   S    
C16   C17   A    
C31   O16   A    
C25   H17   S    
O13   C34   A    
C1    C24   S    
C5    C9    S    
H5    C11   S    
C14   H11   S    
C7    C9    S    
C13   H10   S    
C19   C35   S    
O5    C3    A    
C12   H7    S    
O15   C33   A    
C35   H26   S    
C8    C12   S    
C5    C6    S    
C29   C30   A    
O14   V3    S    
O18   C33   A    
C20   C21   A    
C7    C11   S    
C21   C32   S    
V3    O20   S    
O8    V2    S    
C21   C22   A    
C23   C24   A    
O1    V2    S    
N2    H29   S    
O7    V1    S    
C19   C24   A    
C22   C23   A    
C38   H31   S    
O9    C4    A    
O16   V4    S    
C3    C15   S    
C17   C18   A    
C37   H33   S    
C23   H16   S    
C25   C26   A    
O11   C32   A    
C16   H12   S    
O4    C2    A    
C6    C10   S    
C28   H19   S    
V4    O20   S    
C29   H20   S    
O14   C32   A    
O12   C31   A    
O2    C1    A    
O19   C34   A    
C2    C30   S    
C25   C30   A    
C36   H23   S    
C11   N1    S    
O15   V3    S    
C5    H1    S    
C4    C9    S    
O19   V4    S    
O3    C4    A    
C22   H15   S    
C36   H24   S    
C38   H32   S    
O9    V2    S    
H4    C7    S    
C8    H6    S    
C14   C15   A    
O2    V1    S    
O17   V4    S    
C19   C20   A    
N1    H22   S    
O11   V4    S    
C18   C34   S    
C10   C11   S    
C8    C37   S    
O1    C2    A    
C13   C18   A    
O5    V1    S    
O8    C3    A    
O6    V2    S    
O13   V3    S    
C6    N2    S    
C7    H9    S    
C26   C27   A    
C8    C9    S    
O4    V1    S    
O3    V1    S    
V1    O10   S    
C12   H8    S    
C27   C28   A    
C15   C16   A    
C35   H27   S    
C10   C12   S    
C37   C38   S    
C5    H2    S    
C13   C14   A    
O12   V3    S    
O7    V2    S    
N1    H21   S    
C20   H14   S    
O17   V3    S    
C36   H25   S    
C6    H3    S    
C35   C36   S    
O18   V4    S    
N2    H28   S    
C28   C29   A    
V2    O10   S    
