data_mof_unit_28434.cif
_audit_creation_date              2012-12-10T20:50:09-0500
_audit_creation_method            fapswitch 2.2
_symmetry_space_group_name_H-M    P1
_symmetry_Int_Tables_number       1
_space_group_crystal_system       triclinic
_cell_length_a                    19.226987
_cell_length_b                    8.920863
_cell_length_c                    8.147258
_cell_angle_alpha                 90.02215
_cell_angle_beta                  89.487295
_cell_angle_gamma                 89.981388
_cell_volume                      1397.37229354

loop_
_atom_site_label
_atom_site_type_symbol
_atom_type_description
_atom_site_fract_x
_atom_site_fract_y
_atom_site_fract_z
_atom_type_partial_charge
C1    C     C_R   0.499967 0.218181 0.499981 0.950148
C2    C     C_R   0.254693 0.608235 0.395407 -0.093098
C3    C     C_R   0.178932 0.434752 0.627165 -0.070068
C4    C     C_R   0.821985 0.461863 0.351810 -0.083520
C5    C     C_R   0.815386 0.523515 0.644151 -0.090106
C6    C     C_R   0.181682 0.613825 0.397100 -0.090911
C7    C     C_R   0.144352 0.527595 0.513505 -0.057405
C8    C     C_R   0.854064 0.511753 0.497016 -0.092670
C9    C     C_R   0.289367 0.510037 0.504069 -0.158305
C10   C     C_R   0.710892 0.468045 0.497362 -0.234315
C11   C     C_R   0.929211 0.519010 0.502607 0.407787
C12   C     C_R   0.500084 0.781817 0.500022 0.961651
C13   C     C_R   0.068655 0.526190 0.510094 0.372175
C14   C     C_2   0.288429 0.317983 0.731926 1.035566
C15   C     C_2   0.713080 0.410234 0.195584 1.042595
C16   C     C_2   0.730378 0.351192 0.771181 0.998432
C17   C     C_2   0.294519 0.705600 0.279874 0.995620
C18   C     C_2   0.138562 0.350130 0.753939 0.919013
C19   C     C_2   0.865313 0.414485 0.208754 0.931212
C20   C     C_2   0.844446 0.587349 0.797940 0.995988
C21   C     C_2   0.144474 0.709163 0.276173 0.976143
C22   C     C_R   0.365311 0.501672 0.500851 0.910326
C23   C     C_R   0.634717 0.487760 0.499156 0.884786
C24   C     C_1   0.499977 0.065262 0.499972 -0.111011
C25   C     C_1   0.500017 0.934752 0.500031 -0.114850
C26   C     C_R   0.251704 0.422993 0.619583 -0.212922
C27   C     C_R   0.748982 0.450062 0.349311 -0.211360
C28   C     C_R   0.747348 0.468098 0.645991 -0.060034
H1    H     H_    0.257712 0.428164 0.936635 0.331297
H2    H     H_    0.691071 0.200605 0.272680 0.302750
H3    H     H_    0.767879 0.191897 0.921863 0.391118
H4    H     H_    0.311974 0.769542 0.045641 0.364864
H5    H     H_    0.064670 0.355544 0.931115 0.365711
H6    H     H_    0.952901 0.446833 0.075854 0.392748
H7    H     H_    0.825279 0.701517 0.007362 0.370272
H8    H     H_    0.132069 0.914244 0.176401 0.376871
N1    N     N_1   0.500000 0.500000 0.073640 0.012126
N2    N     N_1   0.500000 0.500000 0.926360 0.015381
N3    N     N_R   0.034902 0.393649 0.497953 -0.126849
N4    N     N_R   0.962674 0.652150 0.513551 -0.089025
N5    N     N_R   0.966099 0.390053 0.495070 -0.125959
N6    N     N_R   0.031703 0.655584 0.518039 -0.099506
O1    O     O_R   0.500000 0.285350 0.636850 -0.587243
O2    O     O_R   0.284782 0.335696 0.902308 -0.727164
O3    O     O_2   0.706182 0.504757 0.089118 -0.536367
O4    O     O_R   0.683003 0.268928 0.175330 -0.744937
O5    O     O_2   0.670827 0.307559 0.793633 -0.567162
O6    O     O_R   0.784605 0.279465 0.852769 -0.758269
O7    O     O_2   0.338148 0.792518 0.332523 -0.601914
O8    O     O_R   0.281660 0.698128 0.111432 -0.788563
O9    O     O_2   0.148609 0.215961 0.773582 -0.560112
O10   O     O_R   0.088663 0.424584 0.849661 -0.735604
O11   O     O_2   0.853824 0.294664 0.141844 -0.582771
O12   O     O_R   0.500000 0.714650 0.363150 -0.601268
O13   O     O_R   0.922632 0.500380 0.159761 -0.749254
O14   O     O_2   0.906619 0.581012 0.826433 -0.580263
O15   O     O_R   0.799972 0.660094 0.908567 -0.749189
O16   O     O_2   0.100150 0.654044 0.187897 -0.555449
O17   O     O_R   0.160565 0.861566 0.263178 -0.744448
O18   O     O_R   0.500000 0.714650 0.636850 -0.621437
O19   O     O_R   0.500000 0.285350 0.363150 -0.608689
O20   O     O_R   0.398140 0.500000 0.636920 -0.620511
O21   O     O_R   0.601860 0.500000 0.363080 -0.613308
O22   O     O_R   0.601860 0.500000 0.636920 -0.566088
O23   O     O_R   0.398140 0.500000 0.363080 -0.604832
O24   O     O_2   0.322639 0.214892 0.674524 -0.549002
Zn1   Zn    Zn3+2 0.500000 0.500000 0.682780 1.089629
Zn2   Zn    Zn3+2 0.500000 0.500000 0.317220 1.081551

loop_
_geom_bond_atom_site_label_1
_geom_bond_atom_site_label_2
_ccdc_geom_bond_type
C17   O8    S    
C16   C28   S    
C5    C8    A    
C24   C25   T    
O22   Zn1   S    
C22   O23   A    
C11   N5    A    
C6    C7    A    
C10   C28   A    
C10   C23   S    
C22   O20   A    
C5    C28   A    
C15   C27   S    
C10   C27   A    
C4    C8    A    
C12   C25   S    
C20   O14   D    
H8    O17   S    
H4    O8    S    
C19   O11   D    
N4    N6    A    
C14   O24   D    
C18   O10   S    
C21   O16   D    
N3    N5    A    
C5    C20   S    
C6    C21   S    
C14   C26   S    
C2    C17   S    
C2    C9    A    
O19   Zn2   S    
C16   O6    S    
C2    C6    A    
O20   Zn1   S    
C1    C24   S    
C8    C11   S    
C16   O5    D    
C23   O21   A    
C13   N6    A    
N1    N2    T    
H2    O4    S    
C18   O9    D    
C21   O17   S    
C3    C7    A    
H3    O6    S    
H1    O2    S    
C11   N4    A    
C9    C26   A    
C4    C27   A    
C9    C22   S    
C13   N3    A    
O12   Zn2   S    
C15   O3    D    
C19   O13   S    
C12   O18   A    
N1    Zn2   S    
H6    O13   S    
O23   Zn2   S    
N2    Zn1   S    
C3    C18   S    
C14   O2    S    
H7    O15   S    
C17   O7    D    
O21   Zn2   S    
C23   O22   A    
O1    Zn1   S    
C7    C13   S    
C15   O4    S    
C20   O15   S    
C4    C19   S    
C1    O1    A    
C3    C26   A    
C12   O12   A    
O18   Zn1   S    
H5    O10   S    
C1    O19   A    
