data_mof_unit_14724.cif
_audit_creation_date              2012-12-11T17:25:06-0500
_audit_creation_method            fapswitch 2.2
_symmetry_space_group_name_H-M    P1
_symmetry_Int_Tables_number       1
_space_group_crystal_system       triclinic
_cell_length_a                    6.954924
_cell_length_b                    20.536899
_cell_length_c                    24.511177
_cell_angle_alpha                 90.060433
_cell_angle_beta                  90.466679
_cell_angle_gamma                 89.488662
_cell_volume                      3500.73721057

loop_
_atom_site_label
_atom_site_type_symbol
_atom_type_description
_atom_site_fract_x
_atom_site_fract_y
_atom_site_fract_z
_atom_type_partial_charge
O1    O     O_R   0.507280 0.423750 0.460310 -0.538092
O2    O     O_R   0.171030 0.555650 0.437630 -0.539736
O3    O     O_R   0.004080 0.576250 0.539690 -0.523947
C1    C     C_R   0.339072 0.575680 0.421788 0.717604
O4    O     O_R   0.177330 0.422980 0.453960 -0.540202
O5    O     O_R   0.010420 0.442640 0.556140 -0.531174
C2    C     C_R   0.346192 0.399141 0.443219 0.689026
O6    O     O_R   0.500930 0.557360 0.443860 -0.537972
O7    O     O_3   0.340310 0.506600 0.533500 -0.359008
V1    V     V_3+5 0.064140 0.498780 0.493780 1.449925
O8    O     O_R   0.680890 0.444350 0.562370 -0.538578
C3    C     C_R   0.850584 0.424431 0.578138 0.741262
O9    O     O_R   0.674590 0.577020 0.546040 -0.545400
C4    C     C_R   0.842634 0.600910 0.556759 0.759027
V2    V     V_3+5 0.564550 0.501220 0.506220 1.440693
O10   O     O_3   0.838250 0.493400 0.466500 -0.374369
C5    C     C_R   0.973691 0.838623 0.910853 -0.040047
C6    C     C_R   0.845675 0.661320 0.589510 -0.061880
C7    C     C_R   0.997357 0.721230 0.907291 -0.159944
C8    C     C_R   0.000605 0.778948 0.937087 -0.169245
C9    C     C_R   0.944981 0.840375 0.854008 -0.215262
C10   C     C_R   0.940507 0.782014 0.822520 0.085147
C11   C     C_R   0.967615 0.722163 0.850577 0.142935
C12   C     C_R   0.908239 0.780724 0.764550 0.067167
C13   C     C_R   0.915971 0.720015 0.735434 0.053457
C14   C     C_R   0.931708 0.662154 0.766108 -0.202223
C15   C     C_R   0.960003 0.663336 0.822228 -0.205431
C16   C     C_R   0.858920 0.837540 0.735158 -0.183733
C17   C     C_R   0.810088 0.834848 0.680198 -0.176659
C18   C     C_R   0.820342 0.776389 0.651326 0.108415
C19   C     C_R   0.889139 0.718792 0.677141 -0.010955
C20   C     C_R   0.758669 0.775192 0.596777 -0.162286
C21   C     C_R   0.762903 0.717520 0.567130 -0.248444
C22   C     C_R   0.921225 0.662563 0.643152 0.264554
H1    H     H_    0.973044 0.617452 0.843840 0.127254
H2    H     H_    0.706102 0.717132 0.525828 0.126328
H3    H     H_    0.762557 0.879211 0.660062 0.123805
H4    H     H_    0.017632 0.675531 0.928751 0.114128
H5    H     H_    0.024056 0.777082 0.980816 0.106743
H6    H     H_    0.929902 0.887874 0.835758 0.094540
H7    H     H_    0.912779 0.614807 0.747885 0.174550
H8    H     H_    0.845988 0.884666 0.754121 0.124029
H9    H     H_    0.701026 0.818707 0.577455 0.125408
C23   C     C_R   0.731465 0.258017 0.721776 -0.150915
H10   H     H_    0.595602 0.264420 0.700377 0.133615
C24   C     C_R   0.890961 0.294723 0.706176 0.055471
C25   C     C_R   0.065839 0.285938 0.734146 -0.154436
H11   H     H_    0.190819 0.313748 0.722680 0.132624
C26   C     C_R   0.081153 0.241186 0.777220 -0.170621
H12   H     H_    0.217757 0.235555 0.798310 0.171397
C27   C     C_R   0.922304 0.204119 0.793110 0.031086
C28   C     C_R   0.744375 0.212761 0.764794 0.354296
C29   C     C_1   0.875293 0.340955 0.661289 -0.031661
C30   C     C_1   0.944899 0.158415 0.838364 -0.053952
C31   C     C_1   0.960424 0.120467 0.876232 -0.186256
C32   C     C_1   0.862985 0.379241 0.623583 -0.180860
H13   H     H_    0.698985 0.702297 0.296288 0.112205
C33   C     C_R   0.596712 0.767390 0.233320 -0.155767
H14   H     H_    0.740580 0.780171 0.220847 0.110817
C34   C     C_R   0.436087 0.795030 0.206671 0.135964
C35   C     C_R   0.251318 0.777347 0.223826 -0.155586
H15   H     H_    0.125245 0.797952 0.203890 0.112336
C36   C     C_R   0.227518 0.732862 0.266861 -0.155724
H16   H     H_    0.083650 0.720077 0.279331 0.110808
C37   C     C_R   0.388143 0.705220 0.293509 0.135991
C38   C     C_R   0.572912 0.722906 0.276356 -0.155650
C39   C     C_1   0.459835 0.841026 0.161755 -0.059579
C40   C     C_1   0.364397 0.659202 0.338409 -0.059982
C41   C     C_1   0.349020 0.620984 0.376147 -0.192412
C42   C     C_1   0.475217 0.879210 0.123994 -0.192309
C43   C     C_R   0.472806 0.161525 0.089166 -0.042902
C44   C     C_R   0.352180 0.338553 0.410911 -0.042463
C45   C     C_R   0.535400 0.276897 0.094995 -0.161037
C46   C     C_R   0.526251 0.219779 0.064560 -0.166526
C47   C     C_R   0.429078 0.160655 0.145110 -0.214697
C48   C     C_R   0.440803 0.218257 0.177533 0.086698
C49   C     C_R   0.494678 0.276639 0.150986 0.138935
C50   C     C_R   0.403812 0.219992 0.235170 0.057804
C51   C     C_R   0.421367 0.280075 0.264917 0.057902
C52   C     C_R   0.474754 0.336383 0.236008 -0.186807
C53   C     C_R   0.510085 0.334517 0.180383 -0.200674
C54   C     C_R   0.350524 0.163677 0.264084 -0.186577
C55   C     C_R   0.315255 0.165539 0.319712 -0.200284
C56   C     C_R   0.330584 0.223422 0.349105 0.138466
C57   C     C_R   0.384337 0.281814 0.322551 0.086616
C58   C     C_R   0.289904 0.223160 0.405098 -0.160222
C59   C     C_R   0.298929 0.280285 0.435527 -0.167182
C60   C     C_R   0.395884 0.339427 0.354965 -0.214894
H17   H     H_    0.551307 0.379122 0.160124 0.123733
H18   H     H_    0.433368 0.385953 0.338050 0.094215
H19   H     H_    0.262851 0.279160 0.478438 0.108523
H20   H     H_    0.274135 0.120927 0.339977 0.124204
H21   H     H_    0.577310 0.321425 0.074773 0.114376
H22   H     H_    0.562344 0.220900 0.021649 0.108807
H23   H     H_    0.391389 0.114143 0.162014 0.094505
H24   H     H_    0.491335 0.383162 0.255216 0.123763
H25   H     H_    0.334036 0.116891 0.244882 0.123975
H26   H     H_    0.248109 0.178623 0.425326 0.115340
O11   O     O_R   0.323320 0.942780 0.056240 -0.535181
O12   O     O_R   0.647300 0.077050 0.046060 -0.537981
O13   O     O_R   0.813840 0.057330 0.943840 -0.536351
C61   C     C_R   0.478536 0.100945 0.056844 0.694685
O14   O     O_R   0.653250 0.944380 0.062400 -0.537086
O15   O     O_R   0.819830 0.923720 0.960300 -0.536008
C62   C     C_R   0.485181 0.924447 0.078306 0.723804
O16   O     O_R   0.317330 0.076390 0.039790 -0.536467
O17   O     O_3   0.483830 0.993470 0.966560 -0.366269
V3    V     V_3+5 0.760140 0.001210 0.006210 1.425739
O18   O     O_R   0.149290 0.922840 0.953850 -0.538149
C63   C     C_R   0.980898 0.899098 0.943160 0.694727
O19   O     O_R   0.143340 0.055500 0.937510 -0.535966
C64   C     C_R   0.973610 0.075493 0.921805 0.725371
V4    V     V_3+5 0.259690 0.998600 0.993650 1.430173
O20   O     O_3   0.986130 0.006520 0.033440 -0.367239
O21   O     O_3   0.580186 0.178610 0.777270 -0.656753
H27   H     H_    0.606159 0.148586 0.808017 0.291737
O22   O     O_3   0.034614 0.610504 0.659123 -0.659415
H28   H     H_    0.139547 0.627789 0.682458 0.290721

loop_
_geom_bond_atom_site_label_1
_geom_bond_atom_site_label_2
_ccdc_geom_bond_type
C13   C19   A    
O15   C63   A    
C36   C37   A    
C59   H19   S    
C31   C64   S    
C45   C46   A    
C4    C6    S    
O2    C1    A    
C7    C8    A    
C45   H21   S    
H13   C38   S    
C1    O6    A    
C5    C63   S    
C21   H2    S    
C47   H23   S    
C25   C26   A    
C43   C47   A    
O13   C64   A    
C55   H20   S    
C14   C15   A    
C20   H9    S    
C9    C10   A    
C16   C17   A    
C56   C58   A    
O5    C3    A    
C18   C19   A    
C29   C32   T    
C33   C34   A    
V2    O10   S    
C5    C8    A    
V3    O20   S    
C35   C36   A    
C46   H22   S    
O17   V4    S    
C30   C31   T    
O8    V2    S    
C56   C57   A    
C33   C38   A    
C25   H11   S    
C34   C39   S    
C40   C41   T    
C26   C27   A    
O17   V3    S    
O14   V3    S    
O1    V2    S    
C11   C15   A    
C52   H24   S    
O7    V1    S    
O18   V4    S    
C53   H17   S    
C23   C28   A    
O13   V3    S    
O1    C2    A    
O9    C4    A    
C1    C41   S    
C44   C60   A    
C23   C24   A    
O11   C62   A    
O12   V3    S    
O16   V4    S    
C27   C28   A    
C12   C13   A    
O19   V4    S    
C2    C44   S    
O4    C2    A    
C8    H5    S    
C50   C51   A    
C15   H1    S    
C13   C14   A    
C5    C9    A    
C51   C52   A    
C34   C35   A    
C7    C11   A    
C47   C48   A    
O5    V1    S    
C17   C18   A    
C7    H4    S    
C50   C54   A    
C55   C56   A    
C49   C53   A    
C37   C40   S    
O12   C61   A    
C19   C22   A    
O14   C62   A    
C48   C49   A    
C6    C22   A    
C3    C32   S    
O3    C4    A    
C43   C61   S    
C60   H18   S    
C37   C38   A    
O6    V2    S    
O9    V2    S    
C54   H25   S    
C10   C12   A    
O2    V1    S    
O15   V3    S    
C44   C59   A    
C23   H10   S    
C28   O21   S    
V4    O20   S    
C57   C60   A    
C24   C25   A    
O19   C64   A    
C58   C59   A    
C12   C16   A    
C48   C50   A    
C52   C53   A    
C42   C62   S    
O11   V4    S    
C43   C46   A    
O8    C3    A    
C39   C42   T    
C20   C21   A    
C27   C30   S    
C26   H12   S    
C33   H14   S    
O4    V1    S    
O3    V1    S    
V1    O10   S    
O18   C63   A    
C18   C20   A    
C9    H6    S    
C22   O22   S    
C24   C29   S    
C16   H8    S    
C51   C57   A    
C61   O16   A    
O7    V2    S    
C35   H15   S    
C58   H26   S    
C6    C21   A    
C36   H16   S    
C54   C55   A    
C17   H3    S    
C45   C49   A    
C10   C11   A    
O22   H28   S    
O21   H27   S    
C14   H7    S    
