data_mof_unit_31850.cif
_audit_creation_date              2012-12-10T17:54:25-0500
_audit_creation_method            fapswitch 2.2
_symmetry_space_group_name_H-M    P1
_symmetry_Int_Tables_number       1
_space_group_crystal_system       triclinic
_cell_length_a                    27.744178
_cell_length_b                    10.715553
_cell_length_c                    9.870271
_cell_angle_alpha                 89.142324
_cell_angle_beta                  89.97112
_cell_angle_gamma                 91.699814
_cell_volume                      2932.75323025

loop_
_atom_site_label
_atom_site_type_symbol
_atom_type_description
_atom_site_fract_x
_atom_site_fract_y
_atom_site_fract_z
_atom_type_partial_charge
C1    C     C_R   0.502793 0.259708 0.502112 0.875453
C2    C     C_R   0.973428 0.389648 0.472934 0.044183
C3    C     C_R   0.975578 0.616425 0.512593 0.057299
C4    C     C_R   0.406046 0.499433 0.500054 0.863211
C5    C     C_R   0.949260 0.502559 0.493564 0.074869
C6    C     C_R   0.945621 0.280444 0.444103 -0.219470
C7    C     C_R   0.895647 0.281057 0.443045 -0.134162
C8    C     C_R   0.871585 0.390421 0.470251 -0.021811
C9    C     C_R   0.898223 0.501564 0.495433 -0.054164
C10   C     C_R   0.873733 0.611687 0.522610 -0.021364
C11   C     C_R   0.823311 0.608622 0.523972 0.504922
C12   C     C_R   0.277710 0.496193 0.624297 0.241327
C13   C     C_R   0.821196 0.391676 0.472056 0.505038
C14   C     C_R   0.722209 0.505821 0.621964 -0.098764
C15   C     C_R   0.672138 0.505969 0.622474 -0.213046
C16   C     C_R   0.494847 0.738769 0.499543 0.893468
C17   C     C_R   0.671842 0.492992 0.376806 -0.213023
C18   C     C_R   0.721897 0.492591 0.376713 -0.100495
C19   C     C_R   0.747023 0.499134 0.499167 0.320329
C20   C     C_R   0.024384 0.389583 0.481223 0.060124
C21   C     C_R   0.050823 0.504846 0.491350 0.069087
C22   C     C_R   0.026527 0.618528 0.501275 -0.000363
C23   C     C_R   0.252991 0.500206 0.499955 0.329309
C24   C     C_R   0.049876 0.277527 0.481533 -0.219916
C25   C     C_R   0.104173 0.734668 0.495089 0.189693
C26   C     C_R   0.949892 0.724323 0.544460 -0.220613
C27   C     C_R   0.899920 0.721844 0.548761 -0.136431
C28   C     C_R   0.593957 0.500095 0.499967 0.885277
C29   C     C_R   0.053828 0.731457 0.497385 -0.207179
C30   C     C_R   0.506095 0.106186 0.762944 -0.161184
C31   C     C_R   0.489425 0.042333 0.878766 -0.145232
C32   C     C_R   0.464249 0.929154 0.866429 -0.152645
C33   C     C_R   0.460138 0.874214 0.739821 -0.145294
C34   C     C_R   0.101946 0.506042 0.491919 -0.089351
C35   C     C_R   0.481120 0.933149 0.623548 0.098880
C36   C     C_R   0.497423 0.057356 0.631822 0.097130
C37   C     C_R   0.504219 0.125574 0.507952 -0.119254
C38   C     C_R   0.504694 0.064442 0.383834 -0.213052
C39   C     C_R   0.498528 0.937526 0.380510 -0.209525
C40   C     C_R   0.176200 0.392420 0.491767 0.500043
C41   C     C_R   0.488347 0.871080 0.500118 -0.127930
C42   C     C_R   0.436003 0.337701 0.142901 -0.174791
C43   C     C_R   0.404269 0.258699 0.073547 -0.209045
C44   C     C_R   0.404212 0.259139 0.933365 -0.182432
C45   C     C_R   0.126000 0.391787 0.489178 -0.006114
C46   C     C_R   0.436031 0.338214 0.861834 -0.170751
C47   C     C_R   0.468449 0.420143 0.928787 0.150658
C48   C     C_R   0.468455 0.420060 0.073644 0.168734
C49   C     C_R   0.530035 0.576766 0.070340 -0.127436
C50   C     C_R   0.530021 0.576730 0.926933 -0.118393
C51   C     C_R   0.179900 0.615100 0.498065 0.509625
C52   C     C_R   0.278178 0.502503 0.377366 -0.151528
C53   C     C_R   0.328142 0.501639 0.377237 -0.221626
C54   C     C_R   0.328029 0.495497 0.623467 -0.218602
C55   C     C_3   0.129335 0.862001 0.491614 -0.759216
C56   C     C_R   0.099694 0.278892 0.485318 -0.141132
C57   C     C_3   0.250672 0.492887 0.756584 -0.893032
C58   C     C_R   0.129011 0.620581 0.495494 -0.043990
C59   C     C_R   0.353391 0.498739 0.500237 -0.080345
C60   C     C_R   0.646617 0.499696 0.499777 -0.045609
H1    H     H_    0.347328 0.492644 0.718837 0.166127
H2    H     H_    0.495285 0.081997 0.977885 0.146310
H3    H     H_    0.449403 0.881834 0.955406 0.141838
H4    H     H_    0.440501 0.785703 0.733831 0.160644
H5    H     H_    0.502809 0.891482 0.284404 0.169595
H6    H     H_    0.554525 0.639384 0.123425 0.149037
H7    H     H_    0.433927 0.331137 0.250318 0.210564
H8    H     H_    0.379704 0.196411 0.129106 0.163937
H9    H     H_    0.379746 0.196874 0.879527 0.165424
H10   H     H_    0.434546 0.331141 0.754562 0.211747
H11   H     H_    0.554489 0.639364 0.871686 0.155977
H12   H     H_    0.258839 0.505358 0.282131 0.144939
H13   H     H_    0.117556 0.190311 0.485531 0.185560
H14   H     H_    0.653515 0.511288 0.718592 0.161520
H15   H     H_    0.741803 0.510792 0.716691 0.139568
H16   H     H_    0.875928 0.194997 0.420811 0.192380
H17   H     H_    0.961384 0.193206 0.418460 0.141768
H18   H     H_    0.032363 0.186434 0.482847 0.136428
H19   H     H_    0.346922 0.503753 0.280952 0.173629
H20   H     H_    0.103542 0.939333 0.488283 0.191722
H21   H     H_    0.151394 0.874976 0.584411 0.269576
H22   H     H_    0.152142 0.872280 0.399443 0.267329
H23   H     H_    0.967377 0.811769 0.570768 0.140923
H24   H     H_    0.275524 0.489542 0.844693 0.234319
H25   H     H_    0.228896 0.577692 0.764921 0.254517
H26   H     H_    0.226320 0.408847 0.761600 0.254288
H27   H     H_    0.652999 0.487984 0.280878 0.162858
H28   H     H_    0.881888 0.807017 0.573027 0.191306
H29   H     H_    0.741248 0.487691 0.281714 0.139510
H30   H     H_    0.036453 0.819943 0.491762 0.140261
H31   H     H_    0.510600 0.114338 0.288649 0.171933
H32   H     H_    0.527196 0.190742 0.779449 0.173564
N1    N     N_R   0.201673 0.502605 0.496951 -0.350815
N2    N     N_R   0.798350 0.499747 0.498648 -0.358477
N3    N     N_R   0.499540 0.498800 0.142780 -0.122310
N4    N     N_R   0.499520 0.498720 0.857170 -0.127464
O1    O     O_R   0.500000 0.316780 0.614690 -0.653791
O2    O     O_R   0.571250 0.499990 0.614680 -0.620014
O3    O     O_R   0.571240 0.499970 0.385350 -0.617774
O4    O     O_2   0.199653 0.283803 0.489512 -0.561277
O5    O     O_2   0.795137 0.285867 0.448329 -0.550689
O6    O     O_2   0.207912 0.719885 0.502434 -0.564059
O7    O     O_2   0.799308 0.713552 0.549253 -0.551301
O8    O     O_R   0.500000 0.316750 0.385360 -0.638590
O9    O     O_R   0.428760 0.500030 0.614650 -0.648993
O10   O     O_R   0.428750 0.500010 0.385320 -0.639158
O11   O     O_R   0.500000 0.683250 0.614640 -0.622529
O12   O     O_R   0.500000 0.683220 0.385310 -0.618376
Zn1   Zn    Zn3+2 0.500000 0.500020 0.653130 0.927875
Zn2   Zn    Zn3+2 0.500000 0.499980 0.346870 0.938297

loop_
_geom_bond_atom_site_label_1
_geom_bond_atom_site_label_2
_ccdc_geom_bond_type
C10   C27   A    
C26   H23   S    
C48   N3    A    
O11   Zn1   S    
C15   C60   A    
C35   C36   A    
C40   N1    A    
C50   H11   S    
C53   C59   A    
C7    C8    A    
C39   C41   A    
C31   C32   A    
C51   O6    S    
C12   C23   A    
C26   C27   A    
C8    C13   A    
C36   C37   A    
C22   C29   A    
C30   C31   A    
C57   H26   S    
C18   C19   A    
C16   O11   A    
C20   C24   A    
C45   C56   A    
O12   Zn2   S    
C8    C9    A    
C47   N4    A    
C55   H21   S    
C9    C10   A    
C1    C37   S    
O2    Zn1   S    
C21   C22   A    
C39   H5    S    
C31   H2    S    
C2    C6    A    
C29   H30   S    
N4    Zn1   S    
C44   C46   A    
C54   C59   A    
C28   C60   S    
C25   C29   A    
C40   C45   A    
C49   H6    S    
C2    C20   A    
C30   H32   S    
C1    O1    A    
C34   C45   A    
C43   H8    S    
C6    H17   S    
C21   C34   A    
O3    Zn2   S    
C4    O10   A    
C38   H31   S    
C23   N1    S    
C43   C44   A    
C5    C9    A    
C37   C38   A    
C52   H12   S    
O1    Zn1   S    
C47   C48   A    
C17   C18   A    
C57   H24   S    
C44   H9    S    
C51   C58   A    
C42   C48   A    
C49   N3    A    
C55   H22   S    
C1    O8    A    
C6    C7    A    
C19   N2    S    
C51   N1    A    
C12   C57   S    
C28   O3    A    
C24   H18   S    
C42   H7    S    
C2    C5    A    
C42   C43   A    
C13   O5    S    
C52   C53   A    
C11   N2    A    
O10   Zn2   S    
C28   O2    A    
O9    Zn1   S    
C46   C47   A    
C56   H13   S    
C53   H19   S    
C17   H27   S    
C18   H29   S    
C14   C19   A    
C3    C26   A    
C25   C55   S    
C32   H3    S    
C3    C5    A    
N3    Zn2   S    
C40   O4    S    
C7    H16   S    
C54   H1    S    
C24   C56   A    
C4    O9    A    
C30   C36   A    
C13   N2    A    
C14   H15   S    
C32   C33   A    
O8    Zn2   S    
C55   H20   S    
C50   N4    A    
C23   C52   A    
C38   C39   A    
C33   H4    S    
C4    C59   S    
C33   C35   A    
C57   H25   S    
C27   H28   S    
C35   C41   A    
C46   H10   S    
C10   C11   A    
C16   O12   A    
C17   C60   A    
C15   H14   S    
C20   C21   A    
C49   C50   A    
C25   C58   A    
C34   C58   A    
C14   C15   A    
C3    C22   A    
C11   O7    S    
C16   C41   S    
C12   C54   A    
