data_mof_unit_54595.cif
_audit_creation_date              2012-12-11T17:12:44-0500
_audit_creation_method            fapswitch 2.2
_symmetry_space_group_name_H-M    P1
_symmetry_Int_Tables_number       1
_space_group_crystal_system       triclinic
_cell_length_a                    17.177405
_cell_length_b                    6.887676
_cell_length_c                    14.321192
_cell_angle_alpha                 90.003911
_cell_angle_beta                  109.902976
_cell_angle_gamma                 89.998746
_cell_volume                      1593.17035603

loop_
_atom_site_label
_atom_site_type_symbol
_atom_type_description
_atom_site_fract_x
_atom_site_fract_y
_atom_site_fract_z
_atom_type_partial_charge
O1    O     O_R   0.314130 0.635770 0.168990 -0.529061
O2    O     O_R   0.685870 0.364230 0.831010 -0.531287
O3    O     O_R   0.185870 0.135770 0.331010 -0.530804
O4    O     O_R   0.814130 0.864230 0.668990 -0.532856
O5    O     O_R   0.146800 0.302460 0.139760 -0.539830
O6    O     O_R   0.853200 0.697540 0.860240 -0.534725
O7    O     O_R   0.353200 0.802460 0.360240 -0.536351
O8    O     O_R   0.646800 0.197540 0.639760 -0.536564
C1    C     C_R   0.113880 0.475803 0.113056 0.791258
C2    C     C_R   0.886092 0.524190 0.886995 0.772014
C3    C     C_R   0.386096 0.975813 0.386987 0.792709
C4    C     C_R   0.613910 0.024184 0.613003 0.776504
O9    O     O_R   0.311100 0.305780 0.157130 -0.544234
O10   O     O_R   0.688900 0.694220 0.842870 -0.535423
O11   O     O_R   0.188900 0.805780 0.342870 -0.544192
O12   O     O_R   0.811100 0.194220 0.657130 -0.533408
O13   O     O_R   0.351340 0.139640 0.348510 -0.535668
O14   O     O_R   0.648660 0.860360 0.651490 -0.532593
O15   O     O_R   0.148660 0.639640 0.151490 -0.534204
O16   O     O_R   0.851340 0.360360 0.848510 -0.546092
C5    C     C_R   0.332120 0.475149 0.134857 0.812093
C6    C     C_R   0.667882 0.524850 0.865146 0.817224
C7    C     C_R   0.167923 0.975176 0.365157 0.807169
C8    C     C_R   0.832108 0.024839 0.634875 0.814359
C9    C     C_1   0.533507 0.008898 0.533196 -0.128284
C10   C     C_1   0.466437 0.991080 0.466905 -0.096663
C11   C     C_1   0.966442 0.508913 0.966894 -0.120822
C12   C     C_1   0.033512 0.491068 0.033182 -0.098181
O17   O     O_3   0.263010 0.470920 0.312770 -0.363724
O18   O     O_3   0.736990 0.529080 0.687230 -0.360617
O19   O     O_3   0.236990 0.970920 0.187230 -0.364225
O20   O     O_3   0.763010 0.029080 0.812770 -0.366697
V1    V     V_3+5 0.247590 0.194450 0.238360 1.569121
V2    V     V_3+5 0.752410 0.805550 0.761640 1.594933
V3    V     V_3+5 0.252410 0.694450 0.261640 1.576188
V4    V     V_3+5 0.747590 0.305550 0.738360 1.584014
C13   C     C_R   0.119184 0.986834 0.432426 -0.183771
C14   C     C_R   0.880881 0.013182 0.567675 -0.252227
C15   C     C_R   0.380804 0.486739 0.067478 -0.220501
C16   C     C_R   0.619282 0.513395 0.932633 -0.221313
C17   C     C_R   0.895319 0.939449 0.407457 0.115236
C18   C     C_R   0.104001 0.060872 0.592334 0.129086
C19   C     C_R   0.603997 0.437446 0.092403 0.105902
C20   C     C_R   0.396092 0.562620 0.907721 0.127829
C21   C     C_R   0.844429 0.960970 0.466633 0.478899
C22   C     C_R   0.155632 0.039635 0.533525 0.330690
C23   C     C_R   0.655745 0.460002 0.033725 0.426943
C24   C     C_R   0.344418 0.540637 0.966488 0.336850
C25   C     C_R   0.966088 0.047282 0.607789 -0.230060
C26   C     C_R   0.033990 0.952434 0.391980 -0.268298
C27   C     C_R   0.534141 0.548805 0.892472 -0.229864
C28   C     C_R   0.465932 0.451182 0.107635 -0.227648
C29   C     C_R   0.017604 0.027601 0.550069 0.101021
C30   C     C_R   0.982125 0.972309 0.449256 -0.008037
C31   C     C_R   0.482438 0.528582 0.949855 0.071628
C32   C     C_R   0.517654 0.471546 0.050269 0.064552
H1    H     H_    0.008765 0.912633 0.314321 0.129621
H2    H     H_    0.991978 0.086897 0.685535 0.183059
H3    H     H_    0.491638 0.410284 0.185216 0.171953
H4    H     H_    0.508407 0.589515 0.814867 0.183036
S1    S     S_3+6 0.265269 0.075076 0.583193 -0.022512
O21   O     O_2   0.287321 0.247339 0.532839 -0.317821
O22   O     O_2   0.298188 0.108905 0.693361 -0.352311
O23   O     O_3   0.312269 0.877825 0.558002 -0.503007
H5    H     H_    0.291744 0.767930 0.587762 0.346917
S2    S     S_3+6 0.734966 0.928587 0.415359 0.012953
O24   O     O_2   0.705452 0.890343 0.305480 -0.307113
O25   O     O_2   0.710318 0.760754 0.466300 -0.336920
O26   O     O_3   0.689012 0.131446 0.436408 -0.513775
H6    H     H_    0.629549 0.115079 0.397149 0.348861
S3    S     S_3+6 0.234811 0.576402 0.916862 -0.021731
O27   O     O_2   0.212905 0.749253 0.966959 -0.317816
O28   O     O_2   0.201883 0.609451 0.806634 -0.353149
O29   O     O_3   0.187697 0.379690 0.942389 -0.503697
H7    H     H_    0.208015 0.269449 0.912625 0.347052
S4    S     S_3+6 0.765259 0.422720 0.083233 -0.024777
O30   O     O_2   0.807610 0.595113 0.057417 -0.361574
O31   O     O_2   0.798001 0.396364 0.193947 -0.341044
O32   O     O_3   0.788332 0.223545 0.029945 -0.498058
H8    H     H_    0.849619 0.219557 0.052969 0.347835
N1    N     N_3   0.858321 0.883327 0.305343 -0.520010
H9    H     H_    0.884924 0.752997 0.293847 0.270336
H10   H     H_    0.869353 0.991741 0.260292 0.269316
N2    N     N_3   0.137433 0.117320 0.694718 -0.623878
H11   H     H_    0.178233 0.010066 0.734654 0.305423
H12   H     H_    0.167689 0.250624 0.700096 0.301889
N3    N     N_3   0.637197 0.378400 0.194411 -0.609245
H13   H     H_    0.667997 0.245999 0.199113 0.316464
H14   H     H_    0.677434 0.485645 0.235330 0.329460
N4    N     N_3   0.362760 0.620574 0.805565 -0.620587
H15   H     H_    0.322040 0.513628 0.765153 0.304713
H16   H     H_    0.332406 0.753633 0.800670 0.302136

loop_
_geom_bond_atom_site_label_1
_geom_bond_atom_site_label_2
_ccdc_geom_bond_type
C2    C11   S    
C16   C23   A    
S2    O25   D    
C31   C32   A    
O1    C5    A    
O3    C7    A    
S4    O32   S    
N3    H13   S    
N1    H9    S    
C14   C25   A    
C29   C30   A    
O7    C3    A    
C26   C30   A    
O20   V4    S    
N2    H12   S    
C23   S4    S    
C18   C29   A    
O8    V4    S    
O4    C8    A    
S2    O26   S    
O3    V1    S    
O17   V1    S    
C18   C22   A    
S1    O22   D    
C14   C21   A    
C1    O15   A    
C2    O16   A    
O5    V1    S    
O2    C6    A    
C8    C14   S    
O19   V1    S    
O11   C7    A    
S2    O24   D    
C17   N1    S    
O12   C8    A    
S1    O21   D    
O13   V1    S    
O11   V3    S    
N1    H10   S    
O4    V2    S    
O29   H7    S    
O18   V2    S    
C22   S1    S    
C18   N2    S    
N2    H11   S    
S3    O28   D    
C3    C10   S    
C9    C10   T    
C7    C13   S    
C25   H2    S    
O6    V2    S    
O20   V2    S    
S1    O23   S    
O5    C1    A    
C28   H3    S    
N4    H16   S    
C5    C15   S    
O8    C4    A    
C6    C16   S    
O9    C5    A    
S4    O30   D    
O14   V2    S    
N3    H14   S    
O19   V3    S    
C24   S3    S    
C11   C12   T    
C20   N4    S    
O1    V3    S    
O2    V4    S    
C3    O13   A    
C26   H1    S    
O7    V3    S    
S4    O31   D    
O10   V2    S    
O6    C2    A    
S3    O29   S    
C16   C27   A    
O17   V3    S    
O18   V4    S    
C4    C9    S    
C19   N3    S    
O23   H5    S    
O10   C6    A    
S3    O27   D    
O15   V3    S    
O12   V4    S    
C13   C26   A    
C20   C31   A    
N4    H15   S    
C25   C29   A    
C15   C28   A    
C27   C31   A    
O26   H6    S    
C17   C30   A    
O32   H8    S    
O16   V4    S    
C28   C32   A    
C19   C32   A    
O9    V1    S    
C4    O14   A    
C21   S2    S    
C17   C21   A    
C27   H4    S    
C13   C22   A    
C19   C23   A    
C20   C24   A    
C1    C12   S    
C15   C24   A    
