data_mof_unit_59855.cif
_audit_creation_date              2012-12-11T17:06:29-0500
_audit_creation_method            fapswitch 2.2
_symmetry_space_group_name_H-M    P1
_symmetry_Int_Tables_number       1
_space_group_crystal_system       triclinic
_cell_length_a                    7.005638
_cell_length_b                    14.476148
_cell_length_c                    16.036798
_cell_angle_alpha                 90.462145
_cell_angle_beta                  90.031111
_cell_angle_gamma                 90.376732
_cell_volume                      1626.27794735

loop_
_atom_site_label
_atom_site_type_symbol
_atom_type_description
_atom_site_fract_x
_atom_site_fract_y
_atom_site_fract_z
_atom_type_partial_charge
O1    O     O_R   0.494400 0.415450 0.412630 -0.530358
O2    O     O_R   0.823940 0.405730 0.586760 -0.530849
O3    O     O_R   0.994240 0.584550 0.587370 -0.544317
C1    C     C_R   0.654127 0.383752 0.615392 0.762647
O4    O     O_R   0.824110 0.404430 0.413240 -0.533564
O5    O     O_R   0.994420 0.583240 0.412620 -0.548044
C2    C     C_R   0.654872 0.383269 0.383435 0.730556
O6    O     O_R   0.494230 0.416760 0.587380 -0.522087
O7    O     O_3   0.660800 0.558670 0.500000 -0.386188
V1    V     V_3+5 0.935650 0.489120 0.500000 1.522645
O8    O     O_R   0.324140 0.594270 0.413240 -0.541056
C3    C     C_R   0.155490 0.616013 0.384409 0.718401
O9    O     O_R   0.323960 0.595570 0.586760 -0.529452
C4    C     C_R   0.155776 0.617311 0.615733 0.749076
V2    V     V_3+5 0.435660 0.510880 0.500000 1.519197
O10   O     O_3   0.160640 0.441330 0.500000 -0.356017
C5    C     C_3   0.963460 0.707138 0.736694 -0.161256
C6    C     C_3   0.083719 0.706742 0.817431 -0.075343
H1    H     H_    0.823515 0.672501 0.727209 0.176791
C7    C     C_3   0.120947 0.810637 0.809379 -0.089868
C8    C     C_3   0.001804 0.812488 0.728350 -0.126474
C9    C     C_3   0.184544 0.791788 0.676790 -0.187294
C10   C     C_3   0.303706 0.790989 0.758484 -0.154971
C11   C     C_3   0.265102 0.686183 0.766896 0.298140
C12   C     C_3   0.146655 0.687179 0.685914 -0.075661
H2    H     H_    0.892691 0.864887 0.712772 0.122004
H3    H     H_    0.226814 0.826939 0.618305 0.133691
H4    H     H_    0.444507 0.825412 0.767310 0.132242
C13   C     C_R   0.283492 0.758203 0.193241 0.062445
C14   C     C_R   0.119897 0.810889 0.179575 -0.073430
C15   C     C_R   0.965892 0.796435 0.233831 -0.121254
H5    H     H_    0.842615 0.839186 0.228322 0.181558
C16   C     C_R   0.976777 0.732906 0.299805 -0.165638
H6    H     H_    0.858691 0.727654 0.342843 0.137539
C17   C     C_R   0.143516 0.681432 0.313695 -0.076494
C18   C     C_R   0.293585 0.692972 0.256970 0.136539
C19   C     C_3   0.496197 0.716529 0.275336 -0.449045
C20   C     C_3   0.482647 0.790534 0.209047 0.090227
H7    H     H_    0.592633 0.658956 0.257600 0.173042
H8    H     H_    0.516347 0.743637 0.339839 0.197527
H9    H     H_    0.576819 0.778453 0.154338 0.115967
C21   C     C_R   0.491665 0.250078 0.688253 0.016205
C22   C     C_R   0.641692 0.315063 0.683698 -0.103157
C23   C     C_R   0.770899 0.319127 0.750520 -0.114544
H10   H     H_    0.866733 0.377202 0.754836 0.196774
C24   C     C_R   0.763260 0.255278 0.816277 0.261165
C25   C     C_R   0.624906 0.183844 0.815644 -0.131232
C26   C     C_R   0.486843 0.184524 0.752780 -0.021828
C27   C     C_3   0.280518 0.197478 0.769580 -0.390846
C28   C     C_3   0.284227 0.270957 0.703577 0.180338
H11   H     H_    0.254652 0.224638 0.833389 0.246275
H12   H     H_    0.196882 0.133966 0.753969 0.141379
C29   C     C_R   0.485606 0.256361 0.302842 0.007626
C30   C     C_R   0.644135 0.314669 0.313775 -0.063206
C31   C     C_R   0.789914 0.308235 0.254107 -0.116348
H13   H     H_    0.905248 0.356999 0.256453 0.170541
C32   C     C_R   0.781548 0.243314 0.188246 -0.081639
H14   H     H_    0.894995 0.242350 0.142482 0.168378
C33   C     C_R   0.623686 0.183478 0.179338 -0.107765
C34   C     C_R   0.477469 0.190912 0.237990 0.136402
C35   C     C_3   0.273011 0.208165 0.219957 0.010145
C36   C     C_3   0.283932 0.283706 0.286723 0.027694
H15   H     H_    0.249464 0.234587 0.155885 0.156647
O11   O     O_R   0.771650 0.079500 0.908680 -0.533028
O12   O     O_R   0.441690 0.091800 0.082800 -0.527136
O13   O     O_R   0.271460 0.912980 0.083410 -0.519827
C37   C     C_R   0.611281 0.115257 0.110324 0.788946
O14   O     O_R   0.441930 0.090510 0.909280 -0.545521
O15   O     O_R   0.271690 0.911670 0.908660 -0.546310
C38   C     C_R   0.611753 0.114511 0.882766 0.725785
O16   O     O_R   0.771410 0.080810 0.083440 -0.519589
O17   O     O_3   0.605100 0.937580 0.996050 -0.379862
V3    V     V_3+5 0.330220 0.007110 0.996030 1.530387
O18   O     O_R   0.941980 0.900620 0.909250 -0.548697
C39   C     C_R   0.110375 0.879652 0.879899 0.669983
O19   O     O_R   0.941740 0.901920 0.082770 -0.544576
C40   C     C_R   0.110395 0.880389 0.111855 0.773545
V4    V     V_3+5 0.830220 0.985300 0.996000 1.515533
O20   O     O_3   0.105210 0.054870 0.996020 -0.353109
C41   C     C_1   0.027036 0.659682 0.894333 0.401900
N1    N     N_1   0.982348 0.622628 0.955010 -0.271616
Br1   Br    Br    0.493078 0.914830 0.257679 -0.503935
Br2   Br    Br    0.916230 0.280130 0.913424 -0.495578
Br3   Br    Br    0.243757 0.394509 0.748301 -0.480159
C42   C     C_1   0.156206 0.246674 0.634615 0.321374
N2    N     N_1   0.051038 0.225568 0.582294 -0.314362
Br4   Br    Br    0.124539 0.096965 0.245050 -0.479646
C43   C     C_1   0.162669 0.267443 0.359303 0.431898
N3    N     N_1   0.065293 0.252546 0.415640 -0.281755
Br5   Br    Br    0.267674 0.408616 0.241217 -0.582048
Br6   Br    Br    0.465825 0.602445 0.799156 -0.503175

loop_
_geom_bond_atom_site_label_1
_geom_bond_atom_site_label_2
_ccdc_geom_bond_type
C31   H13   S    
C17   C18   A    
C1    O6    A    
C28   Br3   S    
C42   N2    T    
C13   C18   A    
C19   C20   S    
C6    C11   S    
C18   C19   S    
O19   V4    S    
C19   H8    S    
O5    C3    A    
C14   C15   A    
C16   C17   A    
C32   C33   A    
V2    O10   S    
O12   V3    S    
C35   H15   S    
O17   V4    S    
C35   Br4   S    
C28   C42   S    
C33   C37   S    
C24   C25   A    
C14   C40   S    
O8    V2    S    
C25   C26   A    
C27   H11   S    
C9    C12   S    
C13   C20   S    
C10   C11   S    
C15   C16   A    
O15   V3    S    
O1    V2    S    
O11   C38   A    
C8    H2    S    
O7    V1    S    
C37   O16   A    
C43   N3    T    
C33   C34   A    
C8    C9    S    
C20   Br1   S    
C29   C34   A    
C23   C24   A    
C16   H6    S    
O18   C39   A    
C11   C12   S    
C20   H9    S    
O4    C2    A    
V4    O20   S    
C41   N1    T    
O12   C37   A    
O14   V3    S    
C29   C30   A    
O13   V3    S    
C36   C43   S    
C5    C8    S    
C7    C39   S    
C34   C35   S    
O2    C1    A    
C22   C23   A    
C25   C38   S    
C13   C14   A    
C29   C36   S    
C15   H5    S    
C7    C10   S    
C27   H12   S    
C5    C6    S    
V3    O20   S    
C21   C26   A    
C10   H4    S    
O19   C40   A    
C3    C17   S    
O3    C4    A    
C21   C28   S    
C6    C41   S    
C26   C27   S    
O6    V2    S    
C9    H3    S    
C31   C32   A    
C21   C22   A    
O2    V1    S    
C11   Br6   S    
C23   H10   S    
O13   C40   A    
C30   C31   A    
O1    C2    A    
O11   V4    S    
O17   V3    S    
O5    V1    S    
O8    C3    A    
C1    C22   S    
C5    C12   S    
O9    V2    S    
O7    V2    S    
O4    V1    S    
C19   H7    S    
O3    V1    S    
V1    O10   S    
C32   H14   S    
C36   Br5   S    
C5    H1    S    
O15   C39   A    
C6    C7    S    
C4    C12   S    
C35   C36   S    
C24   Br2   S    
C7    C8    S    
O14   C38   A    
C27   C28   S    
O18   V4    S    
C9    C10   S    
C2    C30   S    
O9    C4    A    
O16   V4    S    
