data_mof_unit_64862.cif
_audit_creation_date              2012-12-10T17:00:49-0500
_audit_creation_method            fapswitch 2.2
_symmetry_space_group_name_H-M    P1
_symmetry_Int_Tables_number       1
_space_group_crystal_system       triclinic
_cell_length_a                    13.088156
_cell_length_b                    13.060468
_cell_length_c                    19.40567
_cell_angle_alpha                 99.950813
_cell_angle_beta                  80.737265
_cell_angle_gamma                 90.941679
_cell_volume                      3224.42990284

loop_
_atom_site_label
_atom_site_type_symbol
_atom_type_description
_atom_site_fract_x
_atom_site_fract_y
_atom_site_fract_z
_atom_type_partial_charge
C1    C     C_R   0.222500 0.534303 0.527363 0.520728
C2    C     C_2   0.450098 0.511002 0.988448 0.036307
C3    C     C_2   0.536035 0.486548 0.012463 0.258709
C4    C     C_R   0.776524 0.463494 0.473332 0.475623
C5    C     C_R   0.515434 0.483391 0.233394 0.044119
C6    C     C_2   0.889127 0.448152 0.461991 0.294926
C7    C     C_2   0.938052 0.479362 0.517608 -0.103991
C8    C     C_2   0.108638 0.540978 0.540450 -0.081838
C9    C     C_2   0.050724 0.463861 0.511408 0.274796
C10   C     C_2   0.535624 0.890258 0.523285 0.032503
C11   C     C_2   0.535600 0.934150 0.465043 0.008871
C12   C     C_R   0.453416 0.511044 0.912435 0.063162
C13   C     C_2   0.462454 0.107959 0.466275 0.027772
C14   C     C_2   0.544304 0.047446 0.469594 0.015630
C15   C     C_R   0.469123 0.222281 0.477830 0.501640
C16   C     C_R   0.531386 0.777185 0.519550 0.517056
C17   C     C_R   0.510921 0.486122 0.309360 0.507021
C18   C     C_R   0.489063 0.512779 0.690603 0.504749
C19   C     C_R   0.477801 0.512740 0.766704 -0.000004
C20   C     C_R   0.480100 0.418382 0.791415 -0.125130
C21   C     C_R   0.466357 0.416853 0.863873 0.062644
C22   C     C_3   0.067949 0.286289 0.500531 0.026657
C23   C     C_R   0.450347 0.605903 0.887575 0.007415
C24   C     C_3   0.135856 0.273864 0.556086 -0.272496
C25   C     C_3   0.109991 0.174771 0.586639 -0.475163
C26   C     C_3   0.893231 0.347850 0.348452 0.024045
C27   C     C_3   0.882654 0.238892 0.368188 -0.280784
C28   C     C_3   0.824362 0.166813 0.317650 -0.469522
C29   C     C_3   0.712984 0.505432 0.981111 0.010735
C30   C     C_3   0.715277 0.613298 0.959650 -0.273284
C31   C     C_3   0.815180 0.669798 0.972537 -0.476035
C32   C     C_R   0.461188 0.606106 0.814940 -0.127322
C33   C     C_R   0.538637 0.577850 0.135180 -0.146318
C34   C     C_R   0.531993 0.576934 0.207227 -0.132215
C35   C     C_R   0.507283 0.389608 0.186277 0.018253
C36   C     C_R   0.516180 0.390879 0.113751 -0.099701
C37   C     C_R   0.531223 0.484844 0.088413 0.014880
Cl1   Cl    Cl    0.669146 0.097460 0.477561 -0.072803
Cl2   Cl    Cl    0.528510 0.859755 0.380697 -0.066829
Cl3   Cl    Cl    0.342436 0.052587 0.450846 -0.090087
Cl4   Cl    Cl    0.530348 0.967372 0.608158 -0.074197
Cl5   Cl    Cl    0.491074 0.269055 0.215449 -0.066977
Cl6   Cl    Cl    0.437752 0.726232 0.945649 -0.100648
Cl7   Cl    Cl    0.332398 0.546990 0.045951 -0.087165
Cl8   Cl    Cl    0.464687 0.295470 0.892052 -0.060450
H1    H     H_    0.490526 0.345631 0.754388 0.138565
H2    H     H_    0.218652 0.270943 0.531299 0.195982
H3    H     H_    0.123915 0.341622 0.599991 0.143243
H4    H     H_    0.028200 0.177387 0.613480 0.153816
H5    H     H_    0.161166 0.167447 0.625992 0.157436
H6    H     H_    0.122167 0.105538 0.543910 0.162013
H7    H     H_    0.939452 0.340463 0.294513 0.162568
H8    H     H_    0.817059 0.380332 0.344085 0.134087
H9    H     H_    0.960980 0.205620 0.365795 0.175936
H10   H     H_    0.840363 0.243398 0.423046 0.168422
H11   H     H_    0.744450 0.196870 0.321053 0.154255
H12   H     H_    0.510467 0.319037 0.077182 0.137330
H13   H     H_    0.819736 0.088156 0.332276 0.164968
H14   H     H_    0.865287 0.160332 0.262267 0.152327
H15   H     H_    0.781433 0.460229 0.950123 0.160455
H16   H     H_    0.721448 0.511069 0.037784 0.133975
H17   H     H_    0.708736 0.604798 0.902532 0.183026
H18   H     H_    0.648637 0.661092 0.990809 0.160955
H19   H     H_    0.822297 0.680427 0.029607 0.154383
H20   H     H_    0.814351 0.747491 0.956726 0.157684
H21   H     H_    0.883238 0.624953 0.940645 0.153435
H22   H     H_    0.895223 0.517195 0.568115 0.044325
H23   H     H_    0.071494 0.609992 0.573927 0.057033
H24   H     H_    0.538563 0.649580 0.242812 0.138682
H25   H     H_    0.549834 0.650795 0.115734 0.115904
H26   H     H_    0.459167 0.679322 0.796065 0.141996
H27   H     H_    0.080263 0.217024 0.457835 0.155783
H28   H     H_    0.984315 0.286968 0.523887 0.114153
O1    O     O_3   0.500000 0.500000 0.500000 -0.446924
O2    O     O_R   0.441420 0.437150 0.344000 -0.518761
O3    O     O_R   0.438960 0.578560 0.667440 -0.541394
O4    O     O_R   0.575450 0.541060 0.341470 -0.549401
O5    O     O_R   0.544160 0.443230 0.647100 -0.540184
O6    O     O_3   0.097496 0.374643 0.469153 -0.484237
O7    O     O_3   0.947670 0.415019 0.395055 -0.528548
O8    O     O_3   0.623796 0.450486 0.964095 -0.565380
O9    O     O_R   0.530110 0.266880 0.518530 -0.533177
O10   O     O_R   0.465470 0.738830 0.563940 -0.531814
O11   O     O_R   0.266890 0.467300 0.476120 -0.475655
O12   O     O_R   0.737530 0.526990 0.441410 -0.537771
O13   O     O_R   0.276880 0.592620 0.567490 -0.551012
O14   O     O_R   0.718700 0.413090 0.514970 -0.561892
O15   O     O_R   0.414920 0.276880 0.447500 -0.535858
O16   O     O_R   0.589510 0.717410 0.470040 -0.530270
Zn1   Zn    Zn3+2 0.571990 0.407410 0.544380 0.930591
Zn2   Zn    Zn3+2 0.407420 0.421690 0.442900 0.975835
Zn3   Zn    Zn3+2 0.598910 0.570150 0.439280 0.945040
Zn4   Zn    Zn3+2 0.421690 0.600750 0.573440 0.942800

loop_
_geom_bond_atom_site_label_1
_geom_bond_atom_site_label_2
_ccdc_geom_bond_type
C31   H21   S    
O4    Zn3   S    
C1    C8    S    
C35   C36   A    
C2    C12   S    
C28   H11   S    
C27   H9    S    
C4    O14   A    
O5    Zn1   S    
C1    O11   A    
C12   C23   A    
C26   C27   S    
C36   C37   A    
C22   O6    S    
C30   C31   S    
C11   C14   S    
C27   H10   S    
C5    C17   S    
O10   Zn4   S    
C23   Cl6   S    
C31   H20   S    
C18   C19   S    
C9    O6    S    
O1    Zn3   S    
C35   Cl5   S    
C25   H5    S    
C13   Cl3   S    
C19   C20   A    
C2    Cl7   S    
C8    C9    D    
C25   H4    S    
C3    O8    S    
O15   Zn2   S    
O11   Zn2   S    
C15   O9    A    
O2    Zn2   S    
C16   O16   A    
C13   C14   D    
C10   Cl4   S    
O1    Zn4   S    
C19   C32   A    
C22   H27   S    
O12   Zn3   S    
C32   H26   S    
C21   Cl8   S    
C29   H16   S    
C24   H3    S    
C24   C25   S    
C4    C6    S    
C36   H12   S    
C4    O12   A    
C12   C21   A    
C16   O10   A    
C33   C37   A    
O1    Zn2   S    
C25   H6    S    
C29   O8    S    
C29   C30   S    
O13   Zn4   S    
C26   H7    S    
O3    Zn4   S    
C14   Cl1   S    
C6    O7    S    
C29   H15   S    
C18   O5    A    
C5    C34   A    
C17   O4    A    
C33   C34   A    
O16   Zn3   S    
C11   Cl2   S    
C34   H24   S    
C33   H25   S    
C8    H23   S    
C13   C15   S    
C22   C24   S    
C26   H8    S    
C28   H14   S    
C1    O13   A    
C7    C9    S    
C18   O3    A    
C24   H2    S    
C31   H19   S    
C6    C7    D    
C28   H13   S    
O9    Zn1   S    
C23   C32   A    
O1    Zn1   S    
C30   H17   S    
C2    C3    D    
C10   C16   S    
C5    C35   A    
C26   O7    S    
C10   C11   D    
C7    H22   S    
C20   C21   A    
C3    C37   S    
O14   Zn1   S    
C27   C28   S    
C17   O2    A    
C22   H28   S    
C30   H18   S    
C20   H1    S    
C15   O15   A    
