data_mof_unit_10988.cif
_audit_creation_date              2012-10-26T19:09:58-0400
_audit_creation_method            fapswitch 2.2
_symmetry_space_group_name_H-M    P1
_symmetry_Int_Tables_number       1
_space_group_crystal_system       triclinic
_cell_length_a                    16.055021
_cell_length_b                    14.854329
_cell_length_c                    9.56251
_cell_angle_alpha                 89.907204
_cell_angle_beta                  90.009099
_cell_angle_gamma                 89.998838
_cell_volume                      2280.5271332

loop_
_atom_site_label
_atom_site_type_symbol
_atom_type_description
_atom_site_fract_x
_atom_site_fract_y
_atom_site_fract_z
_atom_type_partial_charge
Br1   Br    Br    0.204045 0.694313 0.812735 -0.367214
Br2   Br    Br    0.998093 0.693655 0.836637 -0.217049
Br3   Br    Br    0.997961 0.306337 0.163407 -0.216939
Br4   Br    Br    0.988907 0.305971 0.835556 -0.223734
Br5   Br    Br    0.488815 0.194031 0.164466 -0.223734
Br6   Br    Br    0.498093 0.193655 0.836637 -0.217049
Br7   Br    Br    0.497961 0.806337 0.163407 -0.216939
Br8   Br    Br    0.488907 0.805971 0.835556 -0.223734
Br9   Br    Br    0.189635 0.715402 0.189784 -0.337972
Br10  Br    Br    0.189818 0.284810 0.810263 -0.338380
Br11  Br    Br    0.203800 0.305385 0.187285 -0.366808
Br12  Br    Br    0.704045 0.194313 0.812735 -0.367214
Br13  Br    Br    0.689635 0.215402 0.189784 -0.337972
Br14  Br    Br    0.689818 0.784810 0.810263 -0.338380
Br15  Br    Br    0.703800 0.805385 0.187285 -0.366808
Br16  Br    Br    0.988815 0.694031 0.164466 -0.223734
C1    C     C_R   0.121403 0.380595 0.500051 0.560425
C2    C     C_R   0.883861 0.623314 0.500089 0.675849
C3    C     C_R   0.383858 0.876691 0.499899 0.675882
C4    C     C_R   0.383861 0.123314 0.500089 0.675849
C5    C     C_3   0.826379 0.241565 0.624762 0.271108
C6    C     C_3   0.821904 0.246674 0.367143 0.266031
C7    C     C_3   0.821963 0.753352 0.632801 0.266092
C8    C     C_3   0.826316 0.758414 0.375175 0.271040
C9    C     C_3   0.326379 0.741565 0.624762 0.271108
C10   C     C_3   0.321904 0.746674 0.367143 0.266031
C11   C     C_3   0.321963 0.253352 0.632801 0.266092
C12   C     C_R   0.121409 0.619397 0.499959 0.560434
C13   C     C_3   0.326316 0.258414 0.375175 0.271040
C14   C     C_3   0.252897 0.674475 0.629084 -0.004979
C15   C     C_3   0.246598 0.682079 0.361835 -0.003876
C16   C     C_3   0.246686 0.317991 0.638092 -0.003876
C17   C     C_3   0.252786 0.325441 0.370807 -0.004998
C18   C     C_3   0.752897 0.174475 0.629084 -0.004979
C19   C     C_3   0.746598 0.182079 0.361835 -0.003876
C20   C     C_3   0.746686 0.817990 0.638092 -0.003876
C21   C     C_3   0.752786 0.825441 0.370807 -0.004998
C22   C     C_3   0.730115 0.354006 0.506475 0.625390
C23   C     C_R   0.621403 0.880595 0.500051 0.560425
C24   C     C_3   0.730114 0.645985 0.493612 0.625413
C25   C     C_3   0.230115 0.854006 0.506475 0.625390
C26   C     C_3   0.230115 0.145985 0.493612 0.625413
C27   C     C_3   0.817042 0.306148 0.499401 -0.016064
C28   C     C_3   0.817041 0.693853 0.500576 -0.016069
C29   C     C_3   0.317042 0.806148 0.499401 -0.016064
C30   C     C_3   0.317041 0.193853 0.500576 -0.016069
C31   C     C_3   0.192396 0.688285 0.499933 -0.159411
C32   C     C_3   0.192387 0.311705 0.500081 -0.159384
C33   C     C_3   0.692396 0.188285 0.499933 -0.159411
C34   C     C_R   0.621409 0.119397 0.499959 0.560434
C35   C     C_3   0.692387 0.811705 0.500081 -0.159384
C36   C     C_3   0.157550 0.785004 0.508772 -0.113520
C37   C     C_3   0.157537 0.214980 0.491431 -0.113486
C38   C     C_3   0.657550 0.285004 0.508772 -0.113520
C39   C     C_3   0.657537 0.714979 0.491431 -0.113486
C40   C     C_3   0.955325 0.579211 0.082878 0.126979
C41   C     C_3   0.957528 0.580488 0.916080 0.137415
C42   C     C_3   0.957506 0.419525 0.083890 0.137439
C43   C     C_3   0.955331 0.420786 0.917087 0.126968
C44   C     C_3   0.455325 0.079211 0.082878 0.126979
C45   C     C_3   0.085752 0.503059 0.081948 -0.092525
C46   C     C_3   0.457528 0.080488 0.916080 0.137415
C47   C     C_3   0.457507 0.919525 0.083890 0.137439
C48   C     C_3   0.455331 0.920786 0.917087 0.126968
C49   C     C_3   0.085747 0.496928 0.918105 -0.092515
C50   C     C_3   0.585752 0.003059 0.081948 -0.092525
C51   C     C_3   0.585747 0.996928 0.918105 -0.092515
C52   C     C_R   0.883858 0.376691 0.499899 0.675882
Cu1   Cu    Cu3+1 0.000100 0.500000 0.642410 1.105415
Cu2   Cu    Cu3+1 0.000100 0.500000 0.357590 1.105355
Cu3   Cu    Cu3+1 0.500100 0.000000 0.642410 1.105415
Cu4   Cu    Cu3+1 0.500100 0.000000 0.357590 1.105355
F1    F     F_    0.900841 0.194307 0.620072 -0.511450
F2    F     F_    0.720582 0.409959 0.391453 -0.495707
F3    F     F_    0.720663 0.590022 0.608636 -0.495802
F4    F     F_    0.725580 0.593504 0.374083 -0.505284
F5    F     F_    0.225651 0.906498 0.625998 -0.505384
F6    F     F_    0.220582 0.909959 0.391453 -0.495707
F7    F     F_    0.220663 0.090022 0.608636 -0.495802
F8    F     F_    0.225580 0.093504 0.374083 -0.505284
F9    F     F_    0.894881 0.196825 0.363171 -0.514729
F10   F     F_    0.894969 0.803149 0.636756 -0.514697
F11   F     F_    0.900742 0.805742 0.379861 -0.511452
F12   F     F_    0.400841 0.694307 0.620072 -0.511450
F13   F     F_    0.394881 0.696825 0.363171 -0.514728
F14   F     F_    0.394969 0.303149 0.636756 -0.514697
F15   F     F_    0.400742 0.305742 0.379861 -0.511452
F16   F     F_    0.725651 0.406498 0.625998 -0.505384
H1    H     H_    0.828538 0.283203 0.720884 0.219927
H2    H     H_    0.268672 0.611573 0.348872 0.200690
H3    H     H_    0.268798 0.388496 0.650891 0.200765
H4    H     H_    0.276722 0.395734 0.372158 0.202660
H5    H     H_    0.776884 0.104207 0.627518 0.202756
H6    H     H_    0.768672 0.111573 0.348872 0.200690
H7    H     H_    0.768798 0.888496 0.650891 0.200765
H8    H     H_    0.776722 0.895734 0.372158 0.202660
H9    H     H_    0.119750 0.793434 0.605177 0.241508
H10   H     H_    0.113780 0.798235 0.421074 0.244121
H11   H     H_    0.113864 0.201782 0.579259 0.244080
H12   H     H_    0.823692 0.291442 0.274065 0.216125
H13   H     H_    0.119624 0.206503 0.395138 0.241577
H14   H     H_    0.619750 0.293434 0.605177 0.241508
H15   H     H_    0.613780 0.298235 0.421074 0.244121
H16   H     H_    0.613864 0.701782 0.579259 0.244080
H17   H     H_    0.619624 0.706503 0.395138 0.241577
H18   H     H_    0.888669 0.574643 0.114365 0.136586
H19   H     H_    0.891516 0.579452 0.880579 0.134758
H20   H     H_    0.891488 0.420597 0.119328 0.134666
H21   H     H_    0.888681 0.425341 0.885533 0.136682
H22   H     H_    0.388669 0.074643 0.114365 0.136586
H23   H     H_    0.823748 0.708592 0.725891 0.216092
H24   H     H_    0.391516 0.079452 0.880579 0.134758
H25   H     H_    0.391488 0.920597 0.119328 0.134666
H26   H     H_    0.388681 0.925341 0.885533 0.136682
H27   H     H_    0.117445 0.565073 0.112929 0.208420
H28   H     H_    0.123922 0.550367 0.874275 0.205689
H29   H     H_    0.123931 0.449607 0.125793 0.205598
H30   H     H_    0.117435 0.434920 0.887135 0.208504
H31   H     H_    0.617445 0.065073 0.112929 0.208420
H32   H     H_    0.623922 0.050367 0.874275 0.205689
H33   H     H_    0.623931 0.949607 0.125793 0.205598
H34   H     H_    0.828495 0.716765 0.279071 0.219952
H35   H     H_    0.617436 0.934920 0.887135 0.208504
H36   H     H_    0.328538 0.783203 0.720884 0.219927
H37   H     H_    0.323691 0.791442 0.274065 0.216125
H38   H     H_    0.323748 0.208592 0.725891 0.216092
H39   H     H_    0.328495 0.216765 0.279071 0.219952
H40   H     H_    0.276884 0.604207 0.627518 0.202756
N1    N     N_3   0.001260 0.500000 0.143650 -0.308185
N2    N     N_3   0.001260 0.500000 0.856350 -0.308258
N3    N     N_3   0.501260 0.000000 0.143650 -0.308185
N4    N     N_3   0.501260 0.000000 0.856350 -0.308258
O1    O     O_R   0.091250 0.408820 0.620260 -0.475135
O2    O     O_R   0.908940 0.408800 0.379740 -0.483901
O3    O     O_R   0.908940 0.591200 0.620260 -0.483905
O4    O     O_R   0.908940 0.591200 0.379740 -0.477016
O5    O     O_R   0.408940 0.908800 0.620260 -0.477001
O6    O     O_R   0.408940 0.908800 0.379740 -0.483901
O7    O     O_R   0.408940 0.091200 0.620260 -0.483905
O8    O     O_R   0.408940 0.091200 0.379740 -0.477016
O9    O     O_R   0.091250 0.408820 0.379740 -0.471413
O10   O     O_R   0.091250 0.591180 0.620260 -0.471305
O11   O     O_R   0.091250 0.591180 0.379740 -0.475235
O12   O     O_R   0.591250 0.908820 0.620260 -0.475135
O13   O     O_R   0.591250 0.908820 0.379740 -0.471413
O14   O     O_R   0.591250 0.091180 0.620260 -0.471305
O15   O     O_R   0.591250 0.091180 0.379740 -0.475235
O16   O     O_R   0.908940 0.408800 0.620260 -0.477001

loop_
_geom_bond_atom_site_label_1
_geom_bond_atom_site_label_2
_ccdc_geom_bond_type
C34   O15   A    
C23   C35   S    
C12   C31   S    
C26   F8    S    
C7    F10   S    
C5    F1    S    
C51   N4    S    
C1    C32   S    
C49   N2    S    
Br2   C41   S    
Cu3   O5    S    
C5    H1    S    
C37   H11   S    
C43   N2    S    
C6    C19   S    
Cu2   O11   S    
C39   H17   S    
Br10  C16   S    
C4    O7    A    
C44   C46   S    
C8    F11   S    
Br13  C19   S    
C3    O6    A    
C26   C37   S    
Br14  C20   S    
C21   C35   S    
C11   H38   S    
C16   H3    S    
C42   N1    S    
Cu4   O13   S    
C13   C17   S    
C36   H9    S    
C40   C41   S    
C1    O9    A    
C26   C30   S    
Br15  C21   S    
C10   C29   S    
Cu3   N4    S    
C5    C27   S    
C48   N4    S    
C37   H13   S    
Cu1   N2    S    
Cu2   O9    S    
C19   C33   S    
C9    F12   S    
C49   H30   S    
C18   H5    S    
C2    O4    A    
C47   N3    S    
C51   H32   S    
C25   C36   S    
C35   C39   S    
C40   N1    S    
C52   O16   A    
C45   N1    S    
C24   C39   S    
C34   O14   A    
Cu4   O6    S    
C50   C51   S    
C26   F7    S    
Cu1   O3    S    
C15   C31   S    
Cu2   O4    S    
C16   C32   S    
C44   N3    S    
C32   C37   S    
C14   H40   S    
C6    H12   S    
C45   H29   S    
C6    F9    S    
C46   N4    S    
C38   H15   S    
Br11  C17   S    
C48   H26   S    
C17   H4    S    
C25   F6    S    
C27   C52   S    
Cu3   O7    S    
C5    C18   S    
C42   C43   S    
C39   H16   S    
Cu2   N1    S    
C7    C28   S    
C24   F4    S    
C21   H8    S    
C22   F16   S    
C10   H37   S    
C11   F14   S    
Br16  C40   S    
C45   H27   S    
C2    C28   S    
C14   C31   S    
C41   N2    S    
C6    C27   S    
C22   C38   S    
Cu4   O8    S    
C3    O5    A    
C15   H2    S    
Br7   C47   S    
C23   O13   A    
C8    H34   S    
C8    C21   S    
C50   H33   S    
C46   H24   S    
C2    O3    A    
C12   O11   A    
C40   H18   S    
C20   C35   S    
Br8   C48   S    
C11   C30   S    
C41   H19   S    
C7    C20   S    
C50   H31   S    
C13   H39   S    
C1    O1    A    
C8    C28   S    
C49   H28   S    
C12   O10   A    
Br12  C18   S    
C9    C29   S    
Cu4   N3    S    
C50   N3    S    
C22   F2    S    
C19   H6    S    
C9    C14   S    
Cu1   O16   S    
C18   C33   S    
Cu1   O1    S    
Br5   C44   S    
C11   C16   S    
C10   C15   S    
C38   H14   S    
C51   H35   S    
C3    C29   S    
C31   C36   S    
Cu4   O15   S    
C7    H23   S    
C24   F3    S    
C13   C30   S    
C4    O8    A    
C52   O2    A    
Cu1   O10   S    
C22   C27   S    
C25   F5    S    
C20   H7    S    
Br6   C46   S    
C10   F13   S    
Br4   C43   S    
C36   H10   S    
Br1   C14   S    
C43   H21   S    
C42   H20   S    
Cu1   Cu2   S    
C9    H36   S    
C13   F15   S    
C44   H22   S    
Br9   C15   S    
C47   C48   S    
C47   H25   S    
Br3   C42   S    
C45   C49   S    
C24   C28   S    
Cu3   O14   S    
Cu3   Cu4   S    
C23   O12   A    
C33   C34   S    
Cu2   O2    S    
C17   C32   S    
C25   C29   S    
C4    C30   S    
C33   C38   S    
Cu3   O12   S    
