data_mof_unit_25457.cif
_audit_creation_date              2012-10-26T19:27:42-0400
_audit_creation_method            fapswitch 2.2
_symmetry_space_group_name_H-M    P1
_symmetry_Int_Tables_number       1
_space_group_crystal_system       triclinic
_cell_length_a                    20.982983
_cell_length_b                    21.607596
_cell_length_c                    14.716356
_cell_angle_alpha                 90.139241
_cell_angle_beta                  127.796129
_cell_angle_gamma                 89.706018
_cell_volume                      5272.33659406

loop_
_atom_site_label
_atom_site_type_symbol
_atom_type_description
_atom_site_fract_x
_atom_site_fract_y
_atom_site_fract_z
_atom_type_partial_charge
C1    C     C_R   0.604516 0.915465 0.634052 0.545837
C2    C     C_R   0.690568 0.211544 0.100558 0.251858
C3    C     C_R   0.724606 0.776851 0.970692 -0.010886
C4    C     C_R   0.220350 0.725473 0.964611 -0.004793
C5    C     C_R   0.768689 0.277455 0.027753 -0.002021
C6    C     C_R   0.780619 0.729285 0.041745 -0.011239
C7    C     C_R   0.224594 0.276840 0.970674 -0.010882
C8    C     C_R   0.308619 0.807207 0.989960 -0.113891
C9    C     C_R   0.681874 0.193833 0.002145 -0.116218
C10   C     C_R   0.671628 0.798121 0.992920 -0.111562
C11   C     C_R   0.333047 0.207214 0.019193 -0.107981
C12   C     C_R   0.808598 0.307221 0.989936 -0.113894
C13   C     C_R   0.667132 0.768770 0.073210 0.255616
C14   C     C_R   0.181887 0.693824 0.002163 -0.116223
C15   C     C_R   0.171618 0.298111 0.992904 -0.111562
C16   C     C_R   0.833063 0.707229 0.019216 -0.107978
C17   C     C_3   0.423537 0.835463 0.950448 -0.003177
C18   C     C_3   0.466196 0.849701 0.899080 -0.325790
C19   C     C_3   0.576456 0.167120 0.061772 -0.007415
C20   C     C_3   0.541630 0.159096 0.126338 -0.311259
C21   C     C_3   0.664846 0.833209 0.192917 -0.014213
C22   C     C_3   0.615854 0.852000 0.232998 -0.376856
C23   C     C_3   0.335966 0.172502 0.812680 -0.022159
C24   C     C_R   0.337019 0.235437 0.937921 0.253485
C25   C     C_3   0.381978 0.157800 0.765968 -0.370429
C26   C     C_3   0.923528 0.335470 0.950446 -0.003185
C27   C     C_3   0.966195 0.349709 0.899089 -0.325789
C28   C     C_3   0.076472 0.667118 0.061799 -0.007415
C29   C     C_3   0.041649 0.659099 0.126369 -0.311268
C30   C     C_3   0.164842 0.333207 0.192899 -0.014215
C31   C     C_3   0.115858 0.351998 0.232993 -0.376858
C32   C     C_3   0.835984 0.672516 0.812705 -0.022159
C33   C     C_3   0.881997 0.657813 0.765996 -0.370434
C34   C     C_3   0.291687 0.004339 0.979456 -0.032162
C35   C     C_R   0.813477 0.280573 0.907098 0.265800
C36   C     C_3   0.274803 0.012470 0.065573 -0.386476
C37   C     C_3   0.709350 0.003312 0.022592 -0.034899
C38   C     C_3   0.725824 0.997331 0.935687 -0.379063
C39   C     C_3   0.791682 0.504356 0.979445 -0.032160
C40   C     C_3   0.774801 0.512475 0.065568 -0.386468
C41   C     C_3   0.209352 0.503305 0.022595 -0.034902
C42   C     C_3   0.225825 0.497327 0.935689 -0.379059
C43   C     C_3   0.400594 0.799841 0.528288 0.011550
C44   C     C_3   0.430677 0.815416 0.649000 -0.346443
C45   C     C_3   0.795898 0.049179 0.738046 -0.014388
C46   C     C_R   0.190588 0.711533 0.100582 0.251865
C47   C     C_3   0.856091 0.024952 0.720893 -0.353132
C48   C     C_3   0.733162 0.851420 0.562253 -0.007818
C49   C     C_3   0.791393 0.867069 0.536754 -0.379633
C50   C     C_3   0.205322 0.036149 0.246571 -0.013516
C51   C     C_3   0.148023 0.004220 0.261935 -0.368439
C52   C     C_3   0.900535 0.299839 0.528264 0.011546
C53   C     C_3   0.930656 0.315461 0.648977 -0.346449
C54   C     C_3   0.295913 0.549175 0.738059 -0.014399
C55   C     C_3   0.356099 0.524950 0.720890 -0.353146
C56   C     C_3   0.233137 0.351430 0.562229 -0.007810
C57   C     C_R   0.167123 0.268761 0.073197 0.255617
C58   C     C_3   0.291386 0.367057 0.536752 -0.379648
C59   C     C_3   0.705316 0.536155 0.246557 -0.013510
C60   C     C_3   0.648023 0.504220 0.261929 -0.368428
C61   C     C_1   0.354047 0.699204 0.786189 0.305086
C62   C     C_1   0.717500 0.249126 0.316329 0.293391
C63   C     C_1   0.629425 0.681900 0.189185 0.290747
C64   C     C_1   0.375358 0.322202 0.824095 0.270975
C65   C     C_1   0.854028 0.199222 0.786157 0.305117
C66   C     C_1   0.217540 0.749106 0.316375 0.293400
C67   C     C_1   0.129422 0.181896 0.189185 0.290752
C68   C     C_R   0.837035 0.735452 0.937944 0.253489
C69   C     C_1   0.875369 0.822218 0.824112 0.270958
C70   C     C_3   0.202134 0.041422 0.561158 -0.033108
C71   C     C_3   0.111695 0.032231 0.492023 -0.365855
C72   C     C_3   0.779858 0.081261 0.416314 -0.020542
C73   C     C_3   0.869834 0.087030 0.477215 -0.372764
C74   C     C_3   0.702136 0.541437 0.561142 -0.033107
C75   C     C_3   0.611696 0.532250 0.492008 -0.365849
C76   C     C_3   0.279876 0.581243 0.416411 -0.020525
C77   C     C_3   0.369838 0.587013 0.477182 -0.372744
C78   C     C_R   0.323572 0.992217 0.665333 0.232794
C79   C     C_R   0.675853 0.013845 0.334773 0.203026
C80   C     C_R   0.823571 0.492227 0.665332 0.232797
C81   C     C_R   0.395211 0.083963 0.365568 0.557607
C82   C     C_R   0.175854 0.513838 0.334773 0.203028
C83   C     C_R   0.353837 0.991350 0.603539 0.080895
C84   C     C_R   0.646137 0.009215 0.396950 0.067361
C85   C     C_R   0.853836 0.491354 0.603539 0.080874
C86   C     C_R   0.146138 0.509210 0.396950 0.067316
C87   C     C_R   0.486491 0.007004 0.774003 0.030398
C88   C     C_R   0.513231 0.996177 0.225421 0.039622
C89   C     C_R   0.986491 0.507005 0.774002 0.030397
C90   C     C_R   0.013231 0.496179 0.225421 0.039623
C91   C     C_R   0.461861 0.001444 0.844606 -0.060949
C92   C     C_R   0.398114 0.913548 0.369209 0.536353
C93   C     C_R   0.537997 0.004320 0.155329 -0.055194
C94   C     C_R   0.961861 0.501449 0.844605 -0.060946
C95   C     C_R   0.037996 0.504321 0.155328 -0.055200
C96   C     C_R   0.377811 0.997268 0.786499 -0.012860
C97   C     C_R   0.621954 0.008817 0.213697 -0.009877
C98   C     C_R   0.877810 0.497278 0.786498 -0.012856
C99   C     C_R   0.121954 0.508814 0.213697 -0.009850
C100  C     C_R   0.516436 0.001620 0.968804 -0.021504
C101  C     C_R   0.483692 0.005263 0.031265 -0.018245
C102  C     C_R   0.016435 0.501623 0.968803 -0.021509
C103  C     C_R   0.604410 0.084143 0.634283 0.552951
C104  C     C_R   0.983692 0.505268 0.031264 -0.018244
C105  C     C_R   0.398182 0.010203 0.967889 0.220123
C106  C     C_R   0.602134 0.996735 0.032590 0.223346
C107  C     C_R   0.898181 0.510213 0.967889 0.220129
C108  C     C_R   0.102133 0.496735 0.032589 0.223328
C109  C     C_R   0.347731 0.001851 0.848066 -0.102303
C110  C     C_R   0.652354 0.004389 0.152577 -0.096173
C111  C     C_R   0.847730 0.501866 0.848064 -0.102306
C112  C     C_R   0.152354 0.504388 0.152576 -0.096132
C113  C     C_R   0.666142 0.129424 0.714295 -0.017257
C114  C     C_R   0.104516 0.415465 0.634051 0.545858
C115  C     C_R   0.342859 0.862161 0.299768 -0.022565
C116  C     C_R   0.331182 0.127671 0.283827 -0.018669
C117  C     C_R   0.668949 0.871650 0.716647 -0.021655
C118  C     C_R   0.166147 0.629420 0.714302 -0.017250
C119  C     C_R   0.842852 0.362164 0.299760 -0.022561
C120  C     C_R   0.831185 0.627674 0.283832 -0.018669
C121  C     C_R   0.168945 0.371647 0.716642 -0.021654
C122  C     C_R   0.784310 0.190624 0.782845 0.024095
C123  C     C_R   0.254956 0.779127 0.271953 -0.002262
C124  C     C_R   0.202643 0.178399 0.199614 -0.004525
C125  C     C_R   0.895211 0.583964 0.365569 0.557613
C126  C     C_R   0.799079 0.822243 0.805598 -0.007092
C127  C     C_R   0.284322 0.690612 0.782863 0.024100
C128  C     C_R   0.754929 0.279142 0.271923 -0.002274
C129  C     C_R   0.702648 0.678404 0.199619 -0.004529
C130  C     C_R   0.299070 0.322232 0.805583 -0.007079
C131  C     C_R   0.733918 0.140516 0.718741 0.235919
C132  C     C_R   0.309869 0.826014 0.340531 0.220218
C133  C     C_R   0.258582 0.131707 0.269596 0.223083
C134  C     C_R   0.737015 0.861317 0.720668 0.213222
C135  C     C_R   0.233925 0.640508 0.718751 0.235923
C136  C     C_R   0.898113 0.413547 0.369209 0.536378
C137  C     C_R   0.809844 0.326026 0.340506 0.220215
C138  C     C_R   0.758585 0.631711 0.269597 0.223079
C139  C     C_R   0.237012 0.361313 0.720663 0.213225
C140  C     C_R   0.659699 0.159314 0.792757 -0.192944
C141  C     C_R   0.326131 0.847690 0.194768 -0.194932
C142  C     C_R   0.340059 0.161959 0.211857 -0.187127
C143  C     C_R   0.664774 0.843475 0.798662 -0.197022
C144  C     C_R   0.159707 0.659308 0.792768 -0.192949
C145  C     C_R   0.826133 0.347689 0.194767 -0.194942
C146  C     C_R   0.840067 0.661966 0.211870 -0.187126
C147  C     C_R   0.104411 0.584142 0.634284 0.552963
C148  C     C_R   0.164766 0.343469 0.798651 -0.197018
C149  C     C_R   0.716929 0.203114 0.870674 -0.036043
C150  C     C_R   0.277379 0.796816 0.128007 -0.028154
C151  C     C_R   0.278853 0.202021 0.128099 -0.041919
C152  C     C_R   0.725799 0.803343 0.883040 -0.039652
C153  C     C_R   0.216940 0.703105 0.870690 -0.036045
C154  C     C_R   0.777368 0.296824 0.127992 -0.028154
C155  C     C_R   0.778864 0.702031 0.128114 -0.041916
C156  C     C_R   0.225788 0.303333 0.883024 -0.039650
C157  C     C_R   0.772232 0.225194 0.853469 0.014821
C158  C     C_R   0.313493 0.780560 0.907116 0.265801
C159  C     C_R   0.239806 0.762458 0.166382 0.008209
C160  C     C_R   0.215089 0.216293 0.133027 -0.006642
C161  C     C_R   0.788834 0.787680 0.877230 -0.006674
C162  C     C_R   0.272245 0.725183 0.853487 0.014828
C163  C     C_R   0.739786 0.262470 0.166358 0.008216
C164  C     C_R   0.715097 0.716302 0.133039 -0.006642
C165  C     C_R   0.288821 0.287667 0.877211 -0.006676
C166  C     C_R   0.720337 0.225482 0.964594 -0.004790
C167  C     C_R   0.268704 0.777445 0.027771 -0.002018
C168  C     C_R   0.280606 0.229273 0.041726 -0.011240
Cu1   Cu    Cu3+1 0.526640 1.000000 0.436960 0.946324
Cu2   Cu    Cu3+1 0.473360 0.000000 0.563040 0.942908
Cu3   Cu    Cu3+1 0.026640 0.500000 0.436960 0.946321
Cu4   Cu    Cu3+1 0.973360 0.500000 0.563040 0.942894
H1    H     H_    0.353916 0.876674 0.169013 0.124266
H2    H     H_    0.649426 0.151558 0.961380 0.096113
H3    H     H_    0.742032 0.801470 0.586956 0.110477
H4    H     H_    0.854591 0.863303 0.616083 0.178682
H5    H     H_    0.782972 0.834443 0.471872 0.095176
H6    H     H_    0.780487 0.914908 0.503249 0.187984
H7    H     H_    0.253754 0.003016 0.269174 0.146632
H8    H     H_    0.169551 0.047939 0.153272 0.112164
H9    H     H_    0.100726 0.037259 0.243674 0.162708
H10   H     H_    0.118643 0.964577 0.201574 0.112702
H11   H     H_    0.181139 0.986426 0.350744 0.165966
H12   H     H_    0.950436 0.309032 0.522954 0.122289
H13   H     H_    0.634469 0.838774 0.951650 0.145036
H14   H     H_    0.885410 0.249728 0.513136 0.124728
H15   H     H_    0.983352 0.285754 0.711958 0.098263
H16   H     H_    0.949145 0.364728 0.668258 0.177446
H17   H     H_    0.881775 0.307428 0.656355 0.199957
H18   H     H_    0.252170 0.511999 0.715997 0.179741
H19   H     H_    0.330856 0.559936 0.831630 0.105548
H20   H     H_    0.400801 0.561411 0.743758 0.155694
H21   H     H_    0.388356 0.484001 0.776859 0.133415
H22   H     H_    0.324918 0.511003 0.630358 0.179431
H23   H     H_    0.170329 0.357178 0.482490 0.155845
H24   H     H_    0.369276 0.166143 0.060175 0.149967
H25   H     H_    0.241965 0.301473 0.586889 0.110465
H26   H     H_    0.354577 0.363260 0.616078 0.178686
H27   H     H_    0.282945 0.334442 0.471845 0.095178
H28   H     H_    0.280519 0.414902 0.503288 0.187982
H29   H     H_    0.753745 0.503022 0.269145 0.146623
H30   H     H_    0.669537 0.547951 0.153258 0.112169
H31   H     H_    0.600730 0.537260 0.243686 0.162704
H32   H     H_    0.618637 0.464582 0.201558 0.112701
H33   H     H_    0.681145 0.486419 0.350735 0.165968
H34   H     H_    0.213948 0.061083 0.502853 0.155297
H35   H     H_    0.836949 0.351163 0.023369 0.083181
H36   H     H_    0.221710 0.075191 0.630963 0.109198
H37   H     H_    0.097669 0.014168 0.548550 0.157984
H38   H     H_    0.079888 0.077090 0.454700 0.099090
H39   H     H_    0.089914 0.998853 0.421106 0.162998
H40   H     H_    0.766615 0.101164 0.473081 0.184096
H41   H     H_    0.747385 0.108388 0.335066 0.194173
H42   H     H_    0.884637 0.068481 0.421668 0.153187
H43   H     H_    0.887725 0.136404 0.496059 0.099184
H44   H     H_    0.904349 0.060769 0.559317 0.155678
H45   H     H_    0.713952 0.561088 0.502832 0.155307
H46   H     H_    0.149437 0.651550 0.961396 0.096117
H47   H     H_    0.721713 0.575213 0.630939 0.109200
H48   H     H_    0.597667 0.514210 0.548547 0.157962
H49   H     H_    0.579891 0.577108 0.454650 0.099098
H50   H     H_    0.589918 0.498853 0.421113 0.163017
H51   H     H_    0.266710 0.601084 0.473308 0.184090
H52   H     H_    0.247349 0.608426 0.335211 0.194190
H53   H     H_    0.384552 0.568560 0.421472 0.153153
H54   H     H_    0.387750 0.636379 0.496170 0.099219
H55   H     H_    0.404408 0.560668 0.559201 0.155684
H56   H     H_    0.134459 0.338764 0.951635 0.145024
H57   H     H_    0.869293 0.666158 0.060199 0.149958
H58   H     H_    0.283160 0.003740 0.799956 0.145825
H59   H     H_    0.716984 0.001867 0.201176 0.150674
H60   H     H_    0.783159 0.503760 0.799954 0.145823
H61   H     H_    0.608321 0.149133 0.790274 0.136649
H62   H     H_    0.216983 0.501866 0.201174 0.150710
H63   H     H_    0.452692 0.984079 0.190123 0.189256
H64   H     H_    0.546668 0.019365 0.808128 0.196135
H65   H     H_    0.952691 0.484084 0.190122 0.189261
H66   H     H_    0.046669 0.519365 0.808127 0.196143
H67   H     H_    0.686497 0.012047 0.489481 0.179283
H68   H     H_    0.313765 0.985192 0.511512 0.165262
H69   H     H_    0.186498 0.512038 0.489482 0.179264
H70   H     H_    0.813764 0.485196 0.511512 0.165269
H71   H     H_    0.460459 0.801111 0.021143 0.179216
H72   H     H_    0.611880 0.852091 0.793176 0.141890
H73   H     H_    0.418795 0.879328 0.985251 0.118410
H74   H     H_    0.425461 0.875890 0.817909 0.164028
H75   H     H_    0.520764 0.877553 0.959873 0.159310
H76   H     H_    0.484937 0.806299 0.881377 0.190247
H77   H     H_    0.563163 0.125170 0.009582 0.130696
H78   H     H_    0.546058 0.207746 0.003001 0.181106
H79   H     H_    0.531832 0.205013 0.150060 0.170703
H80   H     H_    0.483388 0.134382 0.071655 0.165041
H81   H     H_    0.583160 0.131787 0.206030 0.175077
H82   H     H_    0.681653 0.875525 0.169282 0.157242
H83   H     H_    0.395741 0.157252 0.223010 0.151113
H84   H     H_    0.720844 0.809912 0.266462 0.127899
H85   H     H_    0.599916 0.810627 0.259721 0.162461
H86   H     H_    0.651417 0.883933 0.306862 0.111530
H87   H     H_    0.560015 0.876182 0.163152 0.139490
H88   H     H_    0.279073 0.196553 0.742839 0.111940
H89   H     H_    0.320171 0.128617 0.833568 0.152246
H90   H     H_    0.436820 0.130542 0.829647 0.141022
H91   H     H_    0.343541 0.130602 0.685458 0.100688
H92   H     H_    0.399751 0.201210 0.746878 0.174066
H93   H     H_    0.960445 0.301114 0.021135 0.179206
H94   H     H_    0.853940 0.376662 0.169032 0.124273
H95   H     H_    0.918789 0.379333 0.985256 0.118410
H96   H     H_    0.925466 0.375906 0.817926 0.164017
H97   H     H_    0.020766 0.377556 0.959892 0.159310
H98   H     H_    0.984930 0.306308 0.881375 0.190251
H99   H     H_    0.063171 0.625168 0.009604 0.130702
H100  H     H_    0.046080 0.707746 0.003032 0.181092
H101  H     H_    0.031861 0.705018 0.150099 0.170693
H102  H     H_    0.983401 0.634392 0.071684 0.165035
H103  H     H_    0.083174 0.631785 0.206056 0.175073
H104  H     H_    0.181639 0.375523 0.169249 0.157243
H105  H     H_    0.108328 0.649128 0.790285 0.136648
H106  H     H_    0.220846 0.309916 0.266443 0.127902
H107  H     H_    0.099930 0.310626 0.259731 0.162461
H108  H     H_    0.151422 0.383935 0.306849 0.111530
H109  H     H_    0.060013 0.376176 0.163149 0.139484
H110  H     H_    0.779092 0.696568 0.742863 0.111934
H111  H     H_    0.820187 0.628632 0.833594 0.152247
H112  H     H_    0.936836 0.630550 0.829673 0.141017
H113  H     H_    0.843558 0.630617 0.685483 0.100687
H114  H     H_    0.899775 0.701221 0.746912 0.174067
H115  H     H_    0.292179 0.953877 0.964490 0.132054
H116  H     H_    0.111873 0.352086 0.793165 0.141884
H117  H     H_    0.241263 0.027385 0.898754 0.135374
H118  H     H_    0.264069 0.062031 0.071487 0.158423
H119  H     H_    0.219938 0.986182 0.036540 0.094273
H120  H     H_    0.326032 0.995218 0.151515 0.166231
H121  H     H_    0.759560 0.979171 0.101958 0.137376
H122  H     H_    0.709576 0.053434 0.040543 0.138191
H123  H     H_    0.675068 0.016601 0.851493 0.166758
H124  H     H_    0.781454 0.023062 0.966578 0.091724
H125  H     H_    0.734766 0.948023 0.925292 0.165118
H126  H     H_    0.792158 0.453896 0.964451 0.132059
H127  H     H_    0.895750 0.657259 0.223027 0.151110
H128  H     H_    0.741264 0.527416 0.898755 0.135371
H129  H     H_    0.764084 0.562035 0.071514 0.158426
H130  H     H_    0.719927 0.486195 0.036519 0.094273
H131  H     H_    0.826024 0.495206 0.151499 0.166220
H132  H     H_    0.259558 0.479158 0.101956 0.137376
H133  H     H_    0.209586 0.553426 0.040557 0.138200
H134  H     H_    0.175073 0.516606 0.851501 0.166751
H135  H     H_    0.281461 0.523049 0.966588 0.091725
H136  H     H_    0.234753 0.448018 0.925277 0.165123
H137  H     H_    0.450499 0.809092 0.523013 0.122353
H138  H     H_    0.336983 0.851144 0.023407 0.083170
H139  H     H_    0.385511 0.749723 0.513118 0.124643
H140  H     H_    0.483378 0.785709 0.711970 0.098274
H141  H     H_    0.449149 0.864687 0.668334 0.177366
H142  H     H_    0.381781 0.807346 0.656336 0.199999
H143  H     H_    0.752148 0.012005 0.715966 0.179738
H144  H     H_    0.830833 0.059935 0.831617 0.105538
H145  H     H_    0.900809 0.061407 0.743800 0.155668
H146  H     H_    0.888329 0.983993 0.776841 0.133421
H147  H     H_    0.824918 0.011022 0.630355 0.179476
H148  H     H_    0.670350 0.857135 0.482517 0.155823
N1    N     N_R   0.433280 1.000000 0.657760 -0.289432
N2    N     N_1   0.188643 0.725872 0.353896 -0.302094
N3    N     N_1   0.070896 0.184362 0.180800 -0.318767
N4    N     N_1   0.936520 0.822421 0.839609 -0.326442
N5    N     N_R   0.566720 1.000000 0.342240 -0.283503
N6    N     N_R   0.933280 0.500000 0.657760 -0.289453
N7    N     N_R   0.066720 0.500000 0.342240 -0.283501
N8    N     N_1   0.409802 0.704511 0.788408 -0.333183
N9    N     N_1   0.688594 0.225896 0.353838 -0.302084
N10   N     N_1   0.570897 0.684366 0.180796 -0.318772
N11   N     N_1   0.436509 0.322401 0.839592 -0.326451
N12   N     N_1   0.909777 0.204534 0.788364 -0.333162
O1    O     O_R   0.600040 0.935040 0.546740 -0.469508
O2    O     O_R   0.444990 0.064930 0.346780 -0.511616
O3    O     O_R   0.444990 0.935070 0.346780 -0.541143
O4    O     O_R   0.555010 0.064930 0.653220 -0.539678
O5    O     O_R   0.055010 0.435070 0.653220 -0.522291
O6    O     O_R   0.944990 0.564930 0.346780 -0.511612
O7    O     O_R   0.944990 0.435070 0.346780 -0.541147
O8    O     O_R   0.055010 0.564930 0.653220 -0.539677
O9    O     O_3   0.345964 0.812769 0.862673 -0.555259
O10   O     O_3   0.660905 0.173488 0.142305 -0.598653
O11   O     O_3   0.618005 0.793790 0.096635 -0.584810
O12   O     O_R   0.399960 0.064960 0.453260 -0.459303
O13   O     O_3   0.384899 0.208949 0.913148 -0.583004
O14   O     O_3   0.845955 0.312782 0.862662 -0.555259
O15   O     O_3   0.160923 0.673477 0.142329 -0.598622
O16   O     O_3   0.117999 0.293783 0.096626 -0.584806
O17   O     O_3   0.884916 0.708964 0.913172 -0.582996
O18   O     O_3   0.366039 0.032533 0.021450 -0.594897
O19   O     O_3   0.634780 0.975036 0.979384 -0.597377
O20   O     O_3   0.866041 0.532541 0.021454 -0.594897
O21   O     O_3   0.134777 0.475036 0.979382 -0.597382
O22   O     O_3   0.331578 0.836214 0.449080 -0.534433
O23   O     O_R   0.399960 0.935040 0.453260 -0.461723
O24   O     O_3   0.753975 0.100982 0.665408 -0.560348
O25   O     O_3   0.745797 0.892638 0.646945 -0.569066
O26   O     O_3   0.239932 0.088591 0.319568 -0.557968
O27   O     O_3   0.831542 0.336230 0.449049 -0.534441
O28   O     O_3   0.253978 0.600974 0.665414 -0.560381
O29   O     O_3   0.245800 0.392639 0.646951 -0.569070
O30   O     O_3   0.739931 0.588592 0.319564 -0.557972
O31   O     O_3   0.241780 0.984011 0.607751 -0.560273
O32   O     O_3   0.758146 0.018291 0.393228 -0.613231
O33   O     O_3   0.741778 0.484026 0.607751 -0.560275
O34   O     O_R   0.600040 0.064960 0.546740 -0.457591
O35   O     O_3   0.258146 0.518279 0.393220 -0.613227
O36   O     O_R   0.100040 0.435040 0.546740 -0.469523
O37   O     O_R   0.899960 0.564960 0.453260 -0.459300
O38   O     O_R   0.899960 0.435040 0.453260 -0.461717
O39   O     O_R   0.100040 0.564960 0.546740 -0.457577
O40   O     O_R   0.555010 0.935070 0.653220 -0.522276

loop_
_geom_bond_atom_site_label_1
_geom_bond_atom_site_label_2
_ccdc_geom_bond_type
Cu1   O3    S    
C7    C168  A    
C115  C141  A    
C120  C146  A    
C111  H60   S    
C87   C91   A    
C44   H140  S    
C19   C20   S    
C13   O11   S    
C20   H81   S    
C92   O3    A    
Cu2   O23   S    
C76   H52   S    
C77   H53   S    
C37   O19   S    
C124  C133  A    
C61   N8    T    
C50   O26   S    
C51   H11   S    
C41   O21   S    
C60   H33   S    
C10   H13   S    
C103  O4    A    
C82   C99   A    
C89   C94   A    
Cu3   O6    S    
C91   C96   A    
C69   N4    T    
C78   C96   A    
C45   O24   S    
C39   H128  S    
C91   C100  A    
C6    C155  A    
C48   H3    S    
C80   C98   A    
C7    C15   A    
C4    C153  A    
C59   C60   S    
C21   C22   S    
C101  C105  A    
C64   N11   T    
C49   H5    S    
C45   C47   S    
C22   H85   S    
C56   O29   S    
C150  C159  A    
C35   O14   S    
C90   C95   A    
C5    C12   A    
C54   H19   S    
C93   C101  A    
C120  C125  S    
C116  C133  A    
C49   H6    S    
C129  C164  A    
C142  C151  A    
C43   C44   S    
C35   C157  A    
C45   H144  S    
C37   C38   S    
C56   H23   S    
C109  H58   S    
C27   H96   S    
C43   O22   S    
C136  O38   A    
C19   O10   S    
C24   O13   S    
C26   C27   S    
C61   C127  S    
C65   C122  S    
C65   N12   T    
C116  C142  A    
C54   O28   S    
C33   H113  S    
C69   C126  S    
C71   H39   S    
C47   H147  S    
C140  H61   S    
C73   H42   S    
C48   H148  S    
C120  C138  A    
C87   N1    A    
C37   H121  S    
C89   H66   S    
C79   C97   A    
C52   H12   S    
C72   C73   S    
C51   H9    S    
C80   O33   S    
C19   H78   S    
C1    O40   A    
C96   C109  A    
C15   H56   S    
C100  C106  A    
C106  O19   S    
C42   H135  S    
C137  O27   S    
C24   C165  A    
C55   H20   S    
C158  O9    S    
C25   H90   S    
C130  C165  A    
C123  C159  A    
C124  C160  A    
Cu2   O40   S    
C85   H70   S    
C39   H126  S    
C95   C99   A    
C4    C14   A    
C40   H129  S    
C138  O30   S    
C6    C16   A    
C17   H71   S    
Cu1   N5    S    
C148  H116  S    
C8    H138  S    
C14   H46   S    
Cu3   N7    S    
C104  C107  A    
C21   H84   S    
C28   H100  S    
C123  C132  A    
C3    C6    A    
C156  C165  A    
C9    C166  A    
C31   H109  S    
C79   C84   A    
C20   H80   S    
C150  C167  A    
C16   H57   S    
C18   H74   S    
C18   H75   S    
C60   H32   S    
C7    C156  A    
C81   O2    A    
C71   H37   S    
C47   H145  S    
C73   H44   S    
C144  H105  S    
C136  O7    A    
Cu3   O7    S    
C152  C161  A    
C21   H82   S    
C38   H124  S    
C52   H14   S    
C114  O5    A    
C141  C150  A    
C2    O10   S    
C115  C132  A    
C29   H101  S    
C58   H27   S    
C30   H106  S    
C12   H35   S    
C39   C40   S    
C25   H92   S    
C40   H131  S    
C102  C104  A    
C21   O11   S    
C125  O37   A    
C1    O1    A    
C17   H73   S    
C74   O33   S    
C17   C18   S    
C1    C117  S    
C5    C166  A    
C12   C35   A    
C31   H108  S    
C126  C134  A    
C145  H94   S    
C67   N3    T    
C145  C154  A    
C27   H97   S    
C64   C130  S    
C23   H88   S    
C127  C162  A    
C70   O31   S    
C17   O9    S    
C84   H67   S    
C93   C97   A    
C85   N6    A    
C52   C53   S    
Cu1   O2    S    
C88   H63   S    
C105  C109  A    
C83   H68   S    
C54   H18   S    
C107  C111  A    
C121  C139  A    
C50   H7    S    
C59   H30   S    
C112  H62   S    
C81   C116  S    
C100  C101  A    
C56   C58   S    
Cu4   O37   S    
C72   H41   S    
C34   C36   S    
C59   O30   S    
C110  H59   S    
C77   H54   S    
C55   H22   S    
C66   C123  S    
C2    C9    A    
C53   H17   S    
C140  C149  A    
Cu4   O8    S    
C29   H103  S    
C36   H119  S    
C125  O6    A    
C30   H104  S    
C41   C42   S    
C122  C131  A    
C44   H141  S    
C8    C158  A    
C14   C46   A    
C68   C161  A    
C22   H86   S    
C3    C152  A    
C28   C29   S    
C66   N2    T    
C53   H16   S    
C127  C135  A    
C30   C31   S    
C94   C98   A    
C5    C154  A    
C45   H143  S    
C54   C55   S    
C114  C121  S    
C78   C83   A    
C58   H26   S    
C146  C155  A    
C34   O18   S    
C75   H50   S    
C70   C71   S    
C132  O22   S    
C26   O14   S    
C126  C161  A    
C34   H117  S    
C33   H112  S    
C32   H110  S    
C117  C134  A    
C41   H132  S    
C76   H51   S    
C39   O20   S    
C72   O32   S    
C11   H24   S    
C19   H77   S    
C82   C86   A    
C87   H64   S    
C108  C112  A    
C42   H136  S    
Cu2   N1    S    
C52   O27   S    
C80   C85   A    
C8    C167  A    
C50   C51   S    
C121  C148  A    
C40   H130  S    
C103  O34   A    
C48   C49   S    
C57   C160  A    
C77   H55   S    
C11   C168  A    
C155  C164  A    
C13   C164  A    
C26   H95   S    
C118  C147  S    
C90   H65   S    
C103  C113  S    
C56   H25   S    
C2    C163  A    
C23   O13   S    
C119  C145  A    
C4    C167  A    
C147  O39   A    
C153  C162  A    
C32   C33   S    
C75   H48   S    
C86   H69   S    
C46   C159  A    
C41   H133  S    
C122  C157  A    
C63   C129  S    
C92   C115  S    
C147  O8    A    
C18   H76   S    
C33   H114  S    
C23   H89   S    
C73   H43   S    
C46   O15   S    
C148  C156  A    
C149  C157  A    
C49   H4    S    
C118  C135  A    
Cu3   Cu4   S    
C37   H122  S    
C84   N5    A    
Cu1   Cu2   S    
C86   N7    A    
C51   H10   S    
C67   C124  S    
C146  H127  S    
C36   H118  S    
C58   H28   S    
C42   H134  S    
C43   H139  S    
C117  C143  A    
C118  C144  A    
C25   H91   S    
C70   H36   S    
C151  C168  A    
C11   C24   A    
C144  C153  A    
C90   N7    A    
C129  C138  A    
C74   H47   S    
C83   N1    A    
Cu2   O4    S    
C16   C68   A    
C63   N10   T    
C31   H107  S    
C135  O28   S    
C26   H93   S    
C82   O35   S    
C28   H99   S    
C141  H1    S    
C89   N6    A    
C15   C57   A    
C76   O35   S    
C48   O25   S    
C130  C139  A    
C79   O32   S    
C28   O15   S    
Cu1   O1    S    
C81   O12   A    
C74   C75   S    
C105  O18   S    
C119  C137  A    
C154  C163  A    
C76   C77   S    
C107  O20   S    
Cu3   O36   S    
C134  O25   S    
C20   H79   S    
Cu3   O39   S    
C131  O24   S    
C128  C163  A    
C142  H83   S    
C92   O23   A    
C139  O29   S    
C50   H8    S    
C128  C137  A    
Cu4   N6    S    
C57   O16   S    
C59   H29   S    
C60   H31   S    
C71   H38   S    
C34   H115  S    
C47   H146  S    
C113  C140  A    
Cu4   O38   S    
C9    H2    S    
C102  C108  A    
C114  O36   A    
C55   H21   S    
C38   H123  S    
C32   H111  S    
C95   C104  A    
Cu4   O5    S    
C106  C110  A    
C29   H102  S    
C36   H120  S    
C88   C93   A    
C143  C152  A    
C98   C111  A    
C113  C131  A    
C133  O26   S    
C43   H137  S    
C149  C166  A    
C68   O17   S    
C44   H142  S    
C10   C13   A    
C88   N5    A    
C62   N9    T    
C22   H87   S    
C70   H34   S    
C151  C160  A    
C32   O17   S    
C53   H15   S    
C3    C10   A    
C119  C136  S    
C62   C128  S    
C97   C110  A    
C72   H40   S    
C99   C112  A    
C74   H45   S    
Cu1   O34   S    
C23   C25   S    
Cu2   O12   S    
C108  O21   S    
C158  C162  A    
C27   H98   S    
C75   H49   S    
C38   H125  S    
C30   O16   S    
C143  H72   S    
C94   C102  A    
C78   O31   S    
