data_mof_unit_68098.cif
_audit_creation_date              2013-03-05T15:58:23-0500
_audit_creation_method            fapswitch 2.2
_symmetry_space_group_name_H-M    P1
_symmetry_Int_Tables_number       1
_space_group_crystal_system       triclinic
_cell_length_a                    7.759286
_cell_length_b                    14.143908
_cell_length_c                    17.132438
_cell_angle_alpha                 90.000245
_cell_angle_beta                  90.024308
_cell_angle_gamma                 89.999733
_cell_volume                      1880.22711918

loop_
_atom_site_label
_atom_site_type_symbol
_atom_site_description
_atom_site_fract_x
_atom_site_fract_y
_atom_site_fract_z
_atom_type_partial_charge
O1    O     O_R   0.388780 0.834790 0.412340 -0.554818
O2    O     O_R   0.111220 0.165210 0.912340 -0.561236
O3    O     O_R   0.888780 0.665210 0.587660 -0.561239
O4    O     O_R   0.611220 0.334790 0.087660 -0.554825
O5    O     O_R   0.059040 0.845930 0.587040 -0.586750
O6    O     O_R   0.440960 0.154070 0.087040 -0.588674
O7    O     O_R   0.559040 0.654070 0.412960 -0.588680
O8    O     O_R   0.940960 0.345930 0.912960 -0.586754
C1    C     C_R   0.230322 0.869513 0.610457 0.752243
C2    C     C_R   0.269719 0.130726 0.110466 0.754334
C3    C     C_R   0.730281 0.630723 0.389537 0.754337
C4    C     C_R   0.769678 0.369511 0.889540 0.752239
O9    O     O_R   0.059070 0.845930 0.412970 -0.628174
O10   O     O_R   0.440930 0.154070 0.912970 -0.626580
O11   O     O_R   0.559070 0.654070 0.587030 -0.626579
O12   O     O_R   0.940930 0.345930 0.087030 -0.628173
O13   O     O_R   0.888760 0.665210 0.412340 -0.608034
O14   O     O_R   0.611240 0.334790 0.912340 -0.606939
O15   O     O_R   0.388760 0.834790 0.587660 -0.606943
O16   O     O_R   0.111240 0.165210 0.087660 -0.608035
C5    C     C_R   0.227097 0.866111 0.382464 0.759240
C6    C     C_R   0.272465 0.131869 0.884018 0.760462
C7    C     C_R   0.727535 0.631867 0.615981 0.760460
C8    C     C_R   0.772902 0.366114 0.117533 0.759239
O17   O     O_3   0.222280 0.690700 0.500000 -0.344577
O18   O     O_3   0.277720 0.309300 0.000000 -0.344304
O19   O     O_3   0.722280 0.809300 0.500000 -0.344311
O20   O     O_3   0.777720 0.190700 0.000000 -0.344577
V1    V     V_3+5 0.947430 0.761000 0.500000 1.085873
V2    V     V_3+5 0.552570 0.239000 0.000000 1.087461
V3    V     V_3+5 0.447430 0.739000 0.500000 1.087455
V4    V     V_3+5 0.052570 0.261000 0.000000 1.085875
C9    C     C_3   0.894897 0.570178 0.748968 0.018647
C10   C     C_3   0.607085 0.426793 0.251708 0.014610
C11   C     C_3   0.392911 0.926787 0.248286 0.014600
C12   C     C_3   0.105105 0.070186 0.751027 0.018658
H1    H     H_    0.885284 0.645331 0.768915 0.085301
H2    H     H_    0.616304 0.351420 0.271095 0.078062
H3    H     H_    0.383694 0.851413 0.228900 0.078054
H4    H     H_    0.114718 0.145340 0.731083 0.085294
C13   C     C_3   0.893260 0.511319 0.824503 -0.483274
C14   C     C_3   0.612840 0.484919 0.327658 -0.481871
C15   C     C_3   0.387140 0.984910 0.172335 -0.481868
C16   C     C_3   0.106750 0.011331 0.675489 -0.483292
H5    H     H_    0.854037 0.338953 0.744255 0.119605
H6    H     H_    0.636435 0.657635 0.244344 0.122863
H7    H     H_    0.363614 0.157627 0.255663 0.122884
H8    H     H_    0.145945 0.838963 0.755735 0.119609
C17   C     C_3   0.726853 0.446062 0.666302 -0.089666
C18   C     C_3   0.770117 0.551713 0.167273 -0.078886
C19   C     C_3   0.229901 0.051711 0.332729 -0.078849
C20   C     C_3   0.273139 0.946066 0.833693 -0.089663
C21   C     C_3   0.583776 0.571147 0.747077 -0.430135
C22   C     C_3   0.916913 0.427974 0.249609 -0.439513
C23   C     C_3   0.083090 0.927975 0.250388 -0.439547
C24   C     C_3   0.416224 0.071150 0.752922 -0.430145
C25   C     C_3   0.738443 0.555846 0.689448 -0.002634
C26   C     C_3   0.762193 0.441954 0.191467 0.003227
C27   C     C_3   0.237809 0.941952 0.308530 0.003247
C28   C     C_3   0.261555 0.055850 0.810549 -0.002626
H9    H     H_    0.464920 0.555212 0.719259 0.203699
H10   H     H_    0.036718 0.437515 0.221389 0.200888
H11   H     H_    0.963281 0.937489 0.278608 0.200880
H12   H     H_    0.535079 0.055223 0.780741 0.203699
H13   H     H_    0.576694 0.646482 0.765768 0.145905
H14   H     H_    0.918425 0.354337 0.272663 0.147134
H15   H     H_    0.081601 0.854346 0.227318 0.147139
H16   H     H_    0.423300 0.146485 0.734229 0.145903
C29   C     C_3   0.747868 0.440202 0.820863 0.166063
C30   C     C_3   0.752395 0.559943 0.321238 0.163938
C31   C     C_3   0.247607 0.059948 0.178765 0.163935
C32   C     C_3   0.252134 0.940207 0.679134 0.166068
C33   C     C_3   0.740076 0.384271 0.743458 -0.378918
C34   C     C_3   0.753150 0.614912 0.243258 -0.389573
C35   C     C_3   0.246886 0.114914 0.256747 -0.389610
C36   C     C_3   0.259912 0.884276 0.756536 -0.378909
C37   C     C_3   0.585199 0.503747 0.819770 -0.360557
C38   C     C_3   0.920225 0.501102 0.318681 -0.339368
C39   C     C_3   0.079758 0.001125 0.181331 -0.339309
C40   C     C_3   0.414810 0.003746 0.680232 -0.360562
H17   H     H_    0.589308 0.551214 0.870011 0.160695
H18   H     H_    0.928281 0.460014 0.372140 0.154296
H19   H     H_    0.071653 0.960054 0.127866 0.154278
H20   H     H_    0.410719 0.051214 0.629992 0.160702
H21   H     H_    0.628025 0.335057 0.745257 0.128925
H22   H     H_    0.860941 0.666956 0.243641 0.126116
H23   H     H_    0.139114 0.166971 0.256370 0.126096
H24   H     H_    0.371956 0.835056 0.754739 0.128917
C41   C     C_R   0.062264 0.551134 0.714063 0.192150
C42   C     C_R   0.147788 0.629456 0.692658 -0.340881
C43   C     C_R   0.257099 0.620695 0.633741 0.102043
C44   C     C_R   0.301748 0.532397 0.600259 -0.073240
C45   C     C_R   0.254880 0.451304 0.640430 -0.230029
C46   C     C_R   0.134381 0.460550 0.699376 -0.106846
H25   H     H_    0.109523 0.699229 0.711102 0.111723
H26   H     H_    0.304080 0.687746 0.619882 0.202194
H27   H     H_    0.384053 0.526367 0.549571 0.134350
H28   H     H_    0.303433 0.382514 0.623682 0.140344
H29   H     H_    0.094012 0.397460 0.728521 0.118127
C47   C     C_R   0.438162 0.445792 0.217822 0.196539
C48   C     C_R   0.355620 0.367811 0.193051 -0.339633
C49   C     C_R   0.245257 0.378558 0.134518 0.097537
C50   C     C_R   0.198577 0.467912 0.103921 -0.068054
C51   C     C_R   0.244045 0.547397 0.146589 -0.214825
C52   C     C_R   0.363058 0.536197 0.206012 -0.113333
H30   H     H_    0.396047 0.297490 0.209035 0.113053
H31   H     H_    0.196646 0.312324 0.119568 0.202447
H32   H     H_    0.115215 0.475658 0.053718 0.130781
H33   H     H_    0.192637 0.616428 0.132497 0.135454
H34   H     H_    0.397628 0.597655 0.238851 0.115342
C53   C     C_R   0.561841 0.945785 0.282167 0.196551
C54   C     C_R   0.644366 0.867806 0.306951 -0.339639
C55   C     C_R   0.754735 0.878560 0.365482 0.097525
C56   C     C_R   0.801427 0.967917 0.396068 -0.068049
C57   C     C_R   0.755967 0.047395 0.353390 -0.214779
C58   C     C_R   0.636958 0.036189 0.293965 -0.113362
H35   H     H_    0.603926 0.797483 0.290980 0.113074
H36   H     H_    0.803349 0.812327 0.380434 0.202453
H37   H     H_    0.884796 0.975669 0.446268 0.130767
H38   H     H_    0.807384 0.116427 0.367472 0.135437
H39   H     H_    0.602413 0.097639 0.261112 0.115335
C59   C     C_R   0.937735 0.051141 0.785929 0.192151
C60   C     C_R   0.852219 0.129462 0.807343 -0.340883
C61   C     C_R   0.742905 0.120696 0.866259 0.102038
C62   C     C_R   0.698255 0.032395 0.899733 -0.073246
C63   C     C_R   0.745118 0.951306 0.859555 -0.230003
C64   C     C_R   0.865613 0.960557 0.800607 -0.106858
H40   H     H_    0.890490 0.199237 0.788909 0.111733
H41   H     H_    0.695922 0.187745 0.880121 0.202197
H42   H     H_    0.615945 0.026361 0.950420 0.134341
H43   H     H_    0.696561 0.882515 0.876295 0.140339
H44   H     H_    0.905968 0.897471 0.771452 0.118126
H45   H     H_    0.465403 0.460486 0.822207 0.171642
H46   H     H_    0.035874 0.547535 0.314986 0.172616
H47   H     H_    0.964128 0.047568 0.185052 0.172613
H48   H     H_    0.534603 0.960480 0.677802 0.171639
H49   H     H_    0.595723 0.435074 0.642929 0.105972
H50   H     H_    0.900758 0.563795 0.143713 0.101737
H51   H     H_    0.099260 0.063799 0.356288 0.101728
H52   H     H_    0.404268 0.935074 0.857067 0.105965
H53   H     H_    0.874967 0.558831 0.875602 0.129110
H54   H     H_    0.641044 0.437063 0.377782 0.132951
H55   H     H_    0.358893 0.937055 0.122216 0.132960
H56   H     H_    0.125064 0.058845 0.624394 0.129117
H57   H     H_    0.018989 0.477629 0.838594 0.167644
H58   H     H_    0.485940 0.514936 0.344834 0.164707
H59   H     H_    0.514042 0.014912 0.155146 0.164696
H60   H     H_    0.981019 0.977649 0.661391 0.167636
C65   C     C_R   0.842134 0.402136 0.601719 0.117330
C66   C     C_R   0.918984 0.454178 0.541005 -0.123826
C67   C     C_R   0.051475 0.415133 0.496186 -0.127063
C68   C     C_R   0.090468 0.319914 0.501802 -0.122417
C69   C     C_R   0.000534 0.263438 0.553624 -0.124569
C70   C     C_R   0.876223 0.303536 0.602297 -0.171265
H61   H     H_    0.882186 0.524206 0.527042 0.131151
H62   H     H_    0.127289 0.459543 0.457882 0.111811
H63   H     H_    0.189971 0.290507 0.466025 0.119664
H64   H     H_    0.027464 0.188598 0.556319 0.097602
H65   H     H_    0.808215 0.256095 0.641007 0.099921
C71   C     C_R   0.651254 0.590140 0.101926 0.118082
C72   C     C_R   0.597705 0.534101 0.038957 -0.099967
C73   C     C_R   0.454778 0.559380 0.994953 -0.118910
C74   C     C_R   0.390376 0.650294 0.999166 -0.137143
C75   C     C_R   0.463261 0.715147 0.050345 -0.113422
C76   C     C_R   0.591605 0.685323 0.101963 -0.180248
H66   H     H_    0.665533 0.472644 0.020992 0.107076
H67   H     H_    0.396024 0.508794 0.955779 0.124831
H68   H     H_    0.284677 0.668693 0.962552 0.118424
H69   H     H_    0.416703 0.787225 0.051899 0.108018
H70   H     H_    0.643997 0.738216 0.140813 0.098180
C77   C     C_R   0.348770 0.090123 0.398079 0.118070
C78   C     C_R   0.402274 0.034073 0.461049 -0.099936
C79   C     C_R   0.545225 0.059318 0.505050 -0.118879
C80   C     C_R   0.609678 0.150221 0.500845 -0.137178
C81   C     C_R   0.536825 0.215094 0.449673 -0.113384
C82   C     C_R   0.408469 0.185296 0.398049 -0.180235
H71   H     H_    0.334386 0.972638 0.479017 0.107031
H72   H     H_    0.603945 0.008715 0.544220 0.124873
H73   H     H_    0.715388 0.168594 0.537462 0.118399
H74   H     H_    0.583425 0.287164 0.448124 0.108038
H75   H     H_    0.356113 0.238201 0.359200 0.098168
C83   C     C_R   0.157849 0.902143 0.898273 0.117352
C84   C     C_R   0.081024 0.954188 0.958992 -0.123800
C85   C     C_R   0.948519 0.915152 0.003808 -0.127044
C86   C     C_R   0.909497 0.819938 0.998187 -0.122428
C87   C     C_R   0.999414 0.763456 0.946362 -0.124578
C88   C     C_R   0.123728 0.803547 0.897689 -0.171283
H76   H     H_    0.117855 0.024208 0.972964 0.131127
H77   H     H_    0.872709 0.959569 0.042110 0.111810
H78   H     H_    0.809982 0.790542 0.033959 0.119681
H79   H     H_    0.972465 0.688619 0.943665 0.097621
H80   H     H_    0.191720 0.756100 0.858976 0.099913

loop_
_geom_bond_atom_site_label_1
_geom_bond_atom_site_label_2
_geom_bond_distance
_ccdc_geom_bond_type
C78   H71   1.061798 S    
O17   V3    1.875827 S    
C87   H79   1.079941 S    
C77   C78   1.401540 A    
O1    C5    1.425328 A    
C45   C46   1.382754 A    
C23   C27   1.572119 S    
O19   V1    1.875820 S    
O13   V1    2.073103 S    
H8    C36   1.092214 S    
C29   C37   1.549596 S    
C74   C75   1.389100 A    
C10   C14   1.539802 S    
C1    C32   1.553254 S    
C14   C30   1.520123 S    
C32   C36   1.545292 S    
O15   V3    2.073377 S    
C19   C77   1.548711 S    
C31   C39   1.546091 S    
C72   C73   1.387592 A    
C86   C87   1.383410 A    
C3    C30   1.549514 S    
C11   C53   1.458297 S    
C42   H25   1.077961 S    
C79   C80   1.381460 A    
O7    C3    1.426887 A    
C47   C52   1.419674 A    
C48   C49   1.327157 A    
C46   H29   1.069499 S    
H5    C33   1.092216 S    
C75   C76   1.396786 A    
C52   H34   1.069552 S    
C20   C83   1.552805 S    
C5    C27   1.661959 S    
C17   H49   1.104271 S    
C18   C34   1.584687 S    
C6    C28   1.657549 S    
C54   H35   1.078214 S    
O4    C8    1.425328 A    
C65   C66   1.407083 A    
C30   C38   1.546087 S    
C57   C58   1.383319 A    
O1    V3    2.073073 S    
C17   C25   1.605112 S    
C85   C86   1.383665 A    
O2    V4    2.073346 S    
C41   C46   1.420584 A    
O3    V1    2.073356 S    
C64   H44   1.069492 S    
C51   C52   1.383306 A    
C20   C28   1.605112 S    
C16   H60   1.112141 S    
C43   H26   1.043423 S    
C83   C84   1.407078 A    
O3    C7    1.422576 A    
C62   H42   1.081552 S    
C1    O15   1.380393 A    
C53   C54   1.344083 A    
C2    O16   1.379228 A    
C39   H19   1.086458 S    
C23   H11   1.056626 S    
C30   C34   1.545764 S    
C10   C47   1.458287 S    
C67   C68   1.383672 A    
C24   H12   1.062101 S    
C29   C33   1.545309 S    
C53   C58   1.419672 A    
O14   V2    2.073390 S    
C37   H17   1.092081 S    
C21   H13   1.113970 S    
C36   H24   1.114194 S    
C72   H66   1.061803 S    
C42   C43   1.324523 A    
C40   H20   1.092075 S    
C2    C31   1.549516 S    
O11   C7    1.432746 A    
O12   C8    1.433528 A    
C75   H69   1.081904 S    
O5    C1    1.427619 A    
C37   H45   1.113645 S    
O10   V2    2.101299 S    
C54   C55   1.327165 A    
C44   H27   1.081546 S    
C56   C57   1.386539 A    
O5    V1    2.101323 S    
C82   H75   1.080615 S    
C11   C27   1.600226 S    
O7    V3    2.101842 S    
C58   H39   1.069546 S    
C69   H64   1.079940 S    
O8    V4    2.101327 S    
C60   C61   1.324526 A    
C48   H30   1.078219 S    
C55   C56   1.415280 A    
C41   C42   1.342472 A    
C43   C44   1.417362 A    
C21   C25   1.569366 S    
C59   C64   1.420582 A    
C22   H10   1.056648 S    
C18   C71   1.548717 S    
C24   H16   1.113973 S    
C9    H1    1.119046 S    
C55   H36   1.041822 S    
C18   C26   1.607981 S    
C77   C82   1.423598 A    
C12   C59   1.455106 S    
C65   C70   1.419479 A    
C84   C85   1.397173 A    
C14   H54   1.115043 S    
C9    C41   1.455102 S    
C23   C39   1.571883 S    
C38   H18   1.086474 S    
C81   C82   1.396794 A    
C12   H4    1.119046 S    
O8    C4    1.427616 A    
C22   C26   1.572124 S    
O9    C5    1.433536 A    
C49   H31   1.041828 S    
C67   H62   1.082402 S    
C34   H22   1.114201 S    
C38   H46   1.113825 S    
C33   H21   1.114194 S    
C88   H80   1.081137 S    
C50   H32   1.081524 S    
C22   H14   1.113943 S    
C35   H23   1.114201 S    
O6    V2    2.101852 S    
C4    C29   1.553255 S    
C66   H61   1.058169 S    
C21   C37   1.568412 S    
C17   C33   1.587952 S    
C12   C16   1.538817 S    
C19   C27   1.608000 S    
C21   H9    1.062111 S    
C14   H58   1.112033 S    
H6    C34   1.088884 S    
C11   C15   1.539807 S    
C78   C79   1.387575 A    
C13   C29   1.512722 S    
C15   H55   1.115037 S    
O16   V4    2.073107 S    
O9    V1    2.101827 S    
C76   H70   1.080616 S    
C7    C25   1.657555 S    
C68   H63   1.070131 S    
C3    O13   1.379228 A    
C15   C31   1.520139 S    
C10   H2    1.118896 S    
C56   H37   1.081533 S    
C19   C35   1.584684 S    
C20   C36   1.587941 S    
C24   C40   1.568402 S    
O6    C2    1.426886 A    
C23   H15   1.113945 S    
C18   H50   1.104550 S    
O11   V3    2.101301 S    
C81   H74   1.081911 S    
O18   V4    1.875826 S    
C9    C25   1.597991 S    
C73   C74   1.381463 A    
C39   H47   1.113825 S    
C13   H53   1.112763 S    
C40   H48   1.113649 S    
C17   C65   1.552816 S    
C9    C13   1.538817 S    
C71   C72   1.401549 A    
O10   C6    1.432749 A    
C71   C76   1.423595 A    
C74   H68   1.064621 S    
C87   C88   1.395719 A    
H7    C35   1.088886 S    
C70   H65   1.081137 S    
C32   C40   1.549603 S    
C63   H43   1.082110 S    
O2    C6    1.422570 A    
C31   C35   1.545768 S    
C60   H40   1.077953 S    
C62   C63   1.386241 A    
C79   H72   1.081641 S    
C63   C64   1.382763 A    
O12   V4    2.101814 S    
C11   H3    1.118897 S    
C80   H73   1.064632 S    
O20   V2    1.875821 S    
C44   C45   1.386242 A    
C20   H52   1.104274 S    
C86   H78   1.070109 S    
C61   H41   1.043411 S    
C16   C32   1.512731 S    
C83   C88   1.419483 A    
C49   C50   1.415289 A    
C15   H59   1.112032 S    
C73   H67   1.081637 S    
C24   C28   1.569353 S    
C13   H57   1.112141 S    
C68   C69   1.383412 A    
C8    C26   1.661950 S    
C57   H38   1.081944 S    
C4    O14   1.380397 A    
C50   C51   1.386540 A    
C10   C26   1.600211 S    
C12   C28   1.598001 S    
C51   H33   1.081950 S    
C61   C62   1.417355 A    
C47   C48   1.344085 A    
C16   H56   1.112763 S    
C22   C38   1.571884 S    
C59   C60   1.342468 A    
C84   H76   1.058173 S    
C45   H28   1.082117 S    
C85   H77   1.082404 S    
O4    V2    2.073067 S    
C66   C67   1.397185 A    
C69   C70   1.395730 A    
C80   C81   1.389120 A    
C19   H51   1.104550 S    
