data_mof_unit_18674.cif
_audit_creation_date              2012-12-10T19:28:28-0500
_audit_creation_method            fapswitch 2.2
_symmetry_space_group_name_H-M    P1
_symmetry_Int_Tables_number       1
_space_group_crystal_system       triclinic
_cell_length_a                    27.725588
_cell_length_b                    10.482426
_cell_length_c                    9.741913
_cell_angle_alpha                 90.092032
_cell_angle_beta                  89.971686
_cell_angle_gamma                 90.180057
_cell_volume                      2831.28808077

loop_
_atom_site_label
_atom_site_type_symbol
_atom_type_description
_atom_site_fract_x
_atom_site_fract_y
_atom_site_fract_z
_atom_type_partial_charge
C1    C     C_R   0.500650 0.257653 0.499921 0.872641
C2    C     C_R   0.499324 0.742339 0.500076 0.872355
C3    C     C_R   0.101942 0.502024 0.500603 -0.052203
C4    C     C_R   0.898239 0.499746 0.499412 -0.052063
C5    C     C_R   0.127594 0.386252 0.500364 -0.021991
C6    C     C_R   0.872599 0.614550 0.483567 -0.021617
C7    C     C_R   0.102575 0.270649 0.498868 -0.136586
C8    C     C_R   0.897637 0.729139 0.467432 -0.136914
C9    C     C_R   0.127521 0.618356 0.501087 -0.019422
C10   C     C_R   0.872650 0.384381 0.514989 -0.019194
C11   C     C_R   0.353537 0.501321 0.500245 -0.037722
C12   C     C_R   0.646496 0.499334 0.499793 -0.037816
C13   C     C_R   0.974606 0.383129 0.511024 0.046804
C14   C     C_R   0.025571 0.619050 0.496034 0.046986
C15   C     C_R   0.974539 0.618068 0.488697 0.046918
C16   C     C_R   0.025650 0.383295 0.504330 0.047116
C17   C     C_R   0.949340 0.500316 0.499707 0.070033
C18   C     C_R   0.050844 0.501456 0.500330 0.069875
C19   C     C_R   0.947730 0.269474 0.529827 -0.216057
C20   C     C_R   0.052426 0.734043 0.500341 -0.215262
C21   C     C_R   0.897748 0.270342 0.531343 -0.137269
C22   C     C_R   0.102409 0.733403 0.502374 -0.136931
C23   C     C_R   0.406141 0.500316 0.500029 0.859063
C24   C     C_R   0.593869 0.499803 0.499976 0.859603
C25   C     C_R   0.052596 0.268900 0.500367 -0.214791
C26   C     C_R   0.947614 0.731116 0.469522 -0.215611
C27   C     C_3   0.517088 0.041567 0.622050 -0.209285
C28   C     C_3   0.482829 0.958400 0.377947 -0.209284
C29   C     C_3   0.545130 0.956032 0.519932 -0.234404
C30   C     C_3   0.454789 0.043949 0.480057 -0.234517
C31   C     C_3   0.499036 0.877206 0.500170 -0.023456
C32   C     C_3   0.500891 0.122777 0.499818 -0.023628
C33   C     C_3   0.471229 0.960557 0.601058 0.062712
C34   C     C_3   0.528688 0.039409 0.398923 0.062713
C35   C     C_3   0.492713 0.386380 0.048387 -0.063665
C36   C     C_3   0.507287 0.613621 0.951613 -0.063731
C37   C     C_3   0.533505 0.426796 0.951024 -0.067550
C38   C     C_3   0.466496 0.573203 0.048978 -0.066879
C39   C     C_3   0.459159 0.459650 0.951452 -0.076746
C40   C     C_3   0.540841 0.540351 0.048548 -0.077257
C41   C     C_R   0.178019 0.389008 0.500417 0.505055
C42   C     C_R   0.822169 0.611829 0.483630 0.504564
C43   C     C_R   0.177959 0.616679 0.501396 0.500288
C44   C     C_R   0.822212 0.386028 0.514568 0.499995
C45   C     C_R   0.278145 0.528292 0.379231 -0.105287
C46   C     C_R   0.721938 0.477590 0.621841 -0.103486
C47   C     C_R   0.328236 0.527001 0.378626 -0.226166
C48   C     C_R   0.671846 0.478225 0.622359 -0.227054
C49   C     C_R   0.328169 0.476892 0.622222 -0.239556
C50   C     C_R   0.671839 0.519903 0.376955 -0.240268
C51   C     C_R   0.278091 0.477889 0.622355 -0.115454
C52   C     C_R   0.721917 0.519293 0.376819 -0.113751
C53   C     C_R   0.253176 0.503490 0.500942 0.330777
C54   C     C_R   0.746915 0.498260 0.499188 0.326889
H1    H     H_    0.346941 0.456682 0.717174 0.157506
H2    H     H_    0.653054 0.536569 0.281218 0.157675
H3    H     H_    0.531572 0.081113 0.719388 0.133651
H4    H     H_    0.468334 0.918823 0.280635 0.133588
H5    H     H_    0.561691 0.365577 0.904256 0.117691
H6    H     H_    0.438310 0.634415 0.095759 0.117311
H7    H     H_    0.486499 0.290768 0.094043 0.133854
H8    H     H_    0.513495 0.709236 0.905958 0.133876
H9    H     H_    0.424788 0.425761 0.905507 0.122366
H10   H     H_    0.575212 0.574243 0.094492 0.122533
H11   H     H_    0.258570 0.458769 0.716445 0.137762
H12   H     H_    0.741377 0.535080 0.281913 0.139717
H13   H     H_    0.121551 0.180449 0.496286 0.189980
H14   H     H_    0.878679 0.818347 0.452892 0.190751
H15   H     H_    0.653061 0.461734 0.718256 0.154404
H16   H     H_    0.347071 0.546673 0.283500 0.153493
H17   H     H_    0.741424 0.461498 0.716528 0.137090
H18   H     H_    0.258658 0.547994 0.285355 0.134726
H19   H     H_    0.878831 0.180718 0.545661 0.190802
H20   H     H_    0.121314 0.824015 0.505160 0.190015
H21   H     H_    0.964124 0.177874 0.546676 0.138716
H22   H     H_    0.036007 0.826874 0.505136 0.137180
H23   H     H_    0.036263 0.175702 0.495418 0.137093
H24   H     H_    0.963970 0.823069 0.452833 0.138654
H25   H     H_    0.581691 0.915525 0.535227 0.149020
H26   H     H_    0.418229 0.084459 0.464764 0.149202
N1    N     N_R   0.201868 0.503093 0.500962 -0.358917
N2    N     N_R   0.798272 0.498682 0.499058 -0.358159
N3    N     N_3   0.499960 0.500030 0.863290 -0.076958
N4    N     N_3   0.500040 0.499970 0.136710 -0.076923
O1    O     O_R   0.500000 0.313960 0.616610 -0.624642
O2    O     O_R   0.500000 0.686040 0.383390 -0.624676
O3    O     O_R   0.500020 0.313950 0.383350 -0.616332
O4    O     O_R   0.499980 0.686050 0.616650 -0.616384
O5    O     O_R   0.428750 0.500030 0.616610 -0.619291
O6    O     O_R   0.571250 0.499970 0.383390 -0.619136
O7    O     O_R   0.428770 0.500020 0.383360 -0.624728
O8    O     O_R   0.571230 0.499980 0.616640 -0.625096
O9    O     O_2   0.203135 0.278873 0.499395 -0.550238
O10   O     O_2   0.797104 0.721233 0.469433 -0.551683
O11   O     O_2   0.797189 0.276115 0.528585 -0.557797
O12   O     O_2   0.203018 0.727315 0.502605 -0.556740
Zn1   Zn    Zn3+2 0.499990 0.500010 0.655740 0.945336
Zn2   Zn    Zn3+2 0.500010 0.499990 0.344260 0.945565
C55   C     C_R   0.438059 0.910047 0.710719 0.127988
C56   C     C_R   0.447026 0.934782 0.850174 -0.157648
C57   C     C_R   0.416426 0.884825 0.950882 -0.155590
C58   C     C_R   0.376753 0.810064 0.913243 -0.122331
C59   C     C_R   0.367479 0.785608 0.774713 -0.101792
C60   C     C_R   0.397981 0.835346 0.673657 -0.121042
H27   H     H_    0.477665 0.991837 0.881559 0.111081
H28   H     H_    0.423556 0.903722 0.058179 0.120792
H29   H     H_    0.353206 0.771146 0.991418 0.126508
H30   H     H_    0.336621 0.728245 0.745666 0.147718
H31   H     H_    0.390577 0.815037 0.566645 0.113659
C61   C     C_R   0.561854 0.089714 0.289146 0.128433
C62   C     C_R   0.552759 0.065201 0.149709 -0.157486
C63   C     C_R   0.583407 0.114764 0.048899 -0.155329
C64   C     C_R   0.623268 0.188862 0.086415 -0.121886
C65   C     C_R   0.632672 0.213078 0.224920 -0.103989
C66   C     C_R   0.602099 0.163826 0.326081 -0.121097
H32   H     H_    0.521988 0.008611 0.118406 0.110966
H33   H     H_    0.576180 0.096034 0.941624 0.120742
H34   H     H_    0.646870 0.227424 0.008169 0.127100
H35   H     H_    0.663699 0.269829 0.253861 0.145739
H36   H     H_    0.609608 0.183944 0.433075 0.114094

loop_
_geom_bond_atom_site_label_1
_geom_bond_atom_site_label_2
_ccdc_geom_bond_type
C1    O3    A    
C57   C58   A    
C27   C29   S    
C8    C26   A    
C14   C18   A    
C11   C47   A    
C62   C63   A    
C42   N2    A    
C48   H15   S    
C12   C48   A    
C65   C66   A    
C19   H21   S    
C27   C33   S    
C56   H27   S    
C26   H24   S    
C3    C9    A    
C35   C37   S    
C37   C40   S    
C44   N2    A    
C60   H31   S    
C9    C22   A    
C36   N3    S    
C21   H19   S    
C16   C25   A    
C20   H22   S    
C3    C18   A    
C53   N1    S    
C51   H11   S    
C40   N4    S    
C61   C62   A    
C41   O9    S    
C49   C51   A    
C50   C52   A    
C23   O5    A    
C2    O4    A    
C59   H30   S    
O4    Zn1   S    
O3    Zn2   S    
C30   H26   S    
C55   C60   A    
C28   C34   S    
C45   H18   S    
C36   H8    S    
C24   O8    A    
C63   C64   A    
C52   C54   A    
O8    Zn1   S    
C45   C47   A    
C10   C21   A    
C1    O1    A    
C46   C48   A    
C9    C43   A    
C13   C19   A    
C10   C44   A    
C14   C20   A    
C36   C40   S    
C4    C6    A    
C27   H3    S    
C5    C7    A    
C15   C26   A    
C6    C8    A    
C49   H1    S    
C7    H13   S    
C29   C34   S    
C1    C32   S    
C50   H2    S    
O5    Zn1   S    
C2    C31   S    
C33   C55   S    
C32   C34   S    
C35   C39   S    
C47   H16   S    
C11   C49   A    
C55   C56   A    
C29   H25   S    
C41   N1    A    
C46   C54   A    
C31   C33   S    
C43   O12   S    
C58   H29   S    
C35   H7    S    
C46   H17   S    
C37   H5    S    
C38   H6    S    
C4    C17   A    
C20   C22   A    
C8    H14   S    
C6    C42   A    
C43   N1    A    
C25   H23   S    
C22   H20   S    
C4    C10   A    
C54   N2    S    
C52   H12   S    
C64   C65   A    
C57   H28   S    
C15   C17   A    
C5    C41   A    
C30   C33   S    
C38   N4    S    
C27   C32   S    
C42   O10   S    
C28   C31   S    
C65   H35   S    
C3    C5    A    
C24   O6    A    
C12   C50   A    
C35   N4    S    
C28   H4    S    
C39   H9    S    
C12   C24   S    
C7    C25   A    
C13   C17   A    
C63   H33   S    
C62   H32   S    
N4    Zn2   S    
C36   C38   S    
C39   N3    S    
C28   C30   S    
C29   C31   S    
C44   O11   S    
C30   C32   S    
C38   C39   S    
C34   C61   S    
C40   H10   S    
C11   C23   S    
C56   C57   A    
C2    O2    A    
C23   O7    A    
O7    Zn2   S    
C58   C59   A    
O2    Zn2   S    
O1    Zn1   S    
C45   C53   A    
C64   H34   S    
C16   C18   A    
C66   H36   S    
N3    Zn1   S    
C13   C16   A    
C59   C60   A    
C14   C15   A    
C37   N3    S    
C51   C53   A    
C61   C66   A    
O6    Zn2   S    
C19   C21   A    
