data_mof_unit_50866.cif
_audit_creation_date              2012-12-10T17:10:27-0500
_audit_creation_method            fapswitch 2.2
_symmetry_space_group_name_H-M    P1
_symmetry_Int_Tables_number       1
_space_group_crystal_system       triclinic
_cell_length_a                    10.74256
_cell_length_b                    13.04662
_cell_length_c                    11.67883
_cell_angle_alpha                 102.273057
_cell_angle_beta                  91.572888
_cell_angle_gamma                 88.502538
_cell_volume                      1598.47916893

loop_
_atom_site_label
_atom_site_type_symbol
_atom_type_description
_atom_site_fract_x
_atom_site_fract_y
_atom_site_fract_z
_atom_type_partial_charge
C1    C     C_R   0.497291 0.298177 0.476077 0.841972
C2    C     C_R   0.502709 0.701823 0.523922 0.841971
C3    C     C_R   0.503862 0.817038 0.540449 -0.103096
C4    C     C_R   0.496138 0.182962 0.459550 -0.103095
C5    C     C_R   0.522228 0.004972 0.344974 -0.166507
C6    C     C_R   0.477771 0.995028 0.655026 -0.166507
C7    C     C_R   0.515285 0.112643 0.350162 0.170313
C8    C     C_R   0.484714 0.887357 0.649837 0.170313
C9    C     C_R   0.480922 0.141845 0.559938 -0.211734
C10   C     C_R   0.519078 0.858155 0.440062 -0.211734
C11   C     C_R   0.489362 0.034380 0.553974 0.116757
C12   C     C_R   0.510638 0.965620 0.446026 0.116757
C13   C     C_R   0.388363 0.399285 0.019429 0.008792
C14   C     C_R   0.611639 0.600714 0.980571 0.008790
C15   C     C_R   0.395878 0.411384 0.142606 0.128567
C16   C     C_R   0.604122 0.588616 0.857394 0.128568
C17   C     C_R   0.547825 0.542138 0.157933 0.045237
C18   C     C_R   0.452178 0.457860 0.842067 0.045235
C19   C     C_R   0.540271 0.536405 0.035110 0.001007
C20   C     C_R   0.459731 0.463594 0.964890 0.001006
C21   C     C_R   0.261504 0.513176 0.505573 0.810838
C22   C     C_R   0.738496 0.486824 0.494427 0.810839
C23   C     C_R   0.104891 0.518976 0.727664 -0.040045
C24   C     C_R   0.895107 0.481025 0.272336 -0.040046
C25   C     C_R   0.050070 0.468666 0.807386 -0.195487
C26   C     C_R   0.949928 0.531336 0.192614 -0.195487
C27   C     C_R   0.952422 0.400560 0.771960 0.164389
C28   C     C_R   0.047577 0.599441 0.228041 0.164390
C29   C     C_R   0.899721 0.391416 0.659405 -0.052245
C30   C     C_R   0.100278 0.608585 0.340594 -0.052246
C31   C     C_R   0.944327 0.453056 0.583317 0.000721
C32   C     C_R   0.055673 0.546944 0.416683 0.000722
C33   C     C_R   0.060589 0.501295 0.609339 0.036172
C34   C     C_R   0.939411 0.498706 0.390661 0.036173
C35   C     C_R   0.875733 0.468366 0.483098 -0.181119
C36   C     C_R   0.124267 0.531634 0.516902 -0.181119
Cu1   Cu    Cu3+1 0.509250 0.507730 0.615930 0.983286
Cu2   Cu    Cu3+1 0.490750 0.492270 0.384070 0.983285
H1    H     H_    0.083986 0.481689 0.897416 0.185857
H2    H     H_    0.916012 0.518313 0.102585 0.185857
H3    H     H_    0.535403 0.806292 0.355810 0.179359
H4    H     H_    0.464597 0.193708 0.644190 0.179359
H5    H     H_    0.537804 0.951664 0.261540 0.185526
H6    H     H_    0.462195 0.048337 0.738460 0.185526
H7    H     H_    0.389452 0.404856 0.786508 0.159850
H8    H     H_    0.610554 0.595140 0.213492 0.159849
N1    N     N_R   0.523180 0.519350 0.790130 -0.221713
N2    N     N_R   0.476820 0.480650 0.209870 -0.221713
O1    O     O_R   0.506570 0.354460 0.582000 -0.589266
O2    O     O_R   0.493430 0.645540 0.418000 -0.589265
O3    O     O_R   0.490940 0.341410 0.386200 -0.566264
O4    O     O_R   0.509060 0.658590 0.613800 -0.566264
O5    O     O_R   0.327470 0.506520 0.597900 -0.587841
O6    O     O_R   0.672530 0.493480 0.402100 -0.587843
O7    O     O_R   0.311840 0.493460 0.402100 -0.584745
O8    O     O_R   0.688160 0.506540 0.597900 -0.584746
I1    I     I_    0.117056 0.682370 0.106280 -0.292437
I2    I     I_    0.882943 0.317632 0.893720 -0.292439
I3    I     I_    0.272478 0.279892 0.918291 -0.343201
I4    I     I_    0.727524 0.720107 0.081709 -0.343203
C37   C     C_1   0.188318 0.602447 0.776136 0.326685
N3    N     N_1   0.254612 0.669547 0.816390 -0.199617
C38   C     C_1   0.811681 0.397553 0.223866 0.326683
N4    N     N_1   0.745390 0.330450 0.183614 -0.199616
C39   C     C_1   0.815766 0.306707 0.616128 0.310204
N5    N     N_1   0.751038 0.237000 0.581607 -0.264665
C40   C     C_1   0.184234 0.693293 0.383872 0.310204
N6    N     N_1   0.248963 0.763001 0.418393 -0.264665
I5    I     I_    0.460460 0.846789 0.813948 -0.223480
I6    I     I_    0.539535 0.153210 0.186050 -0.223479
C41   C     C_1   0.685197 0.649717 0.803140 0.410226
N7    N     N_1   0.751217 0.699008 0.760672 -0.242289
C42   C     C_1   0.314802 0.350283 0.196860 0.410226
N8    N     N_1   0.248782 0.300993 0.239327 -0.242289

loop_
_geom_bond_atom_site_label_1
_geom_bond_atom_site_label_2
_ccdc_geom_bond_type
C30   C32   A    
C27   C29   A    
C42   N8    T    
C19   C20   A    
C17   N2    A    
C18   N1    A    
C7    I6    S    
C22   O6    A    
C21   C36   S    
C28   I1    S    
C22   C35   S    
C9    H4    S    
C32   C36   A    
C24   C26   A    
C33   C36   A    
C34   C35   A    
C2    O2    A    
Cu1   O8    S    
Cu2   O7    S    
C23   C33   A    
C31   C33   A    
C14   C16   A    
Cu1   N1    S    
Cu2   N2    S    
C30   C40   S    
Cu1   O5    S    
C5    H5    S    
C6    H6    S    
C10   H3    S    
C16   C41   S    
C15   N2    A    
C4    C7    A    
C10   C12   A    
C16   N1    A    
Cu2   O2    S    
C40   N6    T    
C17   H8    S    
C5    C12   A    
C3    C8    A    
C6    C11   A    
C5    C7    A    
Cu1   O4    S    
C22   O8    A    
Cu2   O3    S    
C24   C34   A    
C32   C34   A    
Cu1   Cu2   S    
Cu1   O1    S    
Cu2   O6    S    
C13   C15   A    
C8    I5    S    
C1    O3    A    
C2    O4    A    
C29   C39   S    
C15   C42   S    
C24   C38   S    
C9    C11   A    
C31   C35   A    
C18   H7    S    
C21   O7    A    
C13   C20   A    
C14   C19   A    
C27   I2    S    
C6    C8    A    
C11   C12   A    
C13   I3    S    
C25   C27   A    
C14   I4    S    
C26   C28   A    
C1    C4    S    
C28   C30   A    
C2    C3    S    
C41   N7    T    
C29   C31   A    
C3    C10   A    
C25   H1    S    
C21   O5    A    
C26   H2    S    
C17   C19   A    
C18   C20   A    
C23   C25   A    
C37   N3    T    
C38   N4    T    
C23   C37   S    
C39   N5    T    
C4    C9    A    
C1    O1    A    
