data_mof_unit_19619.cif
_audit_creation_date              2013-03-05T15:55:11-0500
_audit_creation_method            fapswitch 2.2
_symmetry_space_group_name_H-M    P1
_symmetry_Int_Tables_number       1
_space_group_crystal_system       triclinic
_cell_length_a                    14.556922
_cell_length_b                    16.144227
_cell_length_c                    6.920694
_cell_angle_alpha                 90.000294
_cell_angle_beta                  99.051348
_cell_angle_gamma                 89.999891
_cell_volume                      1606.18128368

loop_
_atom_site_label
_atom_site_type_symbol
_atom_site_description
_atom_site_fract_x
_atom_site_fract_y
_atom_site_fract_z
_atom_type_partial_charge
O1    O     O_R   0.831700 0.662810 0.581550 -0.575858
O2    O     O_R   0.168300 0.337190 0.418450 -0.575840
O3    O     O_R   0.168300 0.162810 0.418450 -0.575857
O4    O     O_R   0.831700 0.837190 0.581550 -0.575830
O5    O     O_R   0.842890 0.834390 0.255500 -0.587922
O6    O     O_R   0.157110 0.165610 0.744500 -0.588148
O7    O     O_R   0.157110 0.334390 0.744500 -0.588006
O8    O     O_R   0.842890 0.665610 0.255500 -0.588159
O9    O     O_R   0.661690 0.835580 0.024130 -0.609024
O10   O     O_R   0.338310 0.164420 0.975870 -0.609063
O11   O     O_R   0.338310 0.335580 0.975870 -0.609033
O12   O     O_R   0.661690 0.664420 0.024130 -0.609068
C1    C     C_R   0.863412 0.866136 0.430535 1.022198
C2    C     C_R   0.136604 0.133852 0.569474 1.022417
C3    C     C_R   0.136592 0.366139 0.569468 1.022284
C4    C     C_R   0.863398 0.633854 0.430527 1.022408
C5    C     C_R   0.069110 0.063287 0.536160 -0.338704
C6    C     C_R   0.930938 0.936676 0.463874 -0.338849
C7    C     C_R   0.930898 0.563293 0.463843 -0.338657
C8    C     C_R   0.069074 0.436686 0.536137 -0.338753
H1    H     H_    0.004772 0.898576 0.232654 0.182425
H2    H     H_    0.995283 0.101350 0.767454 0.182149
H3    H     H_    0.995190 0.398542 0.767242 0.182336
H4    H     H_    0.004778 0.601415 0.232694 0.182177
C9    C     C_R   0.001332 0.943566 0.347490 -0.202522
C10   C     C_R   0.998729 0.056380 0.652577 -0.203219
C11   C     C_R   0.998652 0.443550 0.652457 -0.202869
C12   C     C_R   0.001313 0.556418 0.347504 -0.203288
O13   O     O_3   0.687240 0.750000 0.366320 -0.293428
O14   O     O_3   0.312760 0.250000 0.633680 -0.293411
V1    V     V_3+5 0.757720 0.750000 0.115230 1.232703
V2    V     V_3+5 0.242280 0.250000 0.884770 1.232636
O15   O     O_R   0.650500 0.664000 0.690740 -0.590080
O16   O     O_R   0.349500 0.336000 0.309260 -0.590138
O17   O     O_R   0.349500 0.164000 0.309260 -0.590087
O18   O     O_R   0.650500 0.836000 0.690740 -0.590183
C13   C     C_R   0.628241 0.635901 0.853300 1.078998
C14   C     C_R   0.371759 0.364099 0.146700 1.079054
C15   C     C_R   0.371759 0.135901 0.146700 1.079036
C16   C     C_R   0.628241 0.864099 0.853300 1.079102
C17   C     C_R   0.070821 0.004858 0.383074 0.404810
C18   C     C_R   0.929266 0.995072 0.617021 0.405123
C19   C     C_R   0.929163 0.504843 0.616872 0.404915
C20   C     C_R   0.070785 0.495116 0.383070 0.405097
V3    V     V_3+5 0.735670 0.750000 0.607790 1.247748
V4    V     V_3+5 0.264330 0.250000 0.392210 1.247729
O19   O     O_3   0.806150 0.750000 0.906560 -0.267473
O20   O     O_3   0.193850 0.250000 0.093440 -0.267516
H5    H     H_    0.435393 0.056918 0.850554 0.161717
H6    H     H_    0.564606 0.943082 0.149445 0.161678
H7    H     H_    0.564607 0.556918 0.149445 0.161724
H8    H     H_    0.435393 0.443082 0.850555 0.161700
C21   C     C_2   0.559251 0.932071 0.843270 -0.431593
C22   C     C_2   0.440749 0.067929 0.156730 -0.431522
C23   C     C_2   0.440749 0.432071 0.156730 -0.431540
C24   C     C_2   0.559250 0.567929 0.843270 -0.431484
C25   C     C_2   0.534230 0.965821 0.005688 -0.053172
C26   C     C_2   0.465770 0.034179 0.994311 -0.053179
C27   C     C_2   0.465770 0.465821 0.994312 -0.053168
C28   C     C_2   0.534230 0.534179 0.005688 -0.053172
H9    H     H_    0.471081 0.044612 0.299963 0.162716
H10   H     H_    0.528919 0.955388 0.700036 0.162717
H11   H     H_    0.528918 0.544612 0.700036 0.162731
H12   H     H_    0.471081 0.455388 0.299964 0.162732
N1    N     N_R   0.145207 0.003632 0.269143 0.234027
O21   O     O_R   0.231186 0.006184 0.356095 -0.419072
O22   O     O_R   0.128078 0.985705 0.083628 -0.398198
N2    N     N_R   0.854964 0.996214 0.731148 0.234015
O23   O     O_R   0.872291 0.013512 0.917028 -0.398289
O24   O     O_R   0.768939 0.994007 0.644356 -0.419097
N3    N     N_R   0.854756 0.503599 0.730747 0.234014
O25   O     O_R   0.768786 0.506170 0.643750 -0.419085
O26   O     O_R   0.871858 0.485649 0.916251 -0.398227
N4    N     N_R   0.145138 0.496306 0.269067 0.234012
O27   O     O_R   0.127911 0.513869 0.083332 -0.398261
O28   O     O_R   0.231137 0.493945 0.355956 -0.419083

loop_
_geom_bond_atom_site_label_1
_geom_bond_atom_site_label_2
_geom_bond_distance
_ccdc_geom_bond_type
O6    V2    1.989220 S    
C23   C27   1.349755 D    
O15   V3    2.004574 S    
O2    V4    2.012052 S    
N4    O28   1.301311 A    
C1    C6    1.498334 S    
C5    C10   1.403906 A    
C6    C18   1.421563 A    
C15   C22   1.481774 S    
O4    C1    1.294442 A    
O12   C13   1.290615 A    
C13   C24   1.481779 S    
C14   C23   1.481780 S    
N2    O23   1.301690 A    
N1    O22   1.301375 A    
O16   V4    2.004574 S    
H3    C11   1.083600 S    
O5    C1    1.305933 A    
O7    C3    1.305932 A    
C27   C28   1.480739 S    
O8    C4    1.305928 A    
V1    O19   1.703788 S    
C18   N2    1.436264 S    
O8    V1    1.989224 S    
C2    C5    1.498344 S    
C6    C9    1.403879 A    
C8    C20   1.421594 A    
C7    C19   1.421657 A    
O4    V3    2.012055 S    
V3    O19   2.158820 S    
C3    C8    1.498338 S    
V4    O20   2.158822 S    
N4    O27   1.301600 A    
O18   C16   1.300447 A    
C9    C17   1.408772 A    
N3    O26   1.301376 A    
C21   C25   1.349752 D    
C17   N1    1.436405 S    
C12   C20   1.408707 A    
O9    C16   1.290616 A    
O15   C13   1.300452 A    
H5    C26   1.087059 S    
C24   C28   1.349755 D    
O13   V3    1.708518 S    
O10   C15   1.290616 A    
O11   C14   1.290616 A    
O17   C15   1.300449 A    
C7    C12   1.403899 A    
H8    C27   1.087059 S    
C11   C19   1.408771 A    
O6    C2    1.305928 A    
C21   H10   1.087003 S    
C23   H12   1.087002 S    
C24   H11   1.087003 S    
O18   V3    2.004566 S    
O1    C4    1.294450 A    
C20   N4    1.436321 S    
O2    C3    1.294444 A    
O3    C2    1.294452 A    
C22   H9    1.087003 S    
O11   V2    1.995795 S    
C16   C21   1.481775 S    
O12   V1    1.995796 S    
C10   C18   1.408669 A    
C22   C26   1.349752 D    
H1    C9    1.083600 S    
C19   N3    1.436405 S    
O7    V2    1.989222 S    
O16   C14   1.300451 A    
H6    C25   1.087059 S    
O14   V4    1.708518 S    
H4    C12   1.083609 S    
C8    C11   1.403883 A    
O3    V4    2.012058 S    
N3    O25   1.301278 A    
O13   V1    2.152494 S    
O14   V2    2.152495 S    
O1    V3    2.012051 S    
C25   C26   1.480733 S    
V2    O20   1.703788 S    
C4    C7    1.498342 S    
C5    C17   1.421671 A    
O9    V1    1.995796 S    
O10   V2    1.995797 S    
N2    O24   1.301370 A    
N1    O21   1.301278 A    
H2    C10   1.083613 S    
H7    C28   1.087059 S    
O17   V4    2.004566 S    
O5    V1    1.989219 S    
