data_mof_unit_26500.cif
_audit_creation_date              2012-12-10T17:05:45-0500
_audit_creation_method            fapswitch 2.2
_symmetry_space_group_name_H-M    P1
_symmetry_Int_Tables_number       1
_space_group_crystal_system       triclinic
_cell_length_a                    25.92222
_cell_length_b                    26.017073
_cell_length_c                    18.264311
_cell_angle_alpha                 89.966979
_cell_angle_beta                  134.677361
_cell_angle_gamma                 89.965857
_cell_volume                      8758.91400117

loop_
_atom_site_label
_atom_site_type_symbol
_atom_type_description
_atom_site_fract_x
_atom_site_fract_y
_atom_site_fract_z
_atom_type_partial_charge
C1    C     C_R   0.888787 0.749461 0.780619 0.784549
C2    C     C_R   0.501851 0.209940 0.556376 0.010282
C3    C     C_R   0.219056 0.526743 0.411822 0.342025
C4    C     C_R   0.835123 0.553473 0.697025 -0.172368
C5    C     C_R   0.834828 0.446249 0.696933 -0.177604
C6    C     C_R   0.335125 0.053474 0.697026 -0.172359
C7    C     C_R   0.334830 0.946249 0.696934 -0.177598
C8    C     C_R   0.876465 0.526493 0.789357 -0.113726
C9    C     C_R   0.876310 0.473087 0.789310 -0.115102
C10   C     C_R   0.376467 0.026493 0.789358 -0.113728
C11   C     C_R   0.376312 0.973087 0.789310 -0.115098
C12   C     C_R   0.793682 0.472621 0.602228 0.101297
C13   C     C_R   0.012130 0.278686 0.577561 0.013098
C14   C     C_R   0.793813 0.527241 0.602272 0.101928
C15   C     C_R   0.293683 0.972621 0.602229 0.101297
C16   C     C_R   0.293814 0.027241 0.602272 0.101931
C17   C     C_R   0.750351 0.553925 0.507175 -0.058688
C18   C     C_R   0.750145 0.446074 0.507099 -0.061799
C19   C     C_R   0.250351 0.053926 0.507175 -0.058686
C20   C     C_R   0.250145 0.946074 0.507099 -0.061799
C21   C     C_R   0.705299 0.526710 0.414473 -0.188454
C22   C     C_R   0.705189 0.473436 0.414431 -0.197481
C23   C     C_R   0.205299 0.026710 0.414473 -0.188462
C24   C     C_R   0.001836 0.709928 0.556349 0.010290
C25   C     C_R   0.205189 0.973437 0.414431 -0.197476
C26   C     C_R   0.753075 0.890301 0.503113 0.874118
C27   C     C_R   0.746455 0.109996 0.497492 0.907462
C28   C     C_R   0.253075 0.390301 0.503112 0.874088
C29   C     C_R   0.246453 0.609996 0.497490 0.907454
C30   C     C_R   0.886702 0.746605 0.493331 0.835544
C31   C     C_R   0.893522 0.246381 0.507308 0.827270
C32   C     C_R   0.386705 0.246607 0.493335 0.835512
C33   C     C_R   0.393522 0.746381 0.507308 0.827272
C34   C     C_R   0.608459 0.751463 0.497310 0.801717
C35   C     C_R   0.547388 0.789917 0.546605 0.015133
C36   C     C_R   0.611638 0.251492 0.503624 0.817986
C37   C     C_R   0.108458 0.251463 0.497310 0.801728
C38   C     C_R   0.111637 0.751490 0.503622 0.817984
C39   C     C_R   0.575990 0.839547 0.565515 -0.056602
C40   C     C_R   0.632786 0.209212 0.676134 -0.075452
C41   C     C_R   0.076000 0.339543 0.565539 -0.056592
C42   C     C_R   0.132769 0.709187 0.676105 -0.075454
C43   C     C_R   0.580649 0.873271 0.629485 -0.128388
C44   C     C_R   0.637388 0.172728 0.736461 -0.147921
C45   C     C_R   0.080666 0.373261 0.629521 -0.128373
C46   C     C_R   0.564518 0.224261 0.580025 0.059587
C47   C     C_R   0.137361 0.672693 0.736407 -0.147792
C48   C     C_R   0.564418 0.855678 0.683316 -0.204733
C49   C     C_R   0.574604 0.148791 0.698709 -0.189443
C50   C     C_R   0.064434 0.355665 0.683347 -0.204723
C51   C     C_R   0.074571 0.648761 0.698643 -0.189427
C52   C     C_R   0.047393 0.289914 0.546616 0.015128
C53   C     C_R   0.064506 0.724247 0.580004 0.059566
C54   C     C_R   0.551729 0.751225 0.497143 -0.115904
C55   C     C_R   0.555877 0.251822 0.505240 -0.122006
C56   C     C_R   0.051729 0.251226 0.497144 -0.115909
C57   C     C_R   0.888024 0.251350 0.780345 0.791993
C58   C     C_R   0.055871 0.751816 0.505231 -0.122008
C59   C     C_R   0.507393 0.707697 0.459101 -0.223587
C60   C     C_R   0.488359 0.273472 0.420808 -0.215598
C61   C     C_R   0.007388 0.207700 0.459091 -0.223590
C62   C     C_R   0.988354 0.773466 0.420799 -0.215534
C63   C     C_R   0.457732 0.703218 0.466463 0.158686
C64   C     C_R   0.430347 0.269543 0.410890 0.161072
C65   C     C_R   0.957727 0.203219 0.466452 0.158688
C66   C     C_R   0.930339 0.769534 0.410874 0.161028
C67   C     C_R   0.456774 0.740788 0.521439 -0.146027
C68   C     C_R   0.388789 0.249464 0.780620 0.784554
C69   C     C_R   0.437967 0.240046 0.483059 -0.149355
C70   C     C_R   0.956773 0.240786 0.521438 -0.146032
C71   C     C_R   0.937958 0.740039 0.483043 -0.149325
C72   C     C_R   0.506117 0.660912 0.099021 -0.133660
C73   C     C_R   0.523356 0.344825 0.102705 -0.137963
C74   C     C_R   0.006115 0.160912 0.099020 -0.133660
C75   C     C_R   0.023306 0.844812 0.102691 -0.137972
C76   C     C_R   0.444417 0.631400 0.050430 -0.162284
C77   C     C_R   0.467564 0.380424 0.055080 -0.151841
C78   C     C_R   0.944414 0.131401 0.050429 -0.162283
C79   C     C_R   0.388024 0.751350 0.780345 0.791993
C80   C     C_R   0.967495 0.880395 0.055063 -0.151897
C81   C     C_R   0.377820 0.647531 0.956851 -0.135603
C82   C     C_R   0.398850 0.368720 0.960547 -0.147475
C83   C     C_R   0.877817 0.147533 0.956850 -0.135601
C84   C     C_R   0.898785 0.868676 0.960535 -0.147365
C85   C     C_R   0.612069 0.747829 0.219958 0.800610
C86   C     C_R   0.612280 0.251954 0.220176 0.795867
C87   C     C_R   0.112070 0.247829 0.219958 0.800582
C88   C     C_R   0.112280 0.751955 0.220175 0.795871
C89   C     C_R   0.374407 0.689943 0.906931 -0.123150
C90   C     C_R   0.532712 0.807410 0.660705 0.234486
C91   C     C_R   0.387971 0.324202 0.908685 -0.125890
C92   C     C_R   0.874405 0.189945 0.906932 -0.123146
C93   C     C_R   0.887927 0.824161 0.908682 -0.125815
C94   C     C_R   0.438154 0.716453 0.949462 0.076118
C95   C     C_R   0.446259 0.290617 0.950293 0.076852
C96   C     C_R   0.938153 0.216454 0.949462 0.076116
C97   C     C_R   0.946234 0.790597 0.950291 0.076825
C98   C     C_R   0.501857 0.706965 0.053370 0.099746
C99   C     C_R   0.510907 0.297239 0.054750 0.102021
C100  C     C_R   0.001856 0.206965 0.053370 0.099746
C101  C     C_R   0.506701 0.165903 0.607017 0.231693
C102  C     C_R   0.010881 0.797229 0.054745 0.102023
C103  C     C_R   0.558017 0.744281 0.107427 -0.107271
C104  C     C_R   0.559933 0.255578 0.108156 -0.101398
C105  C     C_R   0.058017 0.244280 0.107427 -0.107271
C106  C     C_R   0.059929 0.755579 0.108153 -0.101412
C107  C     C_R   0.557051 0.782667 0.052740 -0.165177
C108  C     C_R   0.553385 0.214042 0.053413 -0.194076
C109  C     C_R   0.057053 0.282665 0.052740 -0.165180
C110  C     C_R   0.053396 0.714050 0.053412 -0.194085
C111  C     C_R   0.500896 0.785035 0.946548 -0.178949
C112  C     C_R   0.032720 0.307399 0.660723 0.234479
C113  C     C_R   0.497493 0.212741 0.947108 -0.202131
C114  C     C_R   0.000898 0.285034 0.946548 -0.178949
C115  C     C_R   0.997504 0.712747 0.947108 -0.202127
C116  C     C_R   0.441230 0.752053 0.893354 -0.106667
C117  C     C_R   0.443099 0.250372 0.893887 -0.097189
C118  C     C_R   0.941230 0.252053 0.893354 -0.106666
C119  C     C_R   0.943093 0.750364 0.893886 -0.097201
C120  C     C_R   0.795589 0.949209 0.678287 0.484075
C121  C     C_R   0.779014 0.051602 0.667132 0.513797
C122  C     C_R   0.295581 0.449210 0.678277 0.484063
C123  C     C_R   0.006674 0.665886 0.606967 0.231646
C124  C     C_R   0.279002 0.551602 0.667117 0.513821
C125  C     C_R   0.846690 0.976936 0.769641 -0.295363
C126  C     C_R   0.833802 0.029418 0.764406 -0.227428
C127  C     C_R   0.346682 0.476938 0.769630 -0.295411
C128  C     C_R   0.333789 0.529419 0.764392 -0.227407
C129  C     C_R   0.761709 0.027295 0.581885 -0.109348
C130  C     C_R   0.769555 0.973491 0.587282 -0.074413
C131  C     C_R   0.261701 0.527295 0.581874 -0.109355
C132  C     C_R   0.269550 0.473491 0.587274 -0.074409
C133  C     C_R   0.750126 0.610040 0.501791 0.792992
C134  C     C_R   0.512126 0.778692 0.577552 0.013094
C135  C     C_R   0.750044 0.389961 0.501735 0.771134
C136  C     C_R   0.250126 0.110040 0.501791 0.792984
C137  C     C_R   0.250044 0.889961 0.501735 0.771138
C138  C     C_R   0.755365 0.946851 0.506376 -0.259038
C139  C     C_R   0.739542 0.054054 0.495275 -0.232477
C140  C     C_R   0.255363 0.446851 0.506371 -0.259052
C141  C     C_R   0.239536 0.554055 0.495268 -0.232469
C142  C     C_R   0.739412 0.975202 0.425676 0.311238
C143  C     C_R   0.719059 0.026742 0.411830 0.342036
C144  C     C_R   0.239410 0.475203 0.425669 0.311167
H1    H     H_    0.510757 0.677010 0.422546 0.193213
H2    H     H_    0.332827 0.315136 0.840340 0.218848
H3    H     H_    0.821191 0.202845 0.837800 0.184116
H4    H     H_    0.832787 0.815080 0.840339 0.218798
H5    H     H_    0.503758 0.813483 0.906183 0.197382
H6    H     H_    0.495749 0.181209 0.906685 0.182068
H7    H     H_    0.003760 0.313481 0.906183 0.197381
H8    H     H_    0.995775 0.681223 0.906685 0.182078
H9    H     H_    0.877257 0.957913 0.842911 0.179151
H10   H     H_    0.854036 0.048906 0.832831 0.184311
H11   H     H_    0.377252 0.457916 0.842901 0.179126
H12   H     H_    0.480214 0.293631 0.361422 0.198255
H13   H     H_    0.354022 0.548906 0.832816 0.184311
H14   H     H_    0.671139 0.546895 0.341512 0.152560
H15   H     H_    0.670973 0.453368 0.341444 0.150313
H16   H     H_    0.171138 0.046894 0.341512 0.152561
H17   H     H_    0.170972 0.953368 0.341444 0.150316
H18   H     H_    0.834862 0.594865 0.701186 0.146730
H19   H     H_    0.834319 0.404861 0.700998 0.145911
H20   H     H_    0.334863 0.094865 0.701186 0.146732
H21   H     H_    0.334320 0.904861 0.700999 0.145912
H22   H     H_    0.907839 0.547160 0.861168 0.156836
H23   H     H_    0.010747 0.177015 0.422527 0.193217
H24   H     H_    0.907558 0.452313 0.861081 0.157113
H25   H     H_    0.407841 0.047160 0.861169 0.156832
H26   H     H_    0.407560 0.952313 0.861082 0.157112
H27   H     H_    0.592251 0.852615 0.528182 0.213251
H28   H     H_    0.682727 0.225667 0.705772 0.148146
H29   H     H_    0.092260 0.352614 0.528206 0.213267
H30   H     H_    0.182714 0.725640 0.705754 0.148178
H31   H     H_    0.600955 0.911810 0.642412 0.225634
H32   H     H_    0.689920 0.160321 0.808705 0.162768
H33   H     H_    0.100977 0.411800 0.642459 0.225638
H34   H     H_    0.980210 0.793626 0.361415 0.198258
H35   H     H_    0.189889 0.660276 0.808643 0.162808
H36   H     H_    0.078094 0.378914 0.744119 0.177187
H37   H     H_    0.078830 0.615702 0.738651 0.170759
H38   H     H_    0.578075 0.878932 0.744080 0.177188
H39   H     H_    0.578872 0.115738 0.738736 0.170748
H40   H     H_    0.599975 0.810962 0.092016 0.209328
H41   H     H_    0.591360 0.182231 0.092835 0.200397
H42   H     H_    0.099978 0.310960 0.092016 0.209333
H43   H     H_    0.091387 0.682248 0.092835 0.200409
H44   H     H_    0.556874 0.646468 0.170963 0.162486
H45   H     H_    0.328918 0.626716 0.922028 0.174482
H46   H     H_    0.576081 0.355171 0.176586 0.150535
H47   H     H_    0.056872 0.146467 0.170962 0.162485
H48   H     H_    0.076027 0.855170 0.176565 0.150565
H49   H     H_    0.447941 0.596967 0.087067 0.151606
H50   H     H_    0.476935 0.416057 0.093490 0.146920
H51   H     H_    0.947937 0.096968 0.087066 0.151611
H52   H     H_    0.976848 0.916026 0.093465 0.146945
H53   H     H_    0.845478 0.906363 0.392944 0.393198
H54   H     H_    0.575583 0.114301 0.209009 0.367961
H55   H     H_    0.345628 0.406522 0.393044 0.393110
H56   H     H_    0.354008 0.394307 0.927125 0.171982
H57   H     H_    0.075576 0.614306 0.209003 0.367963
H58   H     H_    0.728907 0.922937 0.790199 0.350963
H59   H     H_    0.644735 0.064693 0.677736 0.379752
H60   H     H_    0.228947 0.422937 0.790238 0.350961
H61   H     H_    0.144656 0.564638 0.677577 0.379792
H62   H     H_    0.828915 0.126719 0.922027 0.174477
H63   H     H_    0.853930 0.894249 0.927111 0.172009
H64   H     H_    0.321192 0.702841 0.837799 0.184122
I1    I     I_    0.544726 0.772649 0.777479 -0.327259
I2    I     I_    0.420644 0.111745 0.530372 -0.310262
I3    I     I_    0.044725 0.272630 0.777482 -0.327269
I4    I     I_    0.920600 0.611744 0.530304 -0.310311
I5    I     I_    0.393297 0.635220 0.401408 -0.216088
I6    I     I_    0.332084 0.304574 0.276232 -0.270361
I7    I     I_    0.893283 0.135226 0.401378 -0.215988
I8    I     I_    0.832065 0.804546 0.276195 -0.270546
O1    O     O_3   0.750020 0.750020 0.500000 -0.509418
O2    O     O_R   0.750010 0.134170 0.560720 -0.603937
O3    O     O_R   0.250010 0.365830 0.560720 -0.604733
O4    O     O_R   0.250010 0.634170 0.560720 -0.603935
O5    O     O_R   0.896180 0.719660 0.731600 -0.641378
O6    O     O_R   0.896180 0.280340 0.731600 -0.626705
O7    O     O_R   0.396180 0.219660 0.731600 -0.641373
O8    O     O_R   0.396180 0.780340 0.731600 -0.626703
O9    O     O_R   0.664580 0.780370 0.268400 -0.612592
O10   O     O_R   0.664580 0.219630 0.268400 -0.618073
O11   O     O_R   0.164580 0.280370 0.268400 -0.612582
O12   O     O_3   0.750020 0.249980 0.500000 -0.510454
O13   O     O_R   0.164580 0.719630 0.268400 -0.618070
O14   O     O_R   0.835450 0.780390 0.731600 -0.642442
O15   O     O_R   0.835450 0.219610 0.731600 -0.649183
O16   O     O_R   0.335450 0.280390 0.731600 -0.642463
O17   O     O_R   0.335450 0.719610 0.731600 -0.649192
O18   O     O_R   0.603870 0.719650 0.268400 -0.657900
O19   O     O_R   0.603870 0.280350 0.268400 -0.645605
O20   O     O_R   0.103870 0.219650 0.268400 -0.657904
O21   O     O_R   0.103870 0.780350 0.268400 -0.645617
O22   O     O_R   0.810750 0.634210 0.560720 -0.624520
O23   O     O_3   0.250020 0.250020 0.500000 -0.509437
O24   O     O_R   0.810750 0.365790 0.560720 -0.638874
O25   O     O_R   0.310750 0.134210 0.560720 -0.624522
O26   O     O_R   0.310750 0.865790 0.560720 -0.638874
O27   O     O_R   0.750010 0.865820 0.439280 -0.554180
O28   O     O_R   0.750010 0.134180 0.439280 -0.576754
O29   O     O_R   0.250010 0.365820 0.439280 -0.554078
O30   O     O_R   0.250010 0.634180 0.439280 -0.576767
O31   O     O_R   0.896180 0.719650 0.560720 -0.631517
O32   O     O_R   0.896180 0.280350 0.560720 -0.627243
O33   O     O_R   0.396180 0.219650 0.560720 -0.631536
O34   O     O_3   0.250020 0.749980 0.500000 -0.510451
O35   O     O_R   0.396180 0.780350 0.560720 -0.627244
O36   O     O_R   0.664570 0.780390 0.560720 -0.606538
O37   O     O_R   0.664570 0.219610 0.560720 -0.593748
O38   O     O_R   0.164570 0.280390 0.560720 -0.606529
O39   O     O_R   0.164570 0.719610 0.560720 -0.593755
O40   O     O_R   0.835460 0.780370 0.439280 -0.601337
O41   O     O_R   0.835460 0.219630 0.439280 -0.613860
O42   O     O_R   0.335460 0.280370 0.439280 -0.601213
O43   O     O_R   0.335460 0.719630 0.439280 -0.613856
O44   O     O_R   0.603860 0.719660 0.439280 -0.642826
O45   O     O_R   0.689310 0.634210 0.439280 -0.649476
O46   O     O_R   0.603860 0.280340 0.439280 -0.643793
O47   O     O_R   0.103860 0.219660 0.439280 -0.642826
O48   O     O_R   0.103860 0.780340 0.439280 -0.643787
O49   O     O_2   0.697421 0.918063 0.267933 -0.236731
O50   O     O_2   0.770684 0.994097 0.313748 -0.217475
O51   O     O_3   0.835861 0.915914 0.434915 -0.550235
O52   O     O_2   0.697277 0.082669 0.267148 -0.229086
O53   O     O_2   0.611269 0.012964 0.205762 -0.245472
O54   O     O_3   0.601663 0.095711 0.274421 -0.559174
O55   O     O_2   0.197395 0.418062 0.267902 -0.236550
O56   O     O_R   0.689310 0.365790 0.439280 -0.648537
O57   O     O_2   0.270665 0.494097 0.313710 -0.217667
O58   O     O_3   0.335848 0.415908 0.434883 -0.550220
O59   O     O_2   0.197265 0.582670 0.267128 -0.229083
O60   O     O_2   0.111260 0.512965 0.205751 -0.245459
O61   O     O_3   0.101655 0.595712 0.274413 -0.559162
O62   O     O_2   0.654781 0.934814 0.565804 -0.293593
O63   O     O_2   0.738256 0.866808 0.689320 -0.331552
O64   O     O_3   0.735030 0.951163 0.760469 -0.527800
O65   O     O_2   0.738408 0.136198 0.698753 -0.328275
O66   O     O_2   0.642545 0.089619 0.537402 -0.257230
O67   O     O_R   0.189310 0.134210 0.439280 -0.649474
O68   O     O_3   0.692250 0.051335 0.708392 -0.495925
O69   O     O_2   0.154771 0.434823 0.565793 -0.293578
O70   O     O_2   0.238238 0.366812 0.689298 -0.331575
O71   O     O_3   0.235023 0.451167 0.760459 -0.527822
O72   O     O_2   0.238404 0.636194 0.698757 -0.328266
O73   O     O_2   0.142541 0.589633 0.537383 -0.257303
O74   O     O_3   0.192220 0.551330 0.708345 -0.495938
O75   O     O_R   0.189310 0.865790 0.439280 -0.648535
O76   O     O_R   0.750010 0.865830 0.560720 -0.604715
S1    S     S_3+6 0.759116 0.951013 0.355713 0.103197
S2    S     S_3+6 0.656797 0.054276 0.285668 0.095442
S3    S     S_3+6 0.259104 0.451011 0.355685 0.103225
S4    S     S_3+6 0.156789 0.554277 0.285656 0.095463
S5    S     S_3+6 0.728552 0.923688 0.670755 0.017263
S6    S     S_3+6 0.710858 0.084163 0.649989 0.073288
S7    S     S_3+6 0.228542 0.423693 0.670742 0.017230
S8    S     S_3+6 0.210846 0.584165 0.649971 0.073269
Zn1   Zn    Zn3+2 0.663270 0.706640 0.413250 0.965751
Zn2   Zn    Zn3+2 0.750020 0.206610 0.413240 1.065217
Zn3   Zn    Zn3+2 0.250020 0.293390 0.413240 1.068455
Zn4   Zn    Zn3+2 0.250020 0.706610 0.413240 1.065214
Zn5   Zn    Zn3+2 0.750010 0.793400 0.586760 1.029779
Zn6   Zn    Zn3+2 0.750010 0.206600 0.586760 1.045570
Zn7   Zn    Zn3+2 0.250010 0.293400 0.586760 1.029767
Zn8   Zn    Zn3+2 0.250010 0.706600 0.586760 1.045569
Zn9   Zn    Zn3+2 0.663270 0.293360 0.413250 0.973568
Zn10  Zn    Zn3+2 0.163270 0.206640 0.413250 0.965746
Zn11  Zn    Zn3+2 0.163270 0.793360 0.413250 0.973573
Zn12  Zn    Zn3+2 0.836780 0.706640 0.586750 0.985912
Zn13  Zn    Zn3+2 0.836780 0.293360 0.586750 0.979214
Zn14  Zn    Zn3+2 0.336780 0.206640 0.586750 0.985906
Zn15  Zn    Zn3+2 0.336780 0.793360 0.586750 0.979218
Zn16  Zn    Zn3+2 0.750020 0.793390 0.413240 1.068322

loop_
_geom_bond_atom_site_label_1
_geom_bond_atom_site_label_2
_ccdc_geom_bond_type
C51   C123  A    
C14   C17   A    
C40   H28   S    
C27   O28   A    
C30   C71   S    
C79   O8    A    
C40   C46   A    
C26   O76   A    
C3    S4    S    
C13   C112  A    
C90   C134  A    
O5    Zn12  S    
C95   C99   A    
C22   H15   S    
C1    O5    A    
C89   C94   A    
O23   Zn14  S    
C39   H27   S    
C37   C56   S    
C43   H31   S    
H59   O68   S    
C31   C70   S    
C46   C55   A    
C85   C103  S    
O15   Zn6   S    
C7    C15   A    
C77   C82   A    
C21   C22   A    
C92   H3    S    
C111  H5    S    
C35   C134  A    
C15   C20   A    
C80   H52   S    
C5    C12   A    
C120  C125  A    
C74   C100  A    
C19   C136  S    
C17   C21   A    
C82   C91   A    
C20   C137  S    
C19   C23   A    
O58   S3    S    
C86   O19   A    
O32   Zn13  S    
C121  S6    S    
O72   S8    D    
O74   S8    S    
C81   H45   S    
C126  H10   S    
C34   C54   S    
C17   C133  S    
O42   Zn3   S    
O1    Zn16  S    
C130  C138  A    
C99   C104  A    
C51   H37   S    
O65   S6    D    
C53   C58   A    
C83   H62   S    
C59   C63   A    
C60   C64   A    
C32   O42   A    
C36   C55   S    
C45   C50   A    
O34   Zn4   S    
O18   Zn1   S    
C84   C93   A    
C4    C14   A    
C6    C16   A    
C61   C65   A    
O7    Zn14  S    
C27   O2    A    
C37   O38   A    
C13   C70   A    
C73   C77   A    
O13   Zn4   S    
C103  C107  A    
O76   Zn5   S    
C57   C118  S    
C29   O30   A    
C3    C141  A    
C86   C104  S    
O67   Zn10  S    
C95   C117  A    
C10   H25   S    
C133  O45   A    
O36   Zn5   S    
C136  O25   A    
O50   S1    D    
C5    H19   S    
C65   I7    S    
C42   C53   A    
C1    C119  S    
O60   S4    D    
C65   C70   A    
C92   C96   A    
C122  S7    S    
C122  C127  A    
O56   Zn9   S    
O4    Zn8   S    
O40   Zn16  S    
C139  C143  A    
C25   H17   S    
C87   C105  S    
C2    C69   A    
C73   H46   S    
C131  C141  A    
C38   C58   S    
O52   S2    D    
O8    Zn15  S    
C78   C83   A    
C128  H13   S    
C54   C59   A    
C62   C66   A    
O75   Zn11  S    
C112  I3    S    
C18   C135  S    
C67   C134  A    
O11   Zn3   S    
C42   H30   S    
O24   Zn13  S    
C26   O27   A    
C32   O33   A    
C24   C123  A    
C27   C139  S    
C97   C119  A    
O2    Zn6   S    
C5    C9    A    
O54   S2    S    
C129  C139  A    
C29   C141  S    
C123  I4    S    
C33   O43   A    
O49   S1    D    
C34   O44   A    
C56   C61   A    
C64   C69   A    
O12   Zn9   S    
O55   S3    D    
C109  C114  A    
O23   Zn3   S    
C59   H1    S    
O34   Zn11  S    
C115  C119  A    
C113  C117  A    
C31   O32   A    
C85   O9    A    
C93   C97   A    
C129  C130  A    
C41   H29   S    
C41   C45   A    
C18   C22   A    
C107  C111  A    
C113  H6    S    
C9    H24   S    
C44   H32   S    
C90   I1    S    
C127  C128  A    
O63   S5    D    
C124  C128  A    
C107  H40   S    
C72   C76   A    
C96   C100  A    
O68   S6    S    
C88   O13   A    
C30   O40   A    
C66   I8    S    
O70   S7    D    
C120  S5    S    
H54   O54   S    
C10   C11   A    
C91   C95   A    
C74   H47   S    
C40   C44   A    
O46   Zn9   S    
C68   O16   A    
C58   C62   A    
C21   H14   S    
O1    Zn1   S    
C80   C84   A    
O12   Zn6   S    
O34   Zn8   S    
O66   S6    D    
O71   S7    S    
C49   C101  A    
O41   Zn2   S    
O16   Zn7   S    
C20   C25   A    
C94   C98   A    
C98   C103  A    
O43   Zn4   S    
C135  O24   A    
O48   Zn11  S    
C93   H4    S    
O57   S3    D    
O51   S1    S    
C105  C109  A    
H57   O61   S    
O33   Zn14  S    
C49   H39   S    
C1    O14   A    
C29   O4    A    
C111  C116  A    
C97   C102  A    
C124  S8    S    
O28   Zn2   S    
O44   Zn1   S    
C81   C89   A    
O29   Zn3   S    
C38   O39   A    
C7    H21   S    
O30   Zn4   S    
C55   C60   A    
C35   C54   A    
O64   S5    S    
C114  H7    S    
C57   O6    A    
C30   O31   A    
C85   O18   A    
C108  H41   S    
C79   O17   A    
C138  C142  A    
C127  H11   S    
O14   Zn5   S    
C94   C116  A    
C47   C51   A    
C24   C53   A    
C87   O20   A    
C61   H23   S    
C36   O46   A    
H53   O51   S    
C35   C39   A    
C77   H50   S    
C60   H12   S    
C13   C52   A    
C66   C71   A    
O6    Zn13  S    
O53   S2    D    
O39   Zn8   S    
C6    H20   S    
C28   O3    A    
C87   O11   A    
O12   Zn2   S    
C125  C126  A    
O10   Zn2   S    
C4    H18   S    
C131  C132  A    
C104  C108  A    
C64   I6    S    
C3    C144  A    
C140  C144  A    
C121  C129  A    
C26   C138  S    
O3    Zn7   S    
C6    C10   A    
C109  H42   S    
C132  C140  A    
O12   Zn13  S    
O23   Zn7   S    
H58   O64   S    
O34   Zn15  S    
O61   S4    S    
C16   C19   A    
C135  O56   A    
O26   Zn15  S    
C89   H64   S    
C11   H26   S    
C74   C78   A    
O37   Zn6   S    
C142  C143  A    
C110  C115  A    
O23   Zn10  S    
C44   C49   A    
C108  C113  A    
O9    Zn16  S    
H60   O71   S    
C28   C140  S    
C4    C8    A    
C72   C98   A    
C2    C46   A    
C142  S1    S    
C7    C11   A    
C83   C92   A    
C100  C105  A    
C120  C130  A    
C96   C118  A    
C57   O15   A    
O62   S5    D    
C88   O21   A    
C144  S3    S    
C15   C16   A    
C33   O35   A    
H61   O74   S    
C137  O75   A    
C136  O67   A    
C72   H44   S    
C47   H35   S    
C8    C9    A    
C115  H8    S    
C75   C102  A    
O1    Zn5   S    
C43   C48   A    
C41   C52   A    
O20   Zn10  S    
C28   O29   A    
O21   Zn11  S    
O22   Zn12  S    
C79   C116  S    
O69   S7    D    
O27   Zn16  S    
C122  C132  A    
C42   C47   A    
C125  H9    S    
O35   Zn15  S    
C63   C67   A    
C110  H43   S    
O1    Zn12  S    
O59   S4    D    
O31   Zn12  S    
C39   C43   A    
C2    C101  A    
O45   Zn1   S    
C124  C131  A    
C50   H36   S    
C37   O47   A    
C82   H56   S    
C38   O48   A    
C68   C117  S    
C88   C106  S    
C23   H16   S    
C50   C112  A    
O38   Zn7   S    
C31   O41   A    
C63   I5    S    
C114  C118  A    
C8    H22   S    
O19   Zn9   S    
C12   C14   A    
C86   O10   A    
C68   O7    A    
C133  O22   A    
C137  O26   A    
O17   Zn8   S    
C33   C67   S    
C75   C80   A    
C73   C99   A    
O73   S8    D    
C76   C81   A    
C62   H34   S    
C34   O36   A    
C143  S2    S    
C32   C69   S    
C45   H33   S    
C101  I2    S    
C36   O37   A    
C75   H48   S    
C121  C126  A    
C48   H38   S    
C84   H63   S    
O25   Zn14  S    
C102  C106  A    
C78   H51   S    
C23   C25   A    
C76   H49   S    
H55   O58   S    
C106  C110  A    
C12   C18   A    
C48   C90   A    
O47   Zn10  S    
C91   H2    S    
C52   C56   A    
C24   C71   A    
