data_mof_unit_28996.cif
_audit_creation_date              2012-12-10T17:47:39-0500
_audit_creation_method            fapswitch 2.2
_symmetry_space_group_name_H-M    P1
_symmetry_Int_Tables_number       1
_space_group_crystal_system       triclinic
_cell_length_a                    10.653828
_cell_length_b                    10.645466
_cell_length_c                    9.909511
_cell_angle_alpha                 89.775219
_cell_angle_beta                  90.119931
_cell_angle_gamma                 91.717126
_cell_volume                      1123.37130779

loop_
_atom_site_label
_atom_site_type_symbol
_atom_type_description
_atom_site_fract_x
_atom_site_fract_y
_atom_site_fract_z
_atom_type_partial_charge
C1    C     C_R   0.503515 0.260675 0.500366 0.852716
C2    C     C_3   0.879262 0.513247 0.497462 0.044590
C3    C     C_3   0.931504 0.609097 0.603096 -0.469404
C4    C     C_3   0.929386 0.548323 0.352068 -0.220766
C5    C     C_R   0.702051 0.136180 0.646656 -0.190583
C6    C     C_R   0.794817 0.073406 0.717068 -0.131790
C7    C     C_R   0.794524 0.942850 0.717712 -0.118505
C8    C     C_R   0.701685 0.874915 0.647595 -0.141420
C9    C     C_R   0.606828 0.937102 0.575476 0.109763
C10   C     C_R   0.606702 0.068727 0.575469 0.100761
C11   C     C_R   0.512211 0.128579 0.501085 -0.085757
C12   C     C_R   0.258435 0.506018 0.499295 0.870486
C13   C     C_R   0.422886 0.061937 0.425267 -0.225000
C14   C     C_R   0.423229 0.933663 0.425178 -0.183474
C15   C     C_R   0.512939 0.872039 0.500412 -0.072938
C16   C     C_R   0.335941 0.334500 0.140394 -0.183690
C17   C     C_R   0.254682 0.253412 0.070339 -0.204120
C18   C     C_R   0.254739 0.253327 0.930641 -0.187576
C19   C     C_R   0.336001 0.334404 0.860212 -0.152622
C20   C     C_R   0.419555 0.418010 0.927826 0.171573
C21   C     C_R   0.419753 0.417864 0.072441 0.145707
C22   C     C_R   0.575562 0.579594 0.071345 -0.103696
C23   C     C_R   0.504260 0.739481 0.499964 0.923665
C24   C     C_R   0.576033 0.579207 0.928233 -0.094526
C25   C     C_R   0.742241 0.506577 0.499716 0.857630
C26   C     C_3   0.069090 0.380559 0.534702 -0.535877
C27   C     C_3   0.925497 0.381263 0.536563 -0.437291
C28   C     C_3   0.076087 0.608657 0.604221 -0.164648
C29   C     C_3   0.074381 0.545356 0.350755 0.312052
C30   C     C_3   0.122398 0.513073 0.496543 0.017780
H1    H     H_    0.103875 0.351451 0.635872 0.194900
H2    H     H_    0.897139 0.704223 0.583492 0.223477
H3    H     H_    0.350933 0.109414 0.368690 0.141743
H4    H     H_    0.706903 0.237402 0.647559 0.155527
H5    H     H_    0.867433 0.126268 0.770687 0.131497
H6    H     H_    0.866838 0.894000 0.771902 0.134414
H7    H     H_    0.706142 0.773900 0.649576 0.135546
H8    H     H_    0.351191 0.881891 0.369549 0.173979
H9    H     H_    0.636290 0.645278 0.125083 0.172139
H10   H     H_    0.100620 0.309259 0.461118 0.170901
H11   H     H_    0.329450 0.329815 0.247381 0.198546
H12   H     H_    0.191081 0.190467 0.124971 0.148167
H13   H     H_    0.191233 0.190244 0.876304 0.149527
H14   H     H_    0.330202 0.329058 0.753205 0.200352
H15   H     H_    0.638217 0.643968 0.874361 0.142543
H16   H     H_    0.886936 0.308840 0.465695 0.180549
H17   H     H_    0.892820 0.355632 0.639870 0.192507
H18   H     H_    0.104056 0.572673 0.705523 0.145097
H19   H     H_    0.896571 0.583116 0.705639 0.175680
H20   H     H_    0.100400 0.464583 0.285165 0.045626
H21   H     H_    0.895707 0.471614 0.283430 0.092311
N1    N     N_R   0.498810 0.498800 0.142780 -0.134388
N2    N     N_R   0.498760 0.498720 0.857170 -0.122947
O1    O     O_R   0.500000 0.316780 0.614690 -0.642651
O2    O     O_R   0.499990 0.316750 0.385360 -0.626378
O3    O     O_R   0.314800 0.499990 0.614670 -0.634988
O4    O     O_R   0.314790 0.499970 0.385330 -0.648622
O5    O     O_R   0.500010 0.683250 0.614640 -0.602859
O6    O     O_R   0.500000 0.683220 0.385310 -0.611899
O7    O     O_R   0.685210 0.500030 0.614670 -0.639227
O8    O     O_R   0.685200 0.500010 0.385330 -0.626290
Zn1   Zn    Zn3+2 0.500010 0.500020 0.653130 0.944065
Zn2   Zn    Zn3+2 0.499990 0.499980 0.346870 0.944240
C31   C     C_2   0.878252 0.668191 0.290117 1.044223
O9    O     O_2   0.831199 0.748628 0.359809 -0.641399
O10   O     O_R   0.882119 0.683878 0.150084 -0.856413
H22   H     H_    0.846498 0.766562 0.119504 0.325982
C32   C     C_2   0.134308 0.740210 0.591852 0.929082
O11   O     O_2   0.220296 0.772315 0.667318 -0.650181
O12   O     O_R   0.088000 0.826077 0.498330 -0.737631
H23   H     H_    0.134068 0.910713 0.501998 0.330932
O13   O     O_3   0.129902 0.660828 0.303482 -0.574468
C33   C     C_3   0.167887 0.651949 0.166913 0.143496
H24   H     H_    0.097630 0.599244 0.103888 0.154758
H25   H     H_    0.258566 0.604028 0.160991 0.162710
C34   C     C_3   0.185839 0.783001 0.106962 -0.768050
H26   H     H_    0.263436 0.834734 0.159239 0.237957
H27   H     H_    0.209739 0.775936 0.998259 0.223552
H28   H     H_    0.098271 0.836102 0.117179 0.269320

loop_
_geom_bond_atom_site_label_1
_geom_bond_atom_site_label_2
_ccdc_geom_bond_type
O5    Zn1   S    
C23   O5    A    
C16   C21   A    
C7    H6    S    
C19   C20   A    
C1    C11   S    
C34   H28   S    
C3    H19   S    
C7    C8    A    
C23   O6    A    
C26   C27   S    
C24   H15   S    
C3    C28   S    
C28   C32   S    
C34   H27   S    
C5    C6    A    
C6    H5    S    
O7    Zn1   S    
C18   C19   A    
C33   H24   S    
O8    Zn2   S    
C17   H12   S    
C32   O11   D    
C16   C17   A    
O2    Zn2   S    
O12   H23   S    
C25   O7    A    
C9    C10   A    
C4    C29   S    
C29   O13   S    
C15   C23   S    
O10   H22   S    
C26   H1    S    
C13   C14   A    
C33   H25   S    
O4    Zn2   S    
C29   H20   S    
C4    H21   S    
C34   H26   S    
C20   N2    A    
O1    Zn1   S    
C24   N2    A    
C31   O10   S    
C2    C4    S    
C1    O1    A    
C13   H3    S    
C29   C30   S    
C14   H8    S    
N2    Zn1   S    
C5    H4    S    
C17   C18   A    
C8    C9    A    
C25   O8    A    
C12   O3    A    
C12   O4    A    
C27   H16   S    
C26   C30   S    
C2    C27   S    
C33   C34   S    
C22   C24   A    
C8    H7    S    
C19   H14   S    
C22   N1    A    
C27   H17   S    
C28   H18   S    
C12   C30   S    
O13   C33   S    
N1    Zn2   S    
C6    C7    A    
C4    C31   S    
O6    Zn2   S    
C31   O9    D    
C28   C30   S    
C2    C3    S    
C1    O2    A    
C5    C10   A    
C18   H13   S    
C11   C13   A    
C26   H10   S    
C22   H9    S    
C2    C25   S    
O3    Zn1   S    
C9    C15   A    
C3    H2    S    
C10   C11   A    
C20   C21   A    
C32   O12   S    
C14   C15   A    
C16   H11   S    
C21   N1    A    
