data_mof_unit_63662.cif
_audit_creation_date              2012-12-11T18:37:40-0500
_audit_creation_method            fapswitch 2.2
_symmetry_space_group_name_H-M    P1
_symmetry_Int_Tables_number       1
_space_group_crystal_system       triclinic
_cell_length_a                    8.384081
_cell_length_b                    14.654268
_cell_length_c                    26.841684
_cell_angle_alpha                 95.266809
_cell_angle_beta                  92.505105
_cell_angle_gamma                 87.599224
_cell_volume                      3278.39778419

loop_
_atom_site_label
_atom_site_type_symbol
_atom_type_description
_atom_site_fract_x
_atom_site_fract_y
_atom_site_fract_z
_atom_type_partial_charge
Ba1   Ba    Ba6+2 0.849670 0.455410 0.524690 1.851445
Ba2   Ba    Ba6+2 0.340150 0.544510 0.475310 1.810549
C1    C     C_3   0.504319 0.195867 0.716535 0.660296
C2    C     C_R   0.111735 0.544682 0.193612 0.644913
C3    C     C_2   0.786081 0.564295 0.270161 -0.140712
C4    C     C_3   0.051163 0.169680 0.652596 0.711147
C5    C     C_3   0.756458 0.592859 0.324657 -0.096172
C6    C     C_1   0.982880 0.488886 0.346071 0.043287
C7    C     C_2   0.027661 0.480265 0.298703 -0.085659
C8    C     C_2   0.922394 0.516536 0.257620 0.224503
C9    C     C_R   0.057186 0.499196 0.104609 -0.149611
C10   C     C_R   0.917670 0.457919 0.117766 -0.005946
C11   C     C_R   0.821345 0.413363 0.079856 0.039599
C12   C     C_3   0.540281 0.254332 0.673802 0.838416
C13   C     C_R   0.157898 0.541110 0.142882 -0.084752
C14   C     C_2   0.857874 0.541179 0.361505 0.132137
C15   C     C_2   0.369127 0.507508 0.641344 -0.177085
C16   C     C_3   0.004648 0.094006 0.685057 0.670139
C17   C     C_R   0.041150 0.447510 0.963769 0.006281
C18   C     C_R   0.252052 0.555142 0.988093 0.001831
C19   C     C_R   0.164435 0.502461 0.950208 0.044552
C20   C     C_R   0.964208 0.390836 0.925488 -0.154531
C21   C     C_R   0.001107 0.390748 0.874804 0.440856
C22   C     C_R   0.117928 0.449553 0.860728 -0.034195
C23   C     C_3   0.581194 0.718260 0.631080 0.563190
C24   C     C_R   0.198583 0.506218 0.898518 -0.184530
C25   C     C_R   0.312195 0.567462 0.884760 -0.097437
C26   C     C_R   0.339741 0.572182 0.833110 0.618165
C27   C     C_R   0.157455 0.452547 0.809814 0.663154
C28   C     C_3   0.156421 0.253804 0.410466 0.624812
C29   C     C_2   0.464579 0.501322 0.731100 -0.026121
C30   C     C_3   0.512535 0.507836 0.677514 -0.015364
C31   C     C_1   0.224715 0.532404 0.656978 0.092234
C32   C     C_2   0.184133 0.529100 0.704052 -0.017341
C33   C     C_2   0.309946 0.513208 0.744263 0.211140
C34   C     C_3   0.642540 0.757216 0.684211 0.982721
C35   C     C_R   0.998026 0.451442 0.015055 0.070425
C36   C     C_R   0.095238 0.498521 0.053085 0.028568
C37   C     C_R   0.230991 0.543936 0.039844 -0.038899
C38   C     C_R   0.860112 0.410230 0.029772 -0.041724
C39   C     C_R   0.303539 0.576406 0.129760 0.449379
C40   C     C_3   0.114002 0.154542 0.397607 0.234012
C41   C     C_R   0.351503 0.621590 0.973049 -0.005159
C42   C     C_R   0.388528 0.625333 0.923179 0.416365
C43   C     C_R   0.343326 0.573116 0.078815 0.263610
C44   C     C_R   0.693392 0.063062 0.474886 -0.016563
C45   C     C_3   0.033877 0.751111 0.334186 0.311394
C46   C     C_R   0.517800 0.199409 0.502269 0.112292
C47   C     C_R   0.382326 0.232106 0.527344 -0.136722
C48   C     C_R   0.286445 0.172779 0.548775 0.041907
C49   C     C_R   0.327381 0.080388 0.547829 -0.111354
C50   C     C_R   0.467241 0.044581 0.525272 -0.001993
C51   C     C_R   0.561406 0.103090 0.500413 -0.083294
C52   C     C_3   0.034704 0.732960 0.567657 0.400293
C53   C     C_R   0.635225 0.908849 0.497296 -0.026049
C54   C     C_R   0.733457 0.967792 0.473771 -0.031983
C55   C     C_R   0.675380 0.812167 0.493623 0.129139
C56   C     C_3   0.028150 0.781316 0.281433 -0.304128
C57   C     C_R   0.810162 0.778873 0.468249 -0.320816
C58   C     C_R   0.914541 0.837009 0.449289 -0.095296
C59   C     C_R   0.875138 0.931804 0.451106 0.350358
C60   C     C_R   0.507237 0.949957 0.525589 0.451116
C61   C     C_3   0.057486 0.836812 0.573767 0.252815
C62   C     C_3   0.681921 0.320576 0.376559 0.726494
C63   C     C_3   0.716454 0.279699 0.322934 0.609634
C64   C     C_3   0.530929 0.780597 0.328098 0.742733
C65   C     C_3   0.462899 0.855660 0.296320 0.241737
C66   C     C_R   0.875938 0.462593 0.168497 0.654409
Cl1   Cl    Cl    0.624137 0.180689 0.624490 -0.677666
Cl2   Cl    Cl    0.886257 0.899862 0.596604 -0.631058
Cl3   Cl    Cl    0.550727 0.218923 0.293865 -0.616578
Cl4   Cl    Cl    0.355473 0.304416 0.652083 -0.854821
Cl5   Cl    Cl    0.374152 0.723287 0.633636 -0.749680
Cl6   Cl    Cl    0.854005 0.758165 0.690114 -0.515635
Cl7   Cl    Cl    0.469666 0.818431 0.231313 -0.619554
Cl8   Cl    Cl    0.547703 0.583028 0.066171 -0.717290
H1    H     H_    0.170727 0.127149 0.362152 0.041189
H2    H     H_    0.628210 0.646899 0.622228 -0.067520
H3    H     H_    0.074857 0.677875 0.332504 0.073490
H4    H     H_    0.910871 0.759269 0.348139 -0.050144
H5    H     H_    0.145943 0.767632 0.264454 0.202118
H6    H     H_    0.937202 0.742492 0.257884 0.096396
H7    H     H_    0.995793 0.855700 0.282309 0.126370
H8    H     H_    0.655574 0.764928 0.316513 -0.141526
H9    H     H_    0.535002 0.917729 0.303646 0.029116
H10   H     H_    0.337893 0.874863 0.305877 0.089858
H11   H     H_    0.138837 0.443732 0.288847 0.136216
H12   H     H_    0.162496 0.114061 0.428180 0.078034
H13   H     H_    0.713056 0.381459 0.088722 0.139997
H14   H     H_    0.557886 0.490448 0.759523 0.103895
H15   H     H_    0.877041 0.343367 0.934176 0.068198
H16   H     H_    0.775786 0.377491 0.003179 0.079420
H17   H     H_    0.710162 0.593845 0.241522 0.152725
H18   H     H_    0.401215 0.673109 0.999982 0.172902
H19   H     H_    0.183106 0.164873 0.651303 -0.137648
H20   H     H_    0.061499 0.544077 0.714344 0.125250
H21   H     H_    0.389422 0.490559 0.601828 0.070004
H22   H     H_    0.343652 0.303441 0.526712 0.045202
H23   H     H_    0.913208 0.717185 0.553412 -0.078892
H24   H     H_    0.243433 0.036283 0.562343 0.102402
H25   H     H_    0.844233 0.707434 0.468609 0.114366
H26   H     H_    0.765269 0.105949 0.455402 0.206769
H27   H     H_    0.875313 0.082360 0.678468 0.193780
H28   H     H_    0.112064 0.277828 0.448024 0.030625
H29   H     H_    0.924195 0.099422 0.366162 0.319995
H30   H     H_    0.596347 0.441740 0.397674 0.278998
H31   H     H_    0.615328 0.113383 0.759850 0.340757
H32   H     H_    0.659265 0.383318 0.284626 0.358531
H33   H     H_    0.629236 0.887358 0.673011 0.354566
H34   H     H_    0.121209 0.703613 0.540033 0.028465
H35   H     H_    0.487057 0.721148 0.730615 0.368812
H36   H     H_    0.497890 0.292830 0.771294 0.331998
H37   H     H_    0.203460 0.019753 0.679405 0.290601
H38   H     H_    0.613872 0.858319 0.384639 0.232867
H39   H     H_    0.073060 0.274801 0.701633 0.362075
H40   H     H_    0.843720 0.298188 0.854337 0.316758
H41   H     H_    0.482629 0.651516 0.154169 0.375878
H42   H     H_    0.584928 0.651164 0.894583 0.340249
H43   H     H_    0.789531 0.535136 0.427396 0.294857
H44   H     H_    0.052799 0.959080 0.411158 0.304492
H45   H     H_    0.083647 0.861596 0.537437 0.001966
H46   H     H_    0.146469 0.130361 0.742382 0.311354
H47   H     H_    0.416699 0.931147 0.588255 0.315499
H48   H     H_    0.351407 0.246770 0.375510 0.354415
H49   H     H_    0.159764 0.853692 0.599982 0.179844
H50   H     H_    0.794550 0.347105 0.394591 -0.162599
H51   H     H_    0.818455 0.229643 0.324273 0.085213
H52   H     H_    0.426826 0.139333 0.701057 0.006322
N1    N     N_R   0.971476 0.506715 0.205739 -0.442169
N2    N     N_R   0.268101 0.512585 0.796656 -0.449397
O1    O     O_2   0.918080 0.549800 0.616640 -0.468803
O2    O     O_2   0.252261 0.830459 0.456823 -0.433294
O3    O     O_3   0.140833 0.804553 0.364865 -0.584916
O4    O     O_3   0.150070 0.549720 0.556460 -0.515571
O5    O     O_3   0.546340 0.387390 0.478340 -0.492337
O6    O     O_2   0.398940 0.728800 0.517420 -0.408932
O7    O     O_3   0.619818 0.775476 0.594728 -0.591278
O8    O     O_2   0.443787 0.525329 0.322756 -0.418144
O9    O     O_3   0.437249 0.702613 0.319453 -0.533928
O10   O     O_2   0.754410 0.427181 0.179539 -0.522640
O11   O     O_2   0.094201 0.401158 0.777119 -0.488151
O12   O     O_3   0.626030 0.251295 0.403210 -0.600586
O13   O     O_2   0.195001 0.583046 0.226994 -0.514235
O14   O     O_2   0.424775 0.630762 0.820285 -0.523198
O15   O     O_3   0.658250 0.379560 0.591530 -0.445934
O16   O     O_2   0.831097 0.442866 0.671858 -0.404495
O17   O     O_3   0.060418 0.697459 0.614250 -0.517220
O18   O     O_3   0.652615 0.319195 0.692295 -0.541786
O19   O     O_2   0.790750 0.271170 0.482550 -0.450588
O20   O     O_3   0.062300 0.331660 0.568480 -0.438982
O21   O     O_2   0.000655 0.177538 0.511477 -0.464415
O22   O     O_3   0.947721 0.149199 0.392783 -0.719149
O23   O     O_3   0.980594 0.153890 0.604265 -0.538067
O24   O     O_3   0.564114 0.390014 0.373648 -0.695454
O25   O     O_3   0.646847 0.157873 0.736671 -0.665473
O26   O     O_3   0.758472 0.347750 0.293096 -0.749578
O27   O     O_3   0.581183 0.847453 0.695778 -0.654656
O28   O     O_3   0.596049 0.700781 0.720259 -0.701465
O29   O     O_3   0.421953 0.248642 0.754391 -0.720788
O30   O     O_3   0.088083 0.010817 0.671538 -0.663825
O31   O     O_3   0.528876 0.813007 0.378899 -0.731428
O32   O     O_3   0.996607 0.255915 0.673756 -0.624046
O33   O     O_3   0.922410 0.333928 0.838560 -0.632209
O34   O     O_2   0.271610 0.450170 0.383330 -0.396319
O35   O     O_3   0.409116 0.609542 0.167534 -0.617412
O36   O     O_3   0.500910 0.686660 0.913730 -0.641362
O37   O     O_3   0.854712 0.576695 0.410404 -0.737096
O38   O     O_3   0.977422 0.991937 0.434384 -0.730010
O39   O     O_3   0.030720 0.119854 0.736461 -0.646345
O40   O     O_3   0.421126 0.898435 0.554259 -0.703522
O41   O     O_3   0.320722 0.259008 0.410858 -0.793394
O42   O     O_3   0.039630 0.450200 0.443530 -0.496334
O43   O     O_3   0.531440 0.620360 0.408460 -0.451568
O44   O     O_3   0.088633 0.305321 0.373415 -0.643535
O45   O     O_3   0.643350 0.612530 0.521650 -0.512074
O46   O     O_3   0.127390 0.668260 0.431510 -0.448735
P1    P     P_3+3 0.090020 0.577590 0.608380 1.094694
P2    P     P_3+3 0.614340 0.285150 0.467650 1.070534
P3    P     P_3+3 0.083628 0.211067 0.561534 1.100740
P4    P     P_3+3 0.099670 0.422330 0.391610 1.070055
P5    P     P_3+3 0.108866 0.786173 0.427030 1.012073
P6    P     P_3+3 0.659898 0.413619 0.656576 1.132659
P7    P     P_3+3 0.584549 0.729762 0.531745 1.091889
P8    P     P_3+3 0.542399 0.608661 0.342883 1.101365

loop_
_geom_bond_atom_site_label_1
_geom_bond_atom_site_label_2
_ccdc_geom_bond_type
C53   C54   A    
O23   P3    S    
H36   O29   S    
C62   O24   S    
H40   O33   S    
Ba1   O15   S    
C44   C51   A    
C45   H3    S    
C19   C24   A    
H33   O27   S    
C2    O13   D    
C46   P2    S    
O1    P1    D    
C10   C11   A    
C44   H26   S    
C24   C25   A    
Ba2   O4    S    
Ba2   P4    S    
C5    P8    S    
C43   Cl8   S    
C4    O23   S    
C63   H51   S    
C30   P6    S    
C17   C19   A    
H35   O28   S    
C32   H20   S    
C32   C33   S    
C63   O26   S    
C56   H6    S    
Ba2   O43   S    
C36   C37   A    
O2    P5    D    
C55   C57   A    
C52   C61   S    
C14   O37   S    
C53   C60   A    
C12   O18   S    
C49   H24   S    
C41   H18   S    
C52   H34   S    
Ba1   Ba2   S    
C6    P4    S    
C22   C27   A    
C11   C38   A    
C17   C35   A    
C15   H21   S    
Ba2   O46   S    
C47   H22   S    
C9    C13   A    
C25   C42   A    
C64   O9    S    
C4    O32   S    
O43   P8    S    
H41   O35   S    
C6    C7    D    
H30   O24   S    
C39   O35   S    
C21   C22   A    
Ba1   O19   S    
C26   O14   D    
C40   O22   S    
C7    C8    S    
C23   Cl5   S    
O34   P4    D    
C34   O28   S    
C37   C43   A    
O42   P4    S    
C64   C65   S    
C57   C58   A    
C6    C14   D    
C45   O3    S    
C1    O29   S    
O46   P5    S    
C15   C31   D    
C45   H4    S    
C4    C16   S    
C61   H45   S    
C31   C32   D    
C21   O33   S    
C46   C51   A    
C60   O40   S    
C65   H9    S    
O16   P6    D    
C31   P1    S    
C49   C50   A    
C57   H25   S    
C17   C20   A    
C13   C39   A    
C56   H5    S    
Ba2   O34   S    
C3    C5    S    
C18   C37   A    
C1    H52   S    
H38   O31   S    
C63   Cl3   S    
O15   P6    S    
H42   O36   S    
Ba2   O6    S    
C23   H2    S    
C64   O31   S    
C58   C59   A    
C9    C36   A    
C23   O7    S    
C41   C42   A    
C35   C36   A    
Ba2   O45   S    
C10   C66   A    
Ba1   P2    S    
O17   P1    S    
O21   P3    D    
C27   N2    Am   
H32   O26   S    
C61   Cl2   S    
C20   H15   S    
C29   H14   S    
C27   O11   D    
O20   P3    S    
C1    O25   S    
C48   C49   A    
Ba1   O20   S    
C42   O36   S    
C38   H16   S    
C33   N2    S    
C61   H49   S    
C1    C12   S    
C34   Cl6   S    
C34   O27   S    
O4    P1    S    
O3    P5    S    
C46   C47   A    
C4    H19   S    
C62   H50   S    
C53   C55   A    
C12   Cl1   S    
C29   C33   D    
C52   H23   S    
C66   O10   D    
C65   Cl7   S    
C44   C54   A    
Ba1   O4    S    
H43   O37   S    
C55   P7    S    
C18   C41   A    
O8    P8    D    
C50   C51   A    
H44   O38   S    
O45   P7    S    
C16   O39   S    
C58   P5    S    
H29   O22   S    
Ba1   O45   S    
C65   H10   S    
Ba1   O42   S    
C11   H13   S    
C54   C59   A    
C12   Cl4   S    
C29   C30   S    
C5    C14   S    
O5    P2    S    
C22   C24   A    
Ba1   O1    S    
H46   O39   S    
C3    H17   S    
C9    C10   A    
C2    N1    Am   
O7    P7    S    
C35   C38   A    
O44   P4    S    
Ba2   O5    S    
C59   O38   S    
C62   C63   S    
H39   O32   S    
C48   P3    S    
C8    N1    S    
C3    C8    D    
C50   C60   A    
C56   H7    S    
C7    H11   S    
C45   C56   S    
O12   P2    S    
H48   O41   S    
C62   O12   S    
C2    C13   A    
O6    P7    D    
O19   P2    D    
C26   N2    Am   
C16   H27   S    
H37   O30   S    
C66   N1    Am   
C28   O41   S    
H47   O40   S    
C16   O30   S    
C23   C34   S    
C64   H8    S    
C40   H12   S    
C18   C19   A    
C40   H1    S    
O18   P6    S    
C47   C48   A    
C28   H28   S    
C25   C26   A    
C15   C30   S    
C39   C43   A    
C20   C21   A    
C28   C40   S    
Ba1   O5    S    
Ba1   P1    S    
C28   O44   S    
H31   O25   S    
O9    P8    S    
Ba2   O42   S    
C52   O17   S    
