data_mof_unit_60598.cif
_audit_creation_date              2012-12-10T18:21:20-0500
_audit_creation_method            fapswitch 2.2
_symmetry_space_group_name_H-M    P1
_symmetry_Int_Tables_number       1
_space_group_crystal_system       tetragonal
_cell_length_a                    35.603096
_cell_length_b                    35.603096
_cell_length_c                    23.665717
_cell_angle_alpha                 90.0
_cell_angle_beta                  90.0
_cell_angle_gamma                 90.0
_cell_volume                      29998.200081

loop_
_atom_site_label
_atom_site_type_symbol
_atom_type_description
_atom_site_fract_x
_atom_site_fract_y
_atom_site_fract_z
_atom_type_partial_charge
C1    C     C_R   0.000000 0.427844 0.500000 0.768577
C2    C     C_R   0.427844 0.000000 0.500000 0.768577
C3    C     C_R   0.000000 0.572156 0.500000 0.768577
C4    C     C_R   0.572156 0.000000 0.500000 0.768577
C5    C     C_R   0.500000 0.927844 1.000000 0.768577
C6    C     C_R   0.927844 0.500000 0.000000 0.768577
C7    C     C_R   0.500000 0.072156 0.000000 0.768577
C8    C     C_R   0.072156 0.500000 0.000000 0.768577
C9    C     C_1   0.000000 0.267281 0.500000 -0.047994
C10   C     C_1   0.267281 0.000000 0.500000 -0.047994
C11   C     C_1   1.000000 0.732719 0.500000 -0.047994
C12   C     C_1   0.732719 1.000000 0.500000 -0.047994
C13   C     C_1   0.500000 0.767281 1.000000 -0.047994
C14   C     C_1   0.767281 0.500000 1.000000 -0.047994
C15   C     C_1   0.500000 0.232719 0.000000 -0.047994
C16   C     C_1   0.232719 0.500000 0.000000 -0.047994
C17   C     C_R   0.990025 0.327227 0.451073 -0.157715
C18   C     C_R   0.327227 0.009975 0.451073 -0.157716
C19   C     C_R   0.009974 0.672773 0.451073 -0.157715
C20   C     C_R   0.672773 0.990026 0.451073 -0.157716
C21   C     C_R   0.990025 0.672773 0.548927 -0.157715
C22   C     C_R   0.327226 0.990025 0.548927 -0.157715
C23   C     C_R   0.009974 0.327227 0.548927 -0.157715
C24   C     C_R   0.672773 0.009974 0.548927 -0.157716
C25   C     C_R   0.490025 0.827226 0.951073 -0.157715
C26   C     C_R   0.827226 0.509975 0.951073 -0.157716
C27   C     C_R   0.509974 0.172773 0.951073 -0.157715
C28   C     C_R   0.172773 0.490025 0.951073 -0.157715
C29   C     C_R   0.490025 0.172773 0.048927 -0.157715
C30   C     C_R   0.827226 0.490025 0.048927 -0.157716
C31   C     C_R   0.509975 0.827226 0.048927 -0.157715
C32   C     C_R   0.172773 0.509974 0.048927 -0.157716
C33   C     C_R   0.989890 0.366784 0.450110 0.058948
C34   C     C_R   0.366784 0.010110 0.450111 0.058949
C35   C     C_R   0.010110 0.633216 0.450111 0.058948
C36   C     C_R   0.633216 0.989890 0.450110 0.058949
C37   C     C_R   0.989890 0.633216 0.549889 0.058949
C38   C     C_R   0.366784 0.989890 0.549889 0.058948
C39   C     C_R   0.010110 0.366784 0.549889 0.058948
C40   C     C_R   0.633216 0.010110 0.549890 0.058949
C41   C     C_R   0.489890 0.866784 0.950110 0.058948
C42   C     C_R   0.866784 0.510110 0.950110 0.058949
C43   C     C_R   0.510110 0.133216 0.950110 0.058948
C44   C     C_R   0.133216 0.489890 0.950110 0.058948
C45   C     C_R   0.489890 0.133216 0.049889 0.058948
C46   C     C_R   0.866784 0.489890 0.049889 0.058948
C47   C     C_R   0.510110 0.866784 0.049889 0.058948
C48   C     C_R   0.133216 0.510110 0.049890 0.058948
C49   C     C_R   0.000000 0.386470 0.500000 -0.095457
C50   C     C_R   0.386470 0.000000 0.500000 -0.095457
C51   C     C_R   0.000000 0.613529 0.500000 -0.095457
C52   C     C_R   0.613529 0.000000 0.500000 -0.095457
C53   C     C_R   0.500000 0.886470 1.000000 -0.095457
C54   C     C_R   0.886470 0.500000 1.000000 -0.095457
C55   C     C_R   0.500000 0.113530 0.000000 -0.095458
C56   C     C_R   0.113530 0.500000 0.000000 -0.095457
C57   C     C_R   0.000000 0.307729 0.500000 0.071162
C58   C     C_R   0.307729 0.000000 0.500000 0.071162
C59   C     C_R   1.000000 0.692271 0.500000 0.071162
C60   C     C_R   0.692271 1.000000 0.500000 0.071163
C61   C     C_R   0.500000 0.807729 1.000000 0.071162
C62   C     C_R   0.807729 0.500000 1.000000 0.071163
C63   C     C_R   0.500000 0.192271 0.000000 0.071162
C64   C     C_R   0.192271 0.500000 0.000000 0.071162
C65   C     C_R   0.927633 0.000000 0.500000 0.798567
C66   C     C_R   0.000000 0.072366 0.500000 0.798566
C67   C     C_R   0.072366 0.000000 0.500000 0.798566
C68   C     C_R   0.000000 0.927633 0.500000 0.798567
C69   C     C_R   0.427633 0.500000 0.000000 0.798567
C70   C     C_R   0.500000 0.572366 1.000000 0.798566
C71   C     C_R   0.572366 0.500000 1.000000 0.798566
C72   C     C_R   0.500000 0.427633 0.000000 0.798567
C73   C     C_R   0.000000 0.500000 0.608239 0.812874
C74   C     C_R   0.500000 0.000000 0.608239 0.812874
C75   C     C_R   0.000000 0.500000 0.391761 0.812874
C76   C     C_R   0.500000 0.000000 0.391761 0.812874
C77   C     C_R   0.500000 0.000000 0.108239 0.812874
C78   C     C_R   1.000000 0.500000 0.108239 0.812874
C79   C     C_R   0.500000 0.000000 0.891761 0.812874
C80   C     C_R   0.000000 0.500000 0.891761 0.812874
C81   C     C_1   0.000000 0.500000 0.669047 -0.184249
C82   C     C_1   0.500000 0.000000 0.669047 -0.184249
C83   C     C_1   0.000000 0.500000 0.330953 -0.184249
C84   C     C_1   0.500000 0.000000 0.330953 -0.184249
C85   C     C_1   0.500000 0.000000 0.169047 -0.184249
C86   C     C_1   0.000000 0.500000 0.169047 -0.184249
C87   C     C_1   0.500000 0.000000 0.830953 -0.184249
C88   C     C_1   0.000000 0.500000 0.830953 -0.184249
C89   C     C_1   0.000000 0.500000 0.720089 -0.015777
C90   C     C_1   0.500000 0.000000 0.720089 -0.015777
C91   C     C_1   0.000000 0.500000 0.279911 -0.015777
C92   C     C_1   0.500000 0.000000 0.279911 -0.015777
C93   C     C_1   0.500000 0.000000 0.220089 -0.015777
C94   C     C_1   1.000000 0.500000 0.220089 -0.015777
C95   C     C_1   0.500000 0.000000 0.779911 -0.015777
C96   C     C_1   0.000000 0.500000 0.779911 -0.015777
C97   C     C_R   0.999936 0.173297 0.448840 -0.157721
C98   C     C_R   0.173297 0.000064 0.448840 -0.157721
C99   C     C_R   0.000065 0.826703 0.448840 -0.157722
C100  C     C_R   0.826703 0.999936 0.448840 -0.157721
C101  C     C_R   0.999935 0.826703 0.551160 -0.157721
C102  C     C_R   0.173297 0.999936 0.551160 -0.157721
C103  C     C_R   0.000064 0.173297 0.551160 -0.157721
C104  C     C_R   0.826703 0.000064 0.551160 -0.157721
C105  C     C_R   0.499936 0.673297 0.948840 -0.157721
C106  C     C_R   0.673297 0.500065 0.948840 -0.157721
C107  C     C_R   0.500064 0.326703 0.948840 -0.157722
C108  C     C_R   0.326703 0.499937 0.948840 -0.157721
C109  C     C_R   0.499936 0.326703 0.051160 -0.157721
C110  C     C_R   0.673297 0.499935 0.051160 -0.157721
C111  C     C_R   0.500064 0.673297 0.051159 -0.157721
C112  C     C_R   0.326703 0.500063 0.051160 -0.157721
C113  C     C_R   0.999937 0.134023 0.448780 -0.191270
C114  C     C_R   0.134023 0.000062 0.448780 -0.191270
C115  C     C_R   0.000063 0.865977 0.448780 -0.191270
C116  C     C_R   0.865977 0.999938 0.448780 -0.191271
C117  C     C_R   0.999937 0.865977 0.551220 -0.191270
C118  C     C_R   0.134023 0.999938 0.551220 -0.191271
C119  C     C_R   0.000063 0.134023 0.551219 -0.191270
C120  C     C_R   0.865977 0.000062 0.551220 -0.191270
C121  C     C_R   0.499938 0.634023 0.948780 -0.191270
C122  C     C_R   0.634023 0.500063 0.948780 -0.191270
C123  C     C_R   0.500062 0.365977 0.948780 -0.191270
C124  C     C_R   0.365977 0.499939 0.948780 -0.191271
C125  C     C_R   0.499938 0.365977 0.051220 -0.191270
C126  C     C_R   0.634023 0.499937 0.051220 -0.191270
C127  C     C_R   0.500062 0.634023 0.051220 -0.191271
C128  C     C_R   0.365977 0.500061 0.051220 -0.191270
C129  C     C_R   0.000000 0.113945 0.500000 -0.039561
C130  C     C_R   0.113945 0.000000 0.500000 -0.039561
C131  C     C_R   0.000000 0.886055 0.500000 -0.039561
C132  C     C_R   0.886055 0.000000 0.500000 -0.039561
C133  C     C_R   0.500000 0.613945 1.000000 -0.039561
C134  C     C_R   0.613945 0.500000 1.000000 -0.039561
C135  C     C_R   0.500000 0.386055 0.000000 -0.039561
C136  C     C_R   0.386055 0.500000 0.000000 -0.039561
C137  C     C_R   0.000000 0.193003 0.500000 0.146416
C138  C     C_R   0.193003 0.000000 0.500000 0.146416
C139  C     C_R   0.000000 0.806997 0.500000 0.146416
C140  C     C_R   0.806997 0.000000 0.500000 0.146416
C141  C     C_R   0.500000 0.693003 1.000000 0.146416
C142  C     C_R   0.693003 0.500000 1.000000 0.146416
C143  C     C_R   0.500000 0.306997 0.000000 0.146416
C144  C     C_R   0.306997 0.500000 0.000000 0.146416
C145  C     C_1   0.000000 0.233421 0.500000 -0.068246
C146  C     C_1   0.233421 0.000000 0.500000 -0.068246
C147  C     C_1   1.000000 0.766579 0.500000 -0.068246
C148  C     C_1   0.766579 1.000000 0.500000 -0.068246
C149  C     C_1   0.500000 0.733421 1.000000 -0.068246
C150  C     C_1   0.733421 0.500000 1.000000 -0.068246
C151  C     C_1   0.500000 0.266579 0.000000 -0.068246
C152  C     C_1   0.266579 0.500000 0.000000 -0.068246
Cu1   Cu    Cu3+1 0.037270 0.500000 0.500000 0.938129
Cu2   Cu    Cu3+1 0.500000 0.962730 0.500000 0.938129
Cu3   Cu    Cu3+1 0.962730 0.500000 0.500000 0.938129
Cu4   Cu    Cu3+1 0.500000 0.037270 0.500000 0.938129
Cu5   Cu    Cu3+1 0.537270 0.000000 0.000000 0.938129
Cu6   Cu    Cu3+1 0.000000 0.462730 0.000000 0.938129
Cu7   Cu    Cu3+1 0.462730 0.000000 0.000000 0.938129
Cu8   Cu    Cu3+1 0.000000 0.537270 0.000000 0.938129
Cu9   Cu    Cu3+1 0.000000 0.000000 0.555780 0.934137
Cu10  Cu    Cu3+1 0.000000 0.000000 0.444220 0.934137
Cu11  Cu    Cu3+1 0.500000 0.500000 0.055780 0.934137
Cu12  Cu    Cu3+1 0.500000 0.500000 0.944220 0.934137
H1    H     H_    0.999884 0.188284 0.408993 0.129112
H2    H     H_    0.188284 0.000116 0.408993 0.129112
H3    H     H_    0.000116 0.811716 0.408993 0.129112
H4    H     H_    0.811716 0.999885 0.408993 0.129112
H5    H     H_    0.999884 0.811715 0.591007 0.129112
H6    H     H_    0.188284 0.999884 0.591007 0.129112
H7    H     H_    0.000116 0.188284 0.591007 0.129112
H8    H     H_    0.811715 0.000115 0.591007 0.129112
H9    H     H_    0.499885 0.688284 0.908993 0.129112
H10   H     H_    0.688284 0.500117 0.908993 0.129112
H11   H     H_    0.500115 0.311715 0.908993 0.129112
H12   H     H_    0.311715 0.499886 0.908993 0.129112
H13   H     H_    0.499885 0.311715 0.091007 0.129112
H14   H     H_    0.688284 0.499883 0.091007 0.129112
H15   H     H_    0.500115 0.688284 0.091007 0.129112
H16   H     H_    0.311715 0.500113 0.091007 0.129112
H17   H     H_    0.999887 0.119414 0.408649 0.151483
H18   H     H_    0.119414 0.000113 0.408649 0.151483
H19   H     H_    0.000113 0.880586 0.408649 0.151483
H20   H     H_    0.880586 0.999888 0.408649 0.151483
H21   H     H_    0.999887 0.880586 0.591351 0.151483
H22   H     H_    0.119414 0.999887 0.591351 0.151483
H23   H     H_    0.000113 0.119414 0.591351 0.151482
H24   H     H_    0.880586 0.000112 0.591351 0.151483
H25   H     H_    0.499888 0.619414 0.908649 0.151482
H26   H     H_    0.619414 0.500114 0.908649 0.151483
H27   H     H_    0.500113 0.380586 0.908649 0.151483
H28   H     H_    0.380586 0.499889 0.908649 0.151483
H29   H     H_    0.499887 0.380586 0.091351 0.151483
H30   H     H_    0.619414 0.499886 0.091351 0.151483
H31   H     H_    0.500112 0.619414 0.091351 0.151483
H32   H     H_    0.380586 0.500111 0.091351 0.151483
H33   H     H_    0.982491 0.311082 0.414070 0.129057
H34   H     H_    0.311082 0.017509 0.414070 0.129057
H35   H     H_    0.017509 0.688917 0.414070 0.129057
H36   H     H_    0.688917 0.982491 0.414070 0.129057
H37   H     H_    0.982491 0.688917 0.585930 0.129057
H38   H     H_    0.311082 0.982491 0.585930 0.129057
H39   H     H_    0.017509 0.311082 0.585930 0.129057
H40   H     H_    0.688917 0.017509 0.585930 0.129057
H41   H     H_    0.482491 0.811082 0.914070 0.129057
H42   H     H_    0.811082 0.517509 0.914070 0.129057
H43   H     H_    0.517509 0.188917 0.914070 0.129057
H44   H     H_    0.188917 0.482491 0.914070 0.129057
H45   H     H_    0.482491 0.188918 0.085930 0.129057
H46   H     H_    0.811082 0.482491 0.085930 0.129057
H47   H     H_    0.517509 0.811082 0.085930 0.129057
H48   H     H_    0.188917 0.517509 0.085930 0.129057
O1    O     O_R   0.031480 0.445630 0.499980 -0.583301
O2    O     O_R   0.445630 0.968520 0.499980 -0.583300
O3    O     O_R   0.968520 0.554370 0.499980 -0.583300
O4    O     O_R   0.554370 0.031480 0.499980 -0.583300
O5    O     O_R   0.031480 0.554370 0.500020 -0.583300
O6    O     O_R   0.445630 0.031480 0.500020 -0.583301
O7    O     O_R   0.968520 0.445630 0.500020 -0.583300
O8    O     O_R   0.554370 0.968520 0.500020 -0.583300
O9    O     O_R   0.531480 0.945630 0.999980 -0.583301
O10   O     O_R   0.945630 0.468520 0.999980 -0.583300
O11   O     O_R   0.468520 0.054370 0.999980 -0.583300
O12   O     O_R   0.054370 0.531480 0.999980 -0.583300
O13   O     O_R   0.531480 0.054370 0.000020 -0.583300
O14   O     O_R   0.945630 0.531480 0.000020 -0.583301
O15   O     O_R   0.468520 0.945630 0.000020 -0.583300
O16   O     O_R   0.054370 0.468520 0.000020 -0.583300
O17   O     O_R   0.031480 0.500000 0.581380 -0.578642
O18   O     O_R   0.500000 0.968520 0.581380 -0.578642
O19   O     O_R   0.968520 0.500000 0.581380 -0.578642
O20   O     O_R   0.500000 0.031480 0.581380 -0.578642
O21   O     O_R   0.031480 0.500000 0.418620 -0.578642
O22   O     O_R   0.500000 0.031480 0.418620 -0.578642
O23   O     O_R   0.968520 0.500000 0.418620 -0.578642
O24   O     O_R   0.500000 0.968520 0.418620 -0.578642
O25   O     O_R   0.531480 0.000000 0.081380 -0.578642
O26   O     O_R   0.000000 0.468520 0.081380 -0.578642
O27   O     O_R   0.468520 0.000000 0.081380 -0.578642
O28   O     O_R   0.000000 0.531480 0.081380 -0.578642
O29   O     O_R   0.531480 0.000000 0.918620 -0.578642
O30   O     O_R   0.000000 0.531480 0.918620 -0.578642
O31   O     O_R   0.468520 0.000000 0.918620 -0.578642
O32   O     O_R   0.000000 0.468520 0.918620 -0.578642
O33   O     O_R   0.945750 0.999990 0.547080 -0.586070
O34   O     O_R   0.999990 0.054250 0.547080 -0.586070
O35   O     O_R   0.054250 0.000010 0.547080 -0.586070
O36   O     O_R   0.000010 0.945750 0.547080 -0.586070
O37   O     O_R   0.945750 0.000010 0.452920 -0.586070
O38   O     O_R   0.999990 0.945750 0.452920 -0.586069
O39   O     O_R   0.054250 0.999990 0.452920 -0.586070
O40   O     O_R   0.000010 0.054250 0.452920 -0.586070
O41   O     O_R   0.445750 0.499990 0.047080 -0.586070
O42   O     O_R   0.499990 0.554250 0.047080 -0.586070
O43   O     O_R   0.554250 0.500010 0.047080 -0.586070
O44   O     O_R   0.500010 0.445750 0.047080 -0.586070
O45   O     O_R   0.445750 0.500010 0.952920 -0.586069
O46   O     O_R   0.499990 0.445750 0.952920 -0.586069
O47   O     O_R   0.554250 0.499990 0.952920 -0.586070
O48   O     O_R   0.500010 0.554250 0.952920 -0.586070
C153  C     C_3   0.979716 0.388957 0.397008 -0.389300
C154  C     C_3   0.971106 0.365736 0.343840 -0.371956
C155  C     C_3   0.962280 0.391249 0.293655 -0.831803
H49   H     H_    0.937486 0.409141 0.303044 0.256106
H50   H     H_    0.986732 0.409520 0.283898 0.260155
H51   H     H_    0.955931 0.373853 0.255905 0.240432
H52   H     H_    0.995777 0.348045 0.332843 0.222262
H53   H     H_    0.946396 0.347366 0.351638 0.219908
H54   H     H_    0.954707 0.406538 0.406554 0.212644
H55   H     H_    0.003504 0.408103 0.387047 0.191917
C156  C     C_3   0.388957 0.020284 0.397008 -0.389300
C157  C     C_3   0.365736 0.028894 0.343840 -0.371958
C158  C     C_3   0.391249 0.037720 0.293656 -0.831803
H56   H     H_    0.409141 0.062514 0.303044 0.256105
H57   H     H_    0.409520 0.013268 0.283898 0.260155
H58   H     H_    0.373853 0.044069 0.255905 0.240432
H59   H     H_    0.348045 0.004223 0.332843 0.222263
H60   H     H_    0.347366 0.053604 0.351639 0.219909
H61   H     H_    0.406538 0.045293 0.406554 0.212644
H62   H     H_    0.408103 0.996496 0.387047 0.191917
C159  C     C_3   0.020284 0.611043 0.397008 -0.389300
C160  C     C_3   0.028894 0.634264 0.343840 -0.371957
C161  C     C_3   0.037719 0.608751 0.293655 -0.831801
H63   H     H_    0.062513 0.590859 0.303044 0.256105
H64   H     H_    0.013268 0.590480 0.283898 0.260154
H65   H     H_    0.044069 0.626147 0.255905 0.240432
H66   H     H_    0.004223 0.651955 0.332843 0.222263
H67   H     H_    0.053604 0.652634 0.351638 0.219908
H68   H     H_    0.045293 0.593462 0.406554 0.212643
H69   H     H_    0.996496 0.591897 0.387047 0.191917
C162  C     C_3   0.611043 0.979716 0.397008 -0.389300
C163  C     C_3   0.634264 0.971106 0.343839 -0.371957
C164  C     C_3   0.608751 0.962281 0.293655 -0.831802
H70   H     H_    0.590859 0.937487 0.303043 0.256105
H71   H     H_    0.590480 0.986732 0.283898 0.260154
H72   H     H_    0.626147 0.955932 0.255905 0.240432
H73   H     H_    0.651955 0.995778 0.332843 0.222263
H74   H     H_    0.652634 0.946396 0.351638 0.219908
H75   H     H_    0.593462 0.954707 0.406554 0.212643
H76   H     H_    0.591897 0.003504 0.387047 0.191917
C165  C     C_3   0.979716 0.611043 0.602992 -0.389300
C166  C     C_3   0.971106 0.634264 0.656160 -0.371958
C167  C     C_3   0.962281 0.608751 0.706345 -0.831803
H77   H     H_    0.937486 0.590859 0.696956 0.256105
H78   H     H_    0.986732 0.590480 0.716102 0.260155
H79   H     H_    0.955931 0.626147 0.744095 0.240432
H80   H     H_    0.995777 0.651955 0.667157 0.222263
H81   H     H_    0.946396 0.652634 0.648362 0.219908
H82   H     H_    0.954707 0.593462 0.593446 0.212643
H83   H     H_    0.003504 0.591897 0.612953 0.191917
C168  C     C_3   0.388957 0.979715 0.602992 -0.389301
C169  C     C_3   0.365736 0.971106 0.656160 -0.371959
C170  C     C_3   0.391249 0.962280 0.706344 -0.831801
H84   H     H_    0.409141 0.937486 0.696956 0.256105
H85   H     H_    0.409520 0.986731 0.716102 0.260154
H86   H     H_    0.373853 0.955931 0.744094 0.240432
H87   H     H_    0.348045 0.995777 0.667157 0.222263
H88   H     H_    0.347366 0.946395 0.648361 0.219909
H89   H     H_    0.406538 0.954707 0.593445 0.212644
H90   H     H_    0.408103 0.003504 0.612953 0.191917
C171  C     C_3   0.020284 0.388957 0.602992 -0.389300
C172  C     C_3   0.028894 0.365736 0.656160 -0.371959
C173  C     C_3   0.037719 0.391249 0.706344 -0.831801
H91   H     H_    0.062513 0.409141 0.696956 0.256105
H92   H     H_    0.013268 0.409520 0.716102 0.260155
H93   H     H_    0.044069 0.373853 0.744095 0.240431
H94   H     H_    0.004223 0.348045 0.667157 0.222264
H95   H     H_    0.053604 0.347366 0.648362 0.219908
H96   H     H_    0.045293 0.406538 0.593446 0.212643
H97   H     H_    0.996496 0.408103 0.612953 0.191917
C174  C     C_3   0.611043 0.020284 0.602992 -0.389300
C175  C     C_3   0.634264 0.028894 0.656160 -0.371956
C176  C     C_3   0.608751 0.037719 0.706345 -0.831803
H98   H     H_    0.590859 0.062513 0.696956 0.256105
H99   H     H_    0.590480 0.013268 0.716102 0.260155
H100  H     H_    0.626147 0.044068 0.744095 0.240431
H101  H     H_    0.651955 0.004222 0.667157 0.222263
H102  H     H_    0.652634 0.053604 0.648362 0.219908
H103  H     H_    0.593462 0.045292 0.593446 0.212643
H104  H     H_    0.591897 0.996496 0.612953 0.191917
C177  C     C_3   0.479716 0.888957 0.897008 -0.389300
C178  C     C_3   0.471106 0.865736 0.843840 -0.371957
C179  C     C_3   0.462280 0.891249 0.793655 -0.831803
H105  H     H_    0.437486 0.909141 0.803044 0.256106
H106  H     H_    0.486732 0.909520 0.783898 0.260155
H107  H     H_    0.455931 0.873853 0.755905 0.240432
H108  H     H_    0.495777 0.848045 0.832843 0.222263
H109  H     H_    0.446396 0.847366 0.851638 0.219908
H110  H     H_    0.454707 0.906538 0.906554 0.212643
H111  H     H_    0.503504 0.908103 0.887047 0.191918
C180  C     C_3   0.888957 0.520284 0.897008 -0.389300
C181  C     C_3   0.865736 0.528894 0.843840 -0.371958
C182  C     C_3   0.891249 0.537720 0.793655 -0.831801
H112  H     H_    0.909141 0.562514 0.803044 0.256105
H113  H     H_    0.909520 0.513268 0.783898 0.260155
H114  H     H_    0.873853 0.544069 0.755905 0.240432
H115  H     H_    0.848045 0.504223 0.832843 0.222264
H116  H     H_    0.847366 0.553604 0.851638 0.219908
H117  H     H_    0.906538 0.545293 0.906555 0.212644
H118  H     H_    0.908103 0.496496 0.887047 0.191917
C183  C     C_3   0.520284 0.111043 0.897008 -0.389299
C184  C     C_3   0.528894 0.134264 0.843840 -0.371958
C185  C     C_3   0.537720 0.108751 0.793655 -0.831802
H119  H     H_    0.562514 0.090859 0.803044 0.256105
H120  H     H_    0.513268 0.090480 0.783898 0.260155
H121  H     H_    0.544069 0.126147 0.755905 0.240432
H122  H     H_    0.504223 0.151955 0.832843 0.222263
H123  H     H_    0.553604 0.152634 0.851638 0.219908
H124  H     H_    0.545293 0.093462 0.906554 0.212643
H125  H     H_    0.496496 0.091897 0.887047 0.191917
C186  C     C_3   0.111043 0.479716 0.897008 -0.389300
C187  C     C_3   0.134264 0.471106 0.843839 -0.371957
C188  C     C_3   0.108751 0.462281 0.793655 -0.831801
H126  H     H_    0.090859 0.437487 0.803043 0.256105
H127  H     H_    0.090480 0.486732 0.783898 0.260154
H128  H     H_    0.126147 0.455932 0.755905 0.240432
H129  H     H_    0.151955 0.495777 0.832843 0.222263
H130  H     H_    0.152634 0.446396 0.851638 0.219908
H131  H     H_    0.093462 0.454707 0.906554 0.212643
H132  H     H_    0.091897 0.503504 0.887047 0.191917
C189  C     C_3   0.479716 0.111043 0.102992 -0.389300
C190  C     C_3   0.471106 0.134264 0.156160 -0.371957
C191  C     C_3   0.462281 0.108751 0.206344 -0.831804
H133  H     H_    0.437486 0.090859 0.196956 0.256106
H134  H     H_    0.486732 0.090480 0.216102 0.260155
H135  H     H_    0.455931 0.126147 0.244095 0.240432
H136  H     H_    0.495777 0.151955 0.167157 0.222263
H137  H     H_    0.446396 0.152634 0.148362 0.219908
H138  H     H_    0.454707 0.093462 0.093446 0.212643
H139  H     H_    0.503504 0.091897 0.112953 0.191917
C192  C     C_3   0.888957 0.479716 0.102992 -0.389300
C193  C     C_3   0.865735 0.471106 0.156160 -0.371958
C194  C     C_3   0.891249 0.462280 0.206344 -0.831801
H140  H     H_    0.909141 0.437486 0.196956 0.256105
H141  H     H_    0.909520 0.486731 0.216102 0.260154
H142  H     H_    0.873853 0.455931 0.244094 0.240431
H143  H     H_    0.848045 0.495777 0.167157 0.222263
H144  H     H_    0.847366 0.446396 0.148361 0.219908
H145  H     H_    0.906538 0.454707 0.093445 0.212644
H146  H     H_    0.908103 0.503504 0.112953 0.191917
C195  C     C_3   0.520284 0.888957 0.102992 -0.389300
C196  C     C_3   0.528894 0.865735 0.156160 -0.371957
C197  C     C_3   0.537719 0.891249 0.206345 -0.831801
H147  H     H_    0.562513 0.909141 0.196956 0.256105
H148  H     H_    0.513268 0.909520 0.216102 0.260154
H149  H     H_    0.544069 0.873853 0.244095 0.240432
H150  H     H_    0.504223 0.848045 0.167157 0.222263
H151  H     H_    0.553604 0.847365 0.148362 0.219908
H152  H     H_    0.545293 0.906538 0.093446 0.212643
H153  H     H_    0.496496 0.908103 0.112953 0.191917
C198  C     C_3   0.111043 0.520284 0.102992 -0.389299
C199  C     C_3   0.134264 0.528894 0.156160 -0.371957
C200  C     C_3   0.108751 0.537719 0.206345 -0.831804
H154  H     H_    0.090859 0.562513 0.196956 0.256106
H155  H     H_    0.090480 0.513268 0.216102 0.260155
H156  H     H_    0.126147 0.544068 0.244095 0.240432
H157  H     H_    0.151955 0.504223 0.167157 0.222263
H158  H     H_    0.152634 0.553604 0.148362 0.219908
H159  H     H_    0.093462 0.545292 0.093446 0.212643
H160  H     H_    0.091897 0.496496 0.112953 0.191917

loop_
_geom_bond_atom_site_label_1
_geom_bond_atom_site_label_2
_ccdc_geom_bond_type
C189  H139  S    
C103  H7    S    
C162  C163  S    
C7    C55   S    
Cu1   O17   S    
C8    C56   S    
Cu1   O1    S    
C118  H22   S    
C90   C95   S    
C167  H78   S    
C184  H123  S    
C176  H98   S    
C160  C161  S    
C190  C191  S    
C98   C138  A    
C197  H148  S    
C21   C59   A    
C178  H108  S    
C103  C137  A    
C37   C51   A    
C66   O34   A    
C98   C114  A    
C110  H14   S    
C3    O3    A    
C156  C157  S    
C22   C38   A    
C166  H81   S    
C158  H58   S    
C171  H96   S    
C187  C188  S    
C18   C58   A    
C157  C158  S    
Cu4   O4    S    
C17   H33   S    
C79   O31   A    
C47   C53   A    
C195  H152  S    
C125  C135  A    
C156  H61   S    
C200  H155  S    
C79   C87   S    
C111  H15   S    
C114  C130  A    
C163  H73   S    
C26   H42   S    
C108  C124  A    
C120  H24   S    
C73   C81   S    
C182  H113  S    
C106  C142  A    
C99   H3    S    
C66   O40   A    
C173  H91   S    
C21   H37   S    
C183  H125  S    
Cu9   O36   S    
C188  H128  S    
C25   C41   A    
C178  C179  S    
C124  C136  A    
C165  C166  S    
C28   C44   A    
C104  C140  A    
C29   C45   A    
Cu11  O42   S    
C47   C195  S    
C127  H31   S    
C7    O11   A    
C167  H77   S    
C125  H29   S    
C168  H90   S    
Cu6   O32   S    
C187  H130  S    
Cu6   O26   S    
C196  H151  S    
C192  H146  S    
Cu8   O12   S    
C2    O2    A    
C35   C51   A    
C189  C190  S    
C28   H44   S    
C107  C143  A    
C191  H133  S    
C108  C144  A    
C43   C183  S    
C176  H100  S    
C183  H124  S    
C155  H50   S    
C157  H60   S    
C46   C192  S    
C44   C186  S    
C45   C189  S    
C22   C58   A    
Cu10  O37   S    
C83   C91   T    
C194  H140  S    
C89   C96   S    
C188  H127  S    
C80   C88   S    
C19   C35   A    
C91   C94   S    
C174  H103  S    
C29   C63   A    
C79   O29   A    
C126  C134  A    
C171  C172  S    
C2    O6    A    
C76   O22   A    
Cu8   O30   S    
C33   C49   A    
C6    O10   A    
C102  H6    S    
C4    O4    A    
C181  H116  S    
C180  C181  S    
C11   C147  T    
C70   O42   A    
C73   O17   A    
C195  C196  S    
C101  C139  A    
C68   O36   A    
Cu10  O39   S    
C199  C200  S    
C10   C58   S    
C121  H25   S    
C153  C154  S    
C170  H85   S    
C184  C185  S    
C71   O47   A    
C14   C62   S    
C108  H12   S    
C169  C170  S    
C122  C134  A    
C2    C50   S    
C67   O35   A    
C113  H17   S    
Cu4   O22   S    
C87   C95   T    
Cu3   O23   S    
C153  H54   S    
C36   C52   A    
C40   C174  S    
C3    O5    A    
C112  H16   S    
C77   C85   S    
C160  H66   S    
C105  H9    S    
Cu12  O45   S    
C161  H65   S    
Cu5   O9    S    
C99   C139  A    
C97   C137  A    
C194  H142  S    
C186  H131  S    
C187  H129  S    
C175  C176  S    
C32   C64   A    
C154  H52   S    
C72   C135  S    
C7    O13   A    
C19   C59   A    
C5    O15   A    
C123  C135  A    
C173  H92   S    
Cu9   O33   S    
C164  H70   S    
C109  H13   S    
C177  H111  S    
Cu4   O20   S    
C116  C132  A    
C71   O43   A    
C106  C122  A    
C76   O24   A    
C15   C151  T    
Cu11  O43   S    
C162  H76   S    
C41   C53   A    
C98   H2    S    
C110  C126  A    
C43   C55   A    
C39   C49   A    
C10   C146  T    
C165  H83   S    
C179  H106  S    
C185  H121  S    
C169  H88   S    
Cu1   Cu3   S    
C73   O19   A    
C65   C132  S    
C180  H118  S    
C26   C42   A    
C69   O45   A    
C196  C197  S    
C189  H138  S    
C23   C57   A    
C143  C151  S    
C30   C46   A    
C175  H101  S    
C29   H45   S    
C154  C155  S    
C198  H160  S    
C193  H143  S    
C19   H35   S    
C191  H135  S    
C144  C152  S    
C178  H109  S    
C12   C148  T    
C190  H136  S    
C138  C146  S    
C116  H20   S    
C192  H145  S    
C158  H57   S    
Cu8   O14   S    
C117  C131  A    
C119  H23   S    
C111  C141  A    
C42   C180  S    
C45   C55   A    
C78   O26   A    
Cu12  O47   S    
C161  H63   S    
C84   C92   T    
C36   C162  S    
C77   O25   A    
C88   C96   T    
C200  H154  S    
Cu9   Cu10  S    
C31   C61   A    
C163  H74   S    
C100  C116  A    
C107  C123  A    
Cu2   O2    S    
C76   C84   S    
C71   C134  S    
C182  H112  S    
C155  H49   S    
C72   O46   A    
C137  C145  S    
C6    C54   S    
Cu9   O35   S    
C164  H72   S    
C65   O37   A    
C128  C136  A    
C99   C115  A    
C25   H41   S    
C161  H64   S    
C68   O38   A    
C186  C187  S    
C33   C153  S    
Cu11  O41   S    
C197  H147  S    
C4    O8    A    
C168  H89   S    
C18   H34   S    
C185  H119  S    
C101  H5    S    
C20   C60   A    
C41   C177  S    
Cu2   Cu4   S    
C8    O12   A    
Cu5   O13   S    
C159  H69   S    
C104  H8    S    
C66   C129  S    
C81   C89   T    
C70   O48   A    
C172  C173  S    
Cu5   Cu7   S    
C31   C47   A    
Cu6   Cu8   S    
C32   C48   A    
C17   C33   A    
C72   O44   A    
C11   C59   S    
Cu7   O31   S    
C122  H26   S    
C167  H79   S    
C184  H122  S    
C176  H99   S    
C8    O16   A    
C22   H38   S    
C141  C149  S    
C197  H149  S    
C74   O20   A    
C3    C51   S    
C114  H18   S    
C166  H80   S    
C171  H97   S    
C35   C159  S    
Cu3   O7    S    
C174  C175  S    
C118  C130  A    
C126  H30   S    
C46   C54   A    
C106  H10   S    
Cu1   O21   S    
C109  C143  A    
C25   C61   A    
Cu3   O3    S    
C27   C63   A    
C195  H153  S    
C28   C64   A    
Cu5   O25   S    
C156  H62   S    
C69   C136  S    
C30   C62   A    
C1    O1    A    
C34   C156  S    
C67   C130  S    
Cu2   O8    S    
C124  H28   S    
C182  H114  S    
C65   O33   A    
C38   C168  S    
C127  C133  A    
C193  C194  S    
C115  H19   S    
C82   C90   T    
C101  C117  A    
C142  C150  S    
C117  H21   S    
C42   C54   A    
C154  H53   S    
C39   C171  S    
C179  H105  S    
C75   C83   S    
C170  H84   S    
C107  H11   S    
C97   H1    S    
C6    O14   A    
C9    C145  T    
C92   C93   S    
C80   O30   A    
C112  C128  A    
C196  H150  S    
C20   C36   A    
C27   C43   A    
C21   C37   A    
Cu10  O38   S    
C198  C199  S    
C77   O27   A    
Cu7   O27   S    
C17   C57   A    
C104  C120  A    
C155  H51   S    
C5    O9    A    
C168  C169  S    
C160  H67   S    
C157  H59   S    
Cu12  O46   S    
C68   C131  S    
Cu11  Cu12  S    
C74   O18   A    
C140  C148  S    
C69   O41   A    
C192  C193  S    
C115  C131  A    
C177  C178  S    
C194  H141  S    
C139  C147  S    
C113  C129  A    
C4    C52   S    
C5    C53   S    
C163  C164  S    
C48   C198  S    
C105  C141  A    
C32   H48   S    
Cu7   O11   S    
C174  H104  S    
C37   C165  S    
C102  C138  A    
C110  C142  A    
C44   C56   A    
Cu5   O29   S    
C86   C94   T    
C119  C129  A    
C177  H110  S    
C20   H36   S    
C70   C133  S    
C193  H144  S    
C75   O23   A    
Cu7   O15   S    
C100  C140  A    
C9    C57   S    
C102  C118  A    
C78   C86   S    
C165  H82   S    
Cu6   O10   S    
C181  H115  S    
C181  C182  S    
C185  H120  S    
C14   C150  T    
C85   C93   T    
C180  H117  S    
C172  H95   S    
C34   C50   A    
C16   C152  T    
C175  H102  S    
C170  H86   S    
C198  H159  S    
C159  C160  S    
C40   C52   A    
C80   O32   A    
C23   H39   S    
C191  H134  S    
C172  H94   S    
C190  H137  S    
C24   C60   A    
C158  H56   S    
C105  C121  A    
C1    O7    A    
C18   C34   A    
C153  H55   S    
C109  C125  A    
C199  H157  S    
Cu10  O40   S    
Cu12  O48   S    
C111  C127  A    
C97   C113  A    
Cu6   O16   S    
C162  H75   S    
C74   C82   S    
C48   C56   A    
C166  C167  S    
C24   H40   S    
C78   O28   A    
C186  H132  S    
Cu8   O28   S    
C120  C132  A    
Cu1   O5    S    
C103  C119  A    
C128  H32   S    
C30   H46   S    
C38   C50   A    
C200  H156  S    
C183  C184  S    
C100  H4    S    
C173  H93   S    
C112  C144  A    
C26   C62   A    
C13   C149  T    
Cu9   O34   S    
C164  H71   S    
C188  H126  S    
C31   H47   S    
C1    C49   S    
C23   C39   A    
Cu3   O19   S    
C24   C40   A    
C75   O21   A    
C27   H43   S    
Cu11  O44   S    
C199  H158  S    
C12   C60   S    
C13   C61   S    
C179  H107  S    
Cu2   O24   S    
C15   C63   S    
C169  H87   S    
Cu4   O6    S    
C16   C64   S    
C121  C133  A    
C123  H27   S    
Cu2   O18   S    
C159  H68   S    
C67   O39   A    
