data_mof_unit_32859.cif
_audit_creation_date              2012-10-26T20:40:17-0400
_audit_creation_method            fapswitch 2.2
_symmetry_space_group_name_H-M    P1
_symmetry_Int_Tables_number       1
_space_group_crystal_system       triclinic
_cell_length_a                    14.986618
_cell_length_b                    10.847895
_cell_length_c                    9.611695
_cell_angle_alpha                 87.699758
_cell_angle_beta                  89.719177
_cell_angle_gamma                 92.772655
_cell_volume                      1559.48100429

loop_
_atom_site_label
_atom_site_type_symbol
_atom_type_description
_atom_site_fract_x
_atom_site_fract_y
_atom_site_fract_z
_atom_type_partial_charge
C1    C     C_R   0.495457 0.262571 0.502855 0.538279
C2    C     C_R   0.182960 0.404590 0.438294 -0.137072
C3    C     C_R   0.232331 0.499881 0.500407 -0.002166
C4    C     C_R   0.328960 0.499509 0.500288 0.534932
C5    C     C_R   0.189618 0.597006 0.559563 -0.132808
C6    C     C_R   0.373585 0.111726 0.693395 -0.102906
C7    C     C_R   0.315050 0.039345 0.779018 -0.119643
C8    C     C_R   0.312085 0.911698 0.772104 -0.138197
C9    C     C_R   0.368495 0.855442 0.680907 -0.121796
C10   C     C_R   0.429022 0.926381 0.592937 0.009011
C11   C     C_R   0.431697 0.056938 0.599919 0.021497
C12   C     C_R   0.909483 0.605507 0.550342 0.013646
C13   C     C_R   0.488755 0.128362 0.507157 -0.019980
C14   C     C_R   0.532043 0.072824 0.400092 -0.157839
C15   C     C_R   0.521502 0.947195 0.381647 -0.046720
C16   C     C_R   0.494027 0.737355 0.496905 0.521614
C17   C     C_R   0.480876 0.871149 0.489881 -0.022430
C18   C     C_R   0.630753 0.643936 0.136929 -0.100123
C19   C     C_R   0.704045 0.698540 0.064247 0.002449
C20   C     C_R   0.703579 0.700032 0.919632 -0.140244
C21   C     C_R   0.631831 0.644871 0.850385 -0.116732
C22   C     C_R   0.564926 0.570479 0.922040 0.155485
C23   C     C_R   0.946565 0.308570 0.378448 -0.126414
C24   C     C_R   0.564667 0.570354 0.071189 0.143506
C25   C     C_R   0.438475 0.432279 0.077413 -0.000093
C26   C     C_R   0.438468 0.432362 0.929596 -0.006066
C27   C     C_R   0.670861 0.500288 0.499539 0.536889
C28   C     C_R   0.815874 0.600078 0.555203 -0.145849
C29   C     C_R   0.767235 0.501883 0.497758 -0.006970
C30   C     C_R   0.810122 0.406620 0.435937 -0.128575
C31   C     C_R   0.902991 0.406370 0.435648 0.016597
C32   C     C_R   0.952983 0.505327 0.493962 0.049489
C33   C     C_R   0.534425 0.908992 0.236275 0.040059
C34   C     C_R   0.039511 0.307957 0.378862 -0.127248
C35   C     C_R   0.609279 0.955533 0.157816 -0.114376
C36   C     C_R   0.610012 0.949759 0.012819 -0.104049
C37   C     C_R   0.538106 0.892445 0.945024 -0.093920
C38   C     C_R   0.465194 0.841411 0.022036 -0.107695
C39   C     C_R   0.462034 0.852790 0.166051 -0.058326
C40   C     C_2   0.777042 0.761199 0.141575 0.219325
C41   C     C_R   0.920246 0.822354 0.643142 0.014318
C42   C     C_R   0.868429 0.889207 0.547639 -0.108010
C43   C     C_R   0.831682 0.999317 0.584950 -0.120720
C44   C     C_R   0.847382 0.044600 0.717066 -0.111775
C45   C     C_R   0.089853 0.404752 0.437261 0.017812
C46   C     C_R   0.900149 0.980084 0.811775 -0.085356
C47   C     C_R   0.936666 0.869496 0.775106 -0.076888
C48   C     C_R   0.046488 0.503706 0.495558 0.056230
C49   C     C_R   0.096797 0.600770 0.555494 0.001916
C50   C     C_R   0.054053 0.701443 0.607329 -0.131840
C51   C     C_R   0.960855 0.706825 0.602017 -0.005458
Cu1   Cu    Cu3+1 0.499990 0.499990 0.640660 0.908801
Cu2   Cu    Cu3+1 0.500010 0.500010 0.359340 0.916394
H1    H     H_    0.779851 0.671853 0.602562 0.102531
H2    H     H_    0.770933 0.331514 0.391219 0.106937
H3    H     H_    0.388028 0.376824 0.877482 0.106497
H4    H     H_    0.908700 0.232432 0.333669 0.111223
H5    H     H_    0.072018 0.231572 0.334110 0.112368
H6    H     H_    0.217148 0.329858 0.392800 0.103499
H7    H     H_    0.228658 0.671093 0.605369 0.097341
H8    H     H_    0.093665 0.778051 0.648115 0.109890
H9    H     H_    0.567962 0.130699 0.321761 0.140245
H10   H     H_    0.665522 0.001022 0.208387 0.100052
H11   H     H_    0.666991 0.988064 0.953191 0.126446
H12   H     H_    0.369464 0.210411 0.698118 0.131917
H13   H     H_    0.539834 0.885621 0.833148 0.134154
H14   H     H_    0.410383 0.794316 0.970376 0.117299
H15   H     H_    0.401852 0.821032 0.222163 0.123560
H16   H     H_    0.773483 0.763272 0.254233 0.086889
H17   H     H_    0.856926 0.856288 0.444163 0.116976
H18   H     H_    0.791482 0.049898 0.511141 0.105039
H19   H     H_    0.819109 0.130024 0.745739 0.116846
H20   H     H_    0.912773 0.015824 0.913705 0.143996
H21   H     H_    0.977286 0.820360 0.849649 0.138873
H22   H     H_    0.270488 0.082701 0.849080 0.108766
H23   H     H_    0.265303 0.855805 0.836978 0.105169
H24   H     H_    0.361114 0.756429 0.676938 0.145283
H25   H     H_    0.388095 0.376522 0.135293 0.118022
H26   H     H_    0.625782 0.665943 0.243453 0.171141
H27   H     H_    0.755678 0.750885 0.859810 0.162918
H28   H     H_    0.630320 0.667197 0.741687 0.177879
N1    N     N_R   0.500860 0.501210 0.147910 -0.243740
N2    N     N_R   0.500890 0.501290 0.852040 -0.241012
O1    O     O_R   0.499990 0.319640 0.618810 -0.500157
O2    O     O_R   0.500000 0.319660 0.381240 -0.501672
O3    O     O_R   0.370250 0.499960 0.618800 -0.516055
O4    O     O_R   0.370260 0.499980 0.381230 -0.501537
O5    O     O_R   0.500000 0.680340 0.618760 -0.532816
O6    O     O_R   0.500010 0.680360 0.381190 -0.516763
O7    O     O_R   0.629740 0.500020 0.618770 -0.506695
O8    O     O_R   0.629750 0.500040 0.381200 -0.518689
O9    O     O_2   0.842053 0.810218 0.081150 -0.542583

loop_
_geom_bond_atom_site_label_1
_geom_bond_atom_site_label_2
_ccdc_geom_bond_type
C26   N2    A    
C27   C29   S    
C41   C42   A    
Cu1   O7    S    
C19   C20   A    
C8    H23   S    
C7    C8    A    
C4    O4    A    
C1    O1    A    
C33   C39   A    
C12   C28   A    
C18   C24   A    
C36   C37   A    
C37   C38   A    
C30   C31   A    
C4    O3    A    
C10   C17   A    
C14   H9    S    
C42   H17   S    
C27   O7    A    
C23   H4    S    
C18   C19   A    
C39   H15   S    
Cu1   O1    S    
C24   N1    A    
C6    H12   S    
C35   C36   A    
C8    C9    A    
Cu2   O8    S    
C27   O8    A    
C9    C10   A    
C16   O6    A    
C21   C22   A    
C12   C32   A    
C32   C48   A    
C5    C49   A    
C44   C46   A    
C2    C45   A    
C1    O2    A    
C40   H16   S    
C20   H27   S    
C25   H25   S    
Cu1   O5    S    
C38   H14   S    
C19   C40   S    
C6    C11   A    
C28   H1    S    
C2    H6    S    
C18   H26   S    
C7    H22   S    
C25   C26   A    
Cu2   N1    S    
C23   C31   A    
Cu1   N2    S    
C43   C44   A    
C29   C30   A    
C31   C32   A    
C23   C34   A    
C37   H13   S    
C50   C51   A    
C41   C47   A    
Cu2   O4    S    
C34   C45   A    
C9    H24   S    
C40   O9    D    
C48   C49   A    
C21   H28   S    
Cu2   O6    S    
C25   N1    A    
C22   C24   A    
C1    C13   S    
C42   C43   A    
C3    C4    S    
C12   C51   A    
Cu1   Cu2   S    
C16   O5    A    
C45   C48   A    
C15   C17   A    
C46   C47   A    
C28   C29   A    
C43   H18   S    
C5    H7    S    
C47   H21   S    
C3    C5    A    
C26   H3    S    
Cu2   O2    S    
C6    C7    A    
C30   H2    S    
C22   N2    A    
Cu1   O3    S    
C2    C3    A    
C36   H11   S    
C11   C13   A    
C38   C39   A    
C33   C35   A    
C15   C33   S    
C44   H19   S    
C10   C11   A    
C20   C21   A    
C49   C50   A    
C34   H5    S    
C50   H8    S    
C14   C15   A    
C35   H10   S    
C13   C14   A    
C41   C51   S    
C46   H20   S    
C16   C17   S    
