data_mof_unit_8294.cif
_audit_creation_date              2012-10-26T20:33:19-0400
_audit_creation_method            fapswitch 2.2
_symmetry_space_group_name_H-M    P1
_symmetry_Int_Tables_number       1
_space_group_crystal_system       triclinic
_cell_length_a                    17.723844
_cell_length_b                    10.851806
_cell_length_c                    9.53921
_cell_angle_alpha                 89.432966
_cell_angle_beta                  90.180491
_cell_angle_gamma                 89.905684
_cell_volume                      1834.62925901

loop_
_atom_site_label
_atom_site_type_symbol
_atom_type_description
_atom_site_fract_x
_atom_site_fract_y
_atom_site_fract_z
_atom_type_partial_charge
C1    C     C_R   0.499157 0.262522 0.500476 0.552391
C2    C     C_R   0.113755 0.514490 0.503970 -0.006725
C3    C     C_R   0.525046 0.061941 0.615209 0.004175
C4    C     C_R   0.355386 0.501051 0.499537 0.548330
C5    C     C_R   0.499913 0.129492 0.499240 -0.042669
C6    C     C_R   0.478295 0.067491 0.377300 -0.147502
C7    C     C_R   0.477161 0.938769 0.374277 0.104200
C8    C     C_R   0.498761 0.871248 0.495646 0.017382
C9    C     C_R   0.523866 0.934507 0.613525 -0.076469
C10   C     C_3   0.496118 0.923583 0.760986 -0.244434
C11   C     C_3   0.496389 0.063456 0.763820 0.176892
C12   C     C_R   0.884842 0.516411 0.502370 -0.055368
C13   C     C_R   0.537569 0.589254 0.072518 0.129804
C14   C     C_R   0.456386 0.420069 0.075806 0.017607
C15   C     C_R   0.454572 0.421121 0.925163 0.400959
C16   C     C_R   0.498026 0.737636 0.499010 0.549570
C17   C     C_R   0.537384 0.589464 0.925340 0.090742
C18   C     C_3   0.619425 0.617266 0.918011 -0.293269
C19   C     C_3   0.620084 0.615759 0.076851 -0.240116
C20   C     C_R   0.644294 0.501088 0.500539 0.589172
C21   C     C_R   0.847847 0.436913 0.594853 -0.123297
C22   C     C_R   0.768458 0.434146 0.599822 0.225839
C23   C     C_1   0.965392 0.518278 0.500866 -0.031622
C24   C     C_R   0.727107 0.507201 0.503148 0.031834
C25   C     C_R   0.765040 0.591249 0.414259 0.213366
C26   C     C_R   0.843835 0.593813 0.412862 -0.110704
C27   C     C_3   0.485180 0.895824 0.126264 -0.285090
C28   C     C_3   0.622166 0.104822 0.838985 -0.093436
C29   C     C_3   0.341012 0.314831 0.909853 -0.149879
C30   C     C_3   0.761214 0.354548 0.826036 -0.148149
C31   C     C_3   0.710579 0.779975 0.401007 -0.125468
C32   C     C_3   0.128891 0.618378 0.848893 -0.312045
C33   C     C_3   0.268617 0.622657 0.182571 -0.116013
C34   C     C_1   0.033027 0.517514 0.501844 -0.030555
C35   C     C_R   0.154443 0.512611 0.631174 0.142687
C36   C     C_R   0.233299 0.507634 0.626817 -0.150245
C37   C     C_R   0.272075 0.505813 0.498547 -0.019906
C38   C     C_R   0.230519 0.510683 0.371659 0.256866
C39   C     C_R   0.151690 0.512967 0.375979 -0.124116
Cu1   Cu    Cu3+1 0.500000 0.499980 0.640670 1.012322
Cu2   Cu    Cu3+1 0.500000 0.500020 0.359330 0.980548
H1    H     H_    0.881042 0.376716 0.662148 0.116480
H2    H     H_    0.872788 0.656803 0.342536 0.132189
H3    H     H_    0.264286 0.503718 0.724694 0.145422
H4    H     H_    0.120016 0.512996 0.278526 0.122722
H5    H     H_    0.458335 0.118837 0.286483 0.139641
H6    H     H_    0.388026 0.895143 0.245992 0.229916
H7    H     H_    0.477836 0.991620 0.086622 0.170580
H8    H     H_    0.462108 0.831662 0.047170 0.130095
H9    H     H_    0.546180 0.876042 0.140862 0.156379
H10   H     H_    0.637402 0.169018 0.752350 0.190288
H11   H     H_    0.639678 0.009336 0.813603 0.095495
H12   H     H_    0.438455 0.883688 0.767507 0.099843
H13   H     H_    0.654315 0.132156 0.933526 0.123513
H14   H     H_    0.303031 0.277946 0.827749 0.139137
H15   H     H_    0.314303 0.400372 0.950330 0.126457
H16   H     H_    0.345552 0.243327 0.993571 0.110550
H17   H     H_    0.782557 0.446747 0.857932 0.109688
H18   H     H_    0.806632 0.284238 0.834470 0.115791
H19   H     H_    0.716590 0.328852 0.901942 0.131207
H20   H     H_    0.763841 0.828136 0.429101 0.113266
H21   H     H_    0.676379 0.761811 0.496696 0.112151
H22   H     H_    0.677274 0.842850 0.332300 0.135224
H23   H     H_    0.538118 0.878698 0.831326 0.139114
H24   H     H_    0.061922 0.481527 0.762682 0.255509
H25   H     H_    0.100100 0.605695 0.951253 0.136925
H26   H     H_    0.105020 0.701129 0.795302 0.142813
H27   H     H_    0.189869 0.632905 0.869833 0.139699
H28   H     H_    0.298060 0.689010 0.252233 0.127353
H29   H     H_    0.211029 0.656755 0.156185 0.092954
H30   H     H_    0.301086 0.618031 0.083498 0.125635
H31   H     H_    0.438444 0.102290 0.770527 0.161461
H32   H     H_    0.424204 0.353217 0.135085 0.129820
H33   H     H_    0.652701 0.541124 0.872309 0.175325
H34   H     H_    0.630679 0.709812 0.871871 0.113514
H35   H     H_    0.653715 0.538178 0.121567 0.184309
H36   H     H_    0.632254 0.707594 0.121546 0.163719
N1    N     N_R   0.500470 0.500930 0.147930 -0.260952
N2    N     N_R   0.500480 0.500890 0.852020 -0.213978
N3    N     N_2   0.445082 0.878550 0.256576 -0.497392
N4    N     N_2   0.117291 0.510396 0.763737 -0.512544
O1    O     O_R   0.500000 0.319640 0.618810 -0.427561
O2    O     O_3   0.412285 0.337136 0.849129 -0.531937
O3    O     O_3   0.729737 0.354872 0.689630 -0.574099
O4    O     O_3   0.725432 0.670636 0.327167 -0.585698
O5    O     O_3   0.266172 0.503676 0.243196 -0.558479
O6    O     O_R   0.500010 0.319680 0.381230 -0.524888
O7    O     O_R   0.391250 0.499990 0.618840 -0.491758
O8    O     O_R   0.391260 0.500020 0.381250 -0.458336
O9    O     O_R   0.499990 0.680320 0.618770 -0.526553
O10   O     O_R   0.500000 0.680360 0.381190 -0.463269
O11   O     O_R   0.608740 0.499980 0.618750 -0.483840
O12   O     O_R   0.608750 0.500010 0.381160 -0.482971
O13   O     O_3   0.544328 0.113659 0.869210 -0.557530

loop_
_geom_bond_atom_site_label_1
_geom_bond_atom_site_label_2
_ccdc_geom_bond_type
C2    C35   A    
C1    O6    A    
Cu2   O8    S    
C20   O12   A    
C16   O9    A    
C18   H34   S    
C31   O4    S    
C31   H20   S    
C35   C36   A    
C35   N4    S    
C7    C8    A    
C32   N4    S    
C20   O11   A    
C12   C23   S    
C38   O5    S    
C1    C5    S    
C36   C37   A    
C29   O2    S    
C38   C39   A    
C28   H10   S    
C17   N2    A    
C28   O13   S    
C18   C19   S    
C19   H36   S    
C10   H12   S    
C2    C39   A    
Cu2   O12   S    
C20   C24   S    
C8    C9    A    
C30   H19   S    
C9    C10   S    
C27   H9    S    
C33   H28   S    
C32   H27   S    
C2    C34   S    
C8    C16   S    
C21   C22   A    
C31   H21   S    
H6    N3    S    
C26   H2    S    
Cu2   O6    S    
C15   N2    A    
C13   C19   S    
C14   H32   S    
C31   H22   S    
C24   C25   A    
C27   N3    S    
Cu2   N1    S    
C28   H13   S    
C11   H31   S    
C39   H4    S    
C15   O2    S    
C29   H14   S    
C1    O1    A    
C12   C21   A    
C12   C26   A    
C22   O3    S    
C33   O5    S    
C37   C38   A    
C3    C9    A    
Cu1   O1    S    
H24   N4    S    
C23   C34   T    
C30   H18   S    
C25   O4    S    
C17   C18   S    
Cu1   N2    S    
Cu1   O11   S    
C33   H29   S    
C32   H26   S    
C11   O13   S    
Cu1   Cu2   S    
Cu2   O10   S    
C29   H16   S    
C22   C24   A    
C36   H3    S    
C32   H25   S    
C4    O8    A    
C13   N1    A    
C19   H35   S    
C6    H5    S    
C10   H23   S    
C3    C5    A    
C6    C7    A    
C4    O7    A    
C29   H15   S    
C13   C17   A    
Cu1   O7    S    
C25   C26   A    
C28   H11   S    
C5    C6    A    
C30   H17   S    
C14   N1    A    
C27   H7    S    
C30   O3    S    
C3    C11   S    
C10   C11   S    
C33   H30   S    
C21   H1    S    
C4    C37   S    
C16   O10   A    
C18   H33   S    
C14   C15   A    
Cu1   O9    S    
C27   H8    S    
C7    N3    S    
