data_mof_unit_48828.cif
_audit_creation_date              2012-10-26T21:02:55-0400
_audit_creation_method            fapswitch 2.2
_symmetry_space_group_name_H-M    P1
_symmetry_Int_Tables_number       1
_space_group_crystal_system       triclinic
_cell_length_a                    12.390423
_cell_length_b                    13.182428
_cell_length_c                    23.473273
_cell_angle_alpha                 76.158476
_cell_angle_beta                  100.424359
_cell_angle_gamma                 116.794722
_cell_volume                      3311.13909086

loop_
_atom_site_label
_atom_site_type_symbol
_atom_type_description
_atom_site_fract_x
_atom_site_fract_y
_atom_site_fract_z
_atom_type_partial_charge
C1    C     C_R   0.855406 0.286652 0.504516 0.531817
C2    C     C_R   0.082151 0.588433 0.876540 0.407070
C3    C     C_R   0.903023 0.510409 0.750251 -0.057121
C4    C     C_R   0.999119 0.499488 0.608846 0.548219
C5    C     C_R   0.903897 0.511180 0.690816 -0.151047
C6    C     C_R   0.997713 0.498997 0.671463 0.002183
C7    C     C_R   0.090375 0.486018 0.712584 -0.143585
C8    C     C_R   0.089395 0.485555 0.771866 -0.062989
C9    C     C_R   0.995853 0.497734 0.790890 0.241079
C10   C     C_R   0.029893 0.414786 0.254888 -0.070490
C11   C     C_R   0.030452 0.417068 0.313995 -0.155446
C12   C     C_R   0.823300 0.301707 0.038511 0.127758
C13   C     C_R   0.997914 0.495389 0.329459 0.002174
C14   C     C_R   0.962263 0.569632 0.285249 -0.149923
C15   C     C_R   0.962070 0.567505 0.226176 -0.057559
C16   C     C_R   0.145031 0.714159 0.491980 0.553420
C17   C     C_R   0.996332 0.490431 0.210851 0.241771
C18   C     C_R   0.280909 0.035070 0.431003 -0.118047
C19   C     C_R   0.229030 0.837979 0.481738 0.018233
C20   C     C_R   0.815211 0.081095 0.538058 -0.136020
C21   C     C_R   0.735881 0.964910 0.548693 -0.144863
C22   C     C_R   0.613298 0.929187 0.530043 -0.121558
C23   C     C_R   0.823508 0.306686 0.978340 -0.118316
C24   C     C_R   0.568070 0.009143 0.496962 0.040635
C25   C     C_R   0.652344 0.125590 0.480288 0.025275
C26   C     C_R   0.442204 0.978131 0.480217 0.018674
C27   C     C_R   0.404448 0.061498 0.444493 0.025991
C28   C     C_R   0.999747 0.498974 0.391440 0.538713
C29   C     C_R   0.490388 0.170514 0.422198 -0.135158
C30   C     C_R   0.612642 0.201052 0.438493 -0.115108
C31   C     C_R   0.352403 0.867310 0.498492 -0.172277
C32   C     C_R   0.192431 0.924685 0.450654 0.128848
C33   C     C_R   0.774101 0.163084 0.505747 -0.003701
C34   C     C_R   0.910161 0.401095 0.944545 0.003219
C35   C     C_R   0.342803 0.326219 0.595983 -0.154197
C36   C     C_R   0.773979 0.662573 0.429206 0.054583
C37   C     C_R   0.706474 0.721721 0.430944 -0.167312
C38   C     C_R   0.611711 0.670521 0.467263 -0.137026
C39   C     C_R   0.571098 0.553741 0.494617 -0.009211
C40   C     C_R   0.084844 0.580086 0.118038 0.394296
C41   C     C_R   0.656104 0.506609 0.500751 0.173130
C42   C     C_R   0.457709 0.487228 0.521620 0.000021
C43   C     C_R   0.447956 0.390276 0.565954 0.022631
C44   C     C_R   0.542563 0.356197 0.579082 -0.173815
C45   C     C_R   0.999079 0.493022 0.971193 -0.069454
C46   C     C_R   0.642988 0.411155 0.546111 -0.102689
C47   C     C_R   0.349426 0.504517 0.502631 0.143552
C48   C     C_R   0.243984 0.353418 0.580045 0.030275
C49   C     C_R   0.910589 0.398423 0.125553 0.407386
C50   C     C_R   0.909972 0.395114 0.065744 0.052433
C51   C     C_R   0.998626 0.490093 0.031777 -0.069552
C52   C     C_R   0.086700 0.582669 0.058249 0.003486
C53   C     C_3   0.777631 0.112724 0.096887 -0.264883
C54   C     C_3   0.019241 0.916311 0.486948 -0.288629
C55   C     C_3   0.341649 0.579588 0.442556 -0.198974
C56   C     C_R   0.087928 0.587876 0.937281 0.053082
C57   C     C_3   0.337025 0.522344 0.391771 -0.307534
C58   C     C_3   0.336096 0.600388 0.332171 -0.433589
C59   C     C_3   0.379506 0.753681 0.935138 -0.262178
C60   C     C_R   0.178092 0.678728 0.965139 0.127768
C61   C     C_R   0.175275 0.675660 0.024821 -0.118543
C62   C     C_R   0.910635 0.404770 0.884465 0.397325
Cu1   Cu    Cu3+1 0.098270 0.475410 0.513370 0.904956
Cu2   Cu    Cu3+1 0.901730 0.524590 0.486630 0.919379
H1    H     H_    0.054969 0.357015 0.347559 0.116354
H2    H     H_    0.755983 0.234764 0.958353 0.157913
H3    H     H_    0.675231 0.284219 0.417123 0.157333
H4    H     H_    0.163455 0.304485 0.603755 0.124119
H5    H     H_    0.536964 0.283449 0.613817 0.122127
H6    H     H_    0.336473 0.254191 0.631295 0.104404
H7    H     H_    0.852533 0.704874 0.404011 0.146259
H8    H     H_    0.578759 0.726134 0.477806 0.107787
H9    H     H_    0.732777 0.809718 0.407602 0.105376
H10   H     H_    0.710887 0.379597 0.559657 0.181979
H11   H     H_    0.244465 0.746364 0.045107 0.157942
H12   H     H_    0.936366 0.630304 0.296424 0.119513
H13   H     H_    0.830537 0.520008 0.764763 0.129420
H14   H     H_    0.831122 0.520988 0.660171 0.130803
H15   H     H_    0.163845 0.476483 0.699031 0.133077
H16   H     H_    0.161221 0.475481 0.803170 0.122130
H17   H     H_    0.055835 0.354639 0.243225 0.117518
H18   H     H_    0.651898 0.168615 0.048040 0.244657
H19   H     H_    0.793094 0.078216 0.061822 0.121113
H20   H     H_    0.707895 0.040902 0.124432 0.152994
H21   H     H_    0.863215 0.147809 0.125384 0.174869
H22   H     H_    0.048163 0.946970 0.399208 0.235379
H23   H     H_    0.935536 0.625762 0.192243 0.126337
H24   H     H_    0.067531 0.006963 0.494540 0.132055
H25   H     H_    0.028401 0.856947 0.528033 0.173470
H26   H     H_    0.921614 0.895753 0.475791 0.138658
H27   H     H_    0.259638 0.625108 0.326254 0.171877
H28   H     H_    0.422727 0.679927 0.328927 0.159875
H29   H     H_    0.325781 0.554079 0.296338 0.160402
H30   H     H_    0.416858 0.502861 0.396566 0.164215
H31   H     H_    0.254619 0.439302 0.392842 0.171124
H32   H     H_    0.267977 0.604324 0.435652 0.211867
H33   H     H_    0.411631 0.667886 0.437378 0.092613
H34   H     H_    0.463004 0.232864 0.392152 0.108293
H35   H     H_    0.295372 0.851430 0.945774 0.245164
H36   H     H_    0.446152 0.827776 0.907037 0.157327
H37   H     H_    0.354864 0.673977 0.917736 0.176598
H38   H     H_    0.422459 0.745405 0.980844 0.119907
H39   H     H_    0.252852 0.100749 0.405531 0.100034
H40   H     H_    0.376131 0.801034 0.525715 0.128526
H41   H     H_    0.908334 0.107053 0.556740 0.126995
H42   H     H_    0.557244 0.838192 0.541824 0.097728
H43   H     H_    0.768729 0.902415 0.573655 0.119167
N1    N     N_R   0.997480 0.489399 0.150082 -0.404998
N2    N     N_R   0.995624 0.497280 0.851990 -0.405118
N3    N     N_R   0.246280 0.438190 0.533650 -0.229631
N4    N     N_R   0.754320 0.561190 0.466710 -0.239627
N5    N     N_2   0.736003 0.201428 0.070971 -0.454596
N6    N     N_2   0.067825 0.902514 0.439140 -0.508134
N7    N     N_2   0.273229 0.773268 0.934109 -0.455089
O1    O     O_R   0.972510 0.318130 0.516820 -0.501332
O2    O     O_R   0.082990 0.479280 0.429170 -0.523053
O3    O     O_R   0.917010 0.520800 0.406580 -0.504902
O4    O     O_2   0.169846 0.667478 0.144160 -0.511688
O5    O     O_2   0.824272 0.313152 0.158927 -0.464724
O6    O     O_2   0.827341 0.316164 0.858643 -0.504959
O7    O     O_2   0.160661 0.679529 0.841781 -0.463991
O8    O     O_R   0.806530 0.359650 0.494230 -0.527658
O9    O     O_R   0.082990 0.479200 0.593420 -0.498203
O10   O     O_R   0.917010 0.520720 0.570830 -0.516403
O11   O     O_R   0.193470 0.640350 0.505770 -0.534270
O12   O     O_R   0.027490 0.681870 0.483180 -0.465508

loop_
_geom_bond_atom_site_label_1
_geom_bond_atom_site_label_2
_ccdc_geom_bond_type
C48   N3    A    
C2    N2    A    
C40   C52   A    
C27   C29   A    
C60   N7    S    
C12   N5    S    
C19   C31   A    
H35   N7    S    
C1    C33   S    
C7    C8    A    
C39   C41   A    
C49   O5    S    
C61   H11   S    
C12   C23   A    
C26   C27   A    
C29   C30   A    
C29   H34   S    
C53   H20   S    
C23   H2    S    
C15   H23   S    
C36   C37   A    
C58   H29   S    
C24   C26   A    
C40   O4    S    
C54   H26   S    
C28   O3    A    
C16   C19   S    
C38   C39   A    
C35   C48   A    
C10   C17   A    
C54   N6    S    
C34   C62   A    
C4    O10   A    
C1    O8    A    
C28   O2    A    
C45   C56   A    
C8    C9    A    
C41   C46   A    
C13   C28   S    
C32   N6    S    
C39   C42   A    
C35   C43   A    
C16   O11   A    
C62   O6    S    
C30   H3    S    
C36   H7    S    
C40   N1    A    
Cu1   O1    S    
C47   C55   S    
C26   C31   A    
C21   C22   A    
C59   H36   S    
C19   C32   A    
C44   C46   A    
C49   N1    A    
C9    N2    S    
C38   H8    S    
C51   C52   A    
C59   H37   S    
C24   C25   A    
C35   H6    S    
C54   H25   S    
C4    C6    S    
C17   N1    S    
Cu2   N4    S    
C22   H42   S    
Cu2   O3    S    
C56   C60   A    
C4    O9    A    
C60   C61   A    
C14   H12   S    
C43   C44   A    
C37   C38   A    
C3    C9    A    
Cu1   O9    S    
C23   C34   A    
C55   H33   S    
C36   N4    A    
C50   C51   A    
C44   H5    S    
C34   C45   A    
C21   H43   S    
C48   H4    S    
Cu1   O11   S    
H22   N6    S    
C20   C33   A    
C53   N5    S    
Cu2   O12   S    
C57   H30   S    
C55   C57   S    
C41   N4    A    
Cu2   O10   S    
C18   C32   A    
C42   C43   A    
Cu1   O2    S    
C3    H13   S    
C46   H10   S    
C7    H15   S    
C20   H41   S    
C58   H27   S    
C2    O7    S    
C25   C30   A    
C15   C17   A    
C37   H9    S    
C59   H38   S    
C18   C27   A    
C55   H32   S    
C3    C5    A    
C12   C50   A    
C6    C7    A    
C47   N3    A    
C10   H17   S    
C53   H19   S    
C52   C61   A    
C31   H40   S    
Cu1   N3    S    
C2    C56   A    
C54   H24   S    
C18   H39   S    
C11   C13   A    
C57   C58   S    
C5    C6    A    
C62   N2    A    
C58   H28   S    
C59   N7    S    
Cu2   O8    S    
C22   C24   A    
C42   C47   A    
C10   C11   A    
Cu1   Cu2   S    
C20   C21   A    
C49   C50   A    
C57   H31   S    
C25   C33   A    
C8    H16   S    
C45   C51   A    
C14   C15   A    
C53   H21   S    
C1    O1    A    
C5    H14   S    
C13   C14   A    
C16   O12   A    
C11   H1    S    
H18   N5    S    
