data_mof_unit_31610.cif
_audit_creation_date              2013-03-05T15:49:56-0500
_audit_creation_method            fapswitch 2.2
_symmetry_space_group_name_H-M    P1
_symmetry_Int_Tables_number       1
_space_group_crystal_system       triclinic
_cell_length_a                    6.934109
_cell_length_b                    19.784061
_cell_length_c                    23.900954
_cell_angle_alpha                 93.573188
_cell_angle_beta                  91.781903
_cell_angle_gamma                 88.255041
_cell_volume                      3269.55558607

loop_
_atom_site_label
_atom_site_type_symbol
_atom_site_description
_atom_site_fract_x
_atom_site_fract_y
_atom_site_fract_z
_atom_type_partial_charge
O1    O     O_R   0.620100 0.812200 0.810870 -0.599511
O2    O     O_R   0.379900 0.187800 0.189130 -0.600715
O3    O     O_R   0.296960 0.671650 0.794750 -0.562878
O4    O     O_R   0.703040 0.328350 0.205250 -0.561599
O5    O     O_R   0.120160 0.687800 0.689130 -0.579271
O6    O     O_R   0.879840 0.312200 0.310870 -0.580158
C1    C     C_R   0.470394 0.646262 0.804407 0.978576
C2    C     C_R   0.529359 0.352971 0.194834 0.978201
O7    O     O_R   0.290810 0.810670 0.817290 -0.604728
O8    O     O_R   0.709190 0.189330 0.182710 -0.604825
O9    O     O_R   0.113980 0.827820 0.711840 -0.593348
O10   O     O_R   0.886020 0.172180 0.288160 -0.592624
C3    C     C_R   0.459726 0.832001 0.834169 0.942924
C4    C     C_R   0.540227 0.168179 0.165705 0.939527
O11   O     O_R   0.626290 0.672180 0.788160 -0.591539
O12   O     O_R   0.373710 0.327820 0.211840 -0.586121
O13   O     O_3   0.451520 0.755460 0.715370 -0.275115
O14   O     O_3   0.548480 0.244540 0.284630 -0.275236
V1    V     V_3+5 0.179200 0.748980 0.756420 1.197609
V2    V     V_3+5 0.820800 0.251020 0.243580 1.200831
O15   O     O_R   0.783880 0.828350 0.705250 -0.595887
O16   O     O_R   0.216120 0.171650 0.294750 -0.594352
C5    C     C_R   0.949971 0.852595 0.694391 0.913941
C6    C     C_R   0.050257 0.148119 0.306393 0.913410
O17   O     O_R   0.790030 0.689320 0.682700 -0.595684
O18   O     O_R   0.209970 0.310680 0.317300 -0.594625
C7    C     C_R   0.958884 0.668064 0.665927 1.043415
C8    C     C_R   0.041138 0.332092 0.333950 1.044166
V3    V     V_3+5 0.678400 0.751010 0.743570 1.186402
V4    V     V_3+5 0.321600 0.248990 0.256430 1.191190
O19   O     O_3   0.955950 0.744540 0.784620 -0.270308
O20   O     O_3   0.044050 0.255460 0.215380 -0.270262
C9    C     C_R   0.001294 0.452590 0.373949 0.275470
C10   C     C_R   0.998561 0.547760 0.625592 0.276150
C11   C     C_R   0.029870 0.382804 0.382137 -0.287751
C12   C     C_R   0.970347 0.617570 0.617567 -0.288201
C13   C     C_R   0.050436 0.361100 0.436518 -0.275913
C14   C     C_R   0.951034 0.639458 0.563180 -0.276033
C15   C     C_R   0.043772 0.407761 0.483090 0.179918
C16   C     C_R   0.958290 0.592889 0.516505 0.179526
C17   C     C_R   0.005333 0.477149 0.475846 0.014848
C18   C     C_R   0.996829 0.523504 0.523688 0.013949
C19   C     C_R   0.976049 0.500066 0.420913 -0.051663
C20   C     C_R   0.025800 0.500537 0.578598 -0.050670
C21   C     C_R   0.080396 0.385625 0.536801 -0.253482
C22   C     C_R   0.922364 0.615069 0.462758 -0.253659
C23   C     C_R   0.078798 0.430958 0.584279 0.019758
C24   C     C_R   0.924302 0.569766 0.415255 0.010884
H1    H     H_    0.076483 0.307621 0.442433 0.130660
H2    H     H_    0.925237 0.692961 0.557335 0.131819
H3    H     H_    0.119273 0.332720 0.541623 0.176869
H4    H     H_    0.883704 0.667971 0.457900 0.179414
C25   C     C_R   0.956156 0.915550 0.664180 -0.105276
C26   C     C_R   0.048725 0.086715 0.338669 -0.104031
C27   C     C_R   0.049154 0.033179 0.666979 0.046960
C28   C     C_R   0.073478 0.964035 0.339120 0.070140
C29   C     C_R   0.014249 0.974247 0.694014 -0.226800
C30   C     C_R   0.083644 0.023866 0.311076 -0.222402
C31   C     C_R   0.937691 0.914707 0.605542 -0.208264
C32   C     C_R   0.018422 0.090658 0.396643 -0.204875
C33   C     C_R   0.972203 0.973421 0.575713 0.114699
C34   C     C_R   0.012223 0.031139 0.427326 0.116349
C35   C     C_R   0.015497 0.034854 0.607701 -0.079809
C36   C     C_R   0.018327 0.967224 0.396381 -0.075952
C37   C     C_R   0.972891 0.972271 0.515285 0.023521
C38   C     C_R   0.001461 0.032965 0.487532 0.021546
C39   C     C_R   0.024439 0.093453 0.520845 -0.298454
C40   C     C_R   0.948698 0.911965 0.481636 -0.308815
C41   C     C_R   0.027830 0.095407 0.579350 0.335137
C42   C     C_R   0.968368 0.908847 0.423552 0.322153
H5    H     H_    0.996130 0.140741 0.416212 0.096930
H6    H     H_    0.901013 0.866797 0.584773 0.097493
H7    H     H_    0.122373 0.021683 0.267361 0.107828
H8    H     H_    0.043718 0.972770 0.738804 0.108989
H9    H     H_    0.042614 0.141071 0.502453 0.168929
H10   H     H_    0.912792 0.865405 0.499172 0.171943
C43   C     C_R   0.501823 0.583070 0.834635 -0.164427
C44   C     C_R   0.496357 0.413307 0.161437 -0.157082
C45   C     C_R   0.711798 0.483489 0.845954 0.379823
C46   C     C_R   0.297684 0.515190 0.149534 0.410865
C47   C     C_R   0.642622 0.536579 0.814554 -0.254310
C48   C     C_R   0.375564 0.465424 0.183185 -0.237374
C49   C     C_R   0.427013 0.575214 0.887653 -0.133746
C50   C     C_R   0.549323 0.413490 0.105258 -0.153820
C51   C     C_R   0.490822 0.520430 0.920746 0.125388
C52   C     C_R   0.467250 0.462164 0.068773 0.120161
C53   C     C_R   0.630714 0.472768 0.898243 -0.181563
C54   C     C_R   0.328816 0.510542 0.091060 -0.171422
C55   C     C_R   0.427886 0.513801 0.976700 0.063035
C56   C     C_R   0.514409 0.463498 0.010739 0.072671
C57   C     C_R   0.640015 0.414704 0.985104 -0.284906
C58   C     C_R   0.275294 0.554247 0.998787 -0.288286
C59   C     C_R   0.689962 0.416694 0.929290 0.377355
C60   C     C_R   0.220634 0.551429 0.054095 0.374471
H11   H     H_    0.646004 0.372914 0.090958 0.110637
H12   H     H_    0.331379 0.615366 0.903598 0.111236
H13   H     H_    0.340090 0.466765 0.226938 0.198161
H14   H     H_    0.710672 0.544856 0.775599 0.216133
H15   H     H_    0.694910 0.371629 0.006536 0.162181
H16   H     H_    0.185954 0.585535 0.972532 0.170360
C61   C     C_R   0.685569 0.074056 0.103788 -0.246863
C62   C     C_R   0.314837 0.926709 0.895637 -0.247397
C63   C     C_R   0.529410 0.119142 0.116113 -0.139392
C64   C     C_R   0.470669 0.881383 0.883521 -0.140274
C65   C     C_R   0.361814 0.116507 0.081280 -0.243519
C66   C     C_R   0.638461 0.884205 0.918250 -0.239913
C67   C     C_R   0.350223 0.070041 0.034427 0.145162
C68   C     C_R   0.650400 0.930920 0.964907 0.144966
C69   C     C_R   0.506301 0.024348 0.022906 0.031756
C70   C     C_R   0.494402 0.976667 0.976372 0.030687
C71   C     C_R   0.674114 0.026161 0.057905 0.149519
C72   C     C_R   0.326581 0.974828 0.941374 0.149847
C73   C     C_R   0.185279 0.068418 0.998831 -0.197189
C74   C     C_R   0.815568 0.932669 0.000400 -0.196350
C75   C     C_R   0.173732 0.021346 0.952684 -0.208215
C76   C     C_R   0.827181 0.979772 0.046510 -0.209576
H17   H     H_    0.814669 0.075351 0.130585 0.133405
H18   H     H_    0.185746 0.925362 0.868837 0.132010
H19   H     H_    0.241169 0.151237 0.090251 0.143667
H20   H     H_    0.758987 0.849385 0.909376 0.144223
H21   H     H_    0.064376 0.103296 0.006893 0.150778
H22   H     H_    0.936500 0.897807 0.992328 0.149483
H23   H     H_    0.044329 0.020994 0.926062 0.142720
H24   H     H_    0.956677 0.980172 0.073094 0.141741
N1    N     N_R   0.030254 0.475813 0.319394 0.225504
O21   O     O_R   0.931193 0.451729 0.275901 -0.390184
O22   O     O_R   0.173433 0.515111 0.312504 -0.442355
N2    N     N_R   0.965474 0.524096 0.679757 0.219825
O23   O     O_R   0.062436 0.547349 0.723952 -0.409373
O24   O     O_R   0.821952 0.484546 0.685417 -0.433895
N3    N     N_R   0.789969 0.358503 0.903912 0.256396
O25   O     O_R   0.932683 0.329510 0.930828 -0.383135
O26   O     O_R   0.716473 0.327393 0.858992 -0.402434
N4    N     N_R   0.041527 0.584700 0.069894 0.260116
O27   O     O_R   0.997830 0.644926 0.053501 -0.375731
O28   O     O_R   0.907868 0.550182 0.091144 -0.369866
N5    N     N_R   0.883012 0.447429 0.827717 0.265735
O29   O     O_R   0.884172 0.414412 0.779038 -0.346613
O30   O     O_R   0.042833 0.452756 0.857465 -0.375118
N6    N     N_R   0.195177 0.571893 0.175937 0.241451
O31   O     O_R   0.058333 0.562378 0.210262 -0.309696
O32   O     O_R   0.244117 0.633314 0.167564 -0.432816
C77   C     C_R   0.154705 0.404228 0.637479 0.102756
C78   C     C_R   0.068585 0.348751 0.659652 0.025450
C79   C     C_R   0.144530 0.322061 0.708719 0.032400
C80   C     C_R   0.306067 0.350728 0.736158 -0.065932
C81   C     C_R   0.393617 0.405440 0.714072 -0.011246
C82   C     C_R   0.319664 0.431822 0.664649 -0.098948
H25   H     H_    0.942043 0.326574 0.639125 0.154648
H26   H     H_    0.076279 0.279785 0.725828 0.157272
H27   H     H_    0.363181 0.330763 0.774598 0.152554
H28   H     H_    0.518880 0.427326 0.735228 0.177324
H29   H     H_    0.390131 0.473845 0.647683 0.136769
C83   C     C_R   0.850089 0.596772 0.362027 0.121593
C84   C     C_R   0.678808 0.572319 0.336297 -0.106069
C85   C     C_R   0.605940 0.599273 0.286963 -0.049889
C86   C     C_R   0.702276 0.651007 0.263294 -0.076726
C87   C     C_R   0.870472 0.676468 0.289245 0.016519
C88   C     C_R   0.944623 0.649481 0.338391 0.005516
H30   H     H_    0.602178 0.532498 0.354441 0.137048
H31   H     H_    0.474635 0.580225 0.267149 0.170604
H32   H     H_    0.646992 0.671301 0.224791 0.147859
H33   H     H_    0.943929 0.716784 0.271041 0.144539
H34   H     H_    0.076485 0.669078 0.357730 0.139586
N7    N     N_R   0.030718 0.160750 0.608945 0.228046
O33   O     O_R   0.150007 0.205780 0.594741 -0.451126
O34   O     O_R   0.891764 0.179354 0.642394 -0.450980
N8    N     N_R   0.918502 0.847037 0.392469 0.228467
O35   O     O_R   0.969169 0.788907 0.411849 -0.471261
O36   O     O_R   0.794819 0.848623 0.350475 -0.448590
C89   C     C_R   0.151861 0.086574 0.701506 0.153258
C90   C     C_R   0.071635 0.115065 0.751231 -0.108289
C91   C     C_R   0.176906 0.160313 0.786572 -0.111934
C92   C     C_R   0.363083 0.177168 0.772769 -0.141529
C93   C     C_R   0.443765 0.149274 0.723380 -0.078216
C94   C     C_R   0.339311 0.103848 0.687972 -0.092339
H35   H     H_    0.928508 0.101689 0.762789 0.112868
H36   H     H_    0.114615 0.181999 0.824841 0.161297
H37   H     H_    0.445039 0.211725 0.800417 0.161095
H38   H     H_    0.588243 0.162185 0.712929 0.168194
H39   H     H_    0.405492 0.081271 0.650546 0.120130
C95   C     C_R   0.145877 0.900714 0.309037 0.136040
C96   C     C_R   0.076396 0.882064 0.254494 -0.109548
C97   C     C_R   0.150903 0.824051 0.225460 -0.104816
C98   C     C_R   0.294727 0.784189 0.250574 -0.123650
C99   C     C_R   0.364475 0.802114 0.304715 -0.059706
C100  C     C_R   0.292222 0.860543 0.333677 -0.060566
H40   H     H_    0.964256 0.912301 0.234580 0.116935
H41   H     H_    0.096728 0.809859 0.183544 0.154823
H42   H     H_    0.351917 0.739380 0.228103 0.171186
H43   H     H_    0.475387 0.770929 0.324093 0.156901
H44   H     H_    0.350406 0.874537 0.375227 0.123816

loop_
_geom_bond_atom_site_label_1
_geom_bond_atom_site_label_2
_geom_bond_distance
_ccdc_geom_bond_type
C90   H35   1.083269 S    
V4    O20   2.136859 S    
C89   C90   1.406461 A    
N7    O33   1.301221 A    
C22   H4    1.084824 S    
O13   V3    1.694120 S    
C17   C18   1.422053 A    
C58   C60   1.391347 A    
C62   C72   1.406182 A    
C81   C82   1.397731 A    
O4    C2    1.307818 A    
V1    O19   1.714343 S    
N2    O23   1.301367 A    
C92   H37   1.082150 S    
C45   C53   1.416685 A    
C79   C80   1.397524 A    
C25   C31   1.402487 A    
C39   H9    1.076542 S    
C98   H42   1.078916 S    
C15   C17   1.410667 A    
C26   C32   1.404944 A    
C91   C92   1.397514 A    
C16   C22   1.395894 A    
N5    O30   1.301376 A    
O9    V1    1.976602 S    
C86   C87   1.396616 A    
C28   C95   1.486687 S    
C85   C86   1.396836 A    
C11   C13   1.395839 A    
N6    O32   1.300569 A    
O3    C1    1.308521 A    
C69   C71   1.411856 A    
V2    O20   1.714344 S    
C92   C93   1.397161 A    
C52   C54   1.426039 A    
N8    O36   1.301013 A    
C47   H14   1.080451 S    
C21   H3    1.085085 S    
C6    C26   1.479548 S    
C77   C78   1.405047 A    
C23   C77   1.482813 S    
C97   C98   1.396676 A    
C32   C34   1.427898 A    
C68   C74   1.403876 A    
C99   H43   1.082235 S    
C33   C35   1.429650 A    
O7    C3    1.300861 A    
C95   C96   1.406963 A    
C67   C73   1.404027 A    
C34   C36   1.424737 A    
C70   C72   1.411902 A    
C60   N4    1.437605 S    
O5    C7    1.292920 A    
O7    V1    1.992806 S    
O6    C8    1.292866 A    
C98   C99   1.395891 A    
C35   C41   1.418693 A    
C8    C11   1.481877 S    
O8    V2    1.992807 S    
C27   C35   1.430974 A    
C28   C36   1.429555 A    
O11   V3    1.991006 S    
C71   C76   1.403746 A    
O14   V4    1.694120 S    
C36   C42   1.416853 A    
C76   H24   1.083698 S    
C19   C24   1.427807 A    
O14   V2    2.165725 S    
C79   H26   1.081447 S    
C62   H18   1.084419 S    
C20   C23   1.427516 A    
C31   H6    1.075968 S    
C1    C43   1.489508 S    
C3    C64   1.485576 S    
C65   C67   1.405764 A    
C16   C18   1.410477 A    
C38   C39   1.405862 A    
C4    C63   1.485707 S    
N5    O29   1.298423 A    
C2    O12   1.289519 A    
C46   C54   1.417667 A    
C2    C44   1.484993 S    
C17   C19   1.422211 A    
C94   H39   1.083282 S    
C18   C20   1.421817 A    
C64   C66   1.408510 A    
C5    C25   1.480460 S    
C22   C24   1.402121 A    
C21   C23   1.401974 A    
O17   V3    1.999125 S    
C77   C82   1.405629 A    
C54   C60   1.417241 A    
C31   C33   1.430265 A    
C75   H23   1.083692 S    
C34   C38   1.441370 A    
C51   C53   1.425798 A    
C9    C19   1.429556 A    
C10   C20   1.428889 A    
N6    O31   1.299008 A    
C46   C48   1.395433 A    
C52   C56   1.436952 A    
C45   C47   1.393462 A    
C25   C29   1.388027 A    
O13   V1    2.165724 S    
N4    O28   1.301675 A    
C1    O11   1.291109 A    
C32   H5    1.077898 S    
C46   N6    1.432841 S    
O15   V3    1.999876 S    
C39   C41   1.395928 A    
C50   H11   1.076074 S    
O4    V2    1.974526 S    
C29   H8    1.085627 S    
O1    C3    1.298082 A    
C62   C64   1.408424 A    
C96   C97   1.397382 A    
C67   C69   1.411469 A    
C42   N8    1.436452 S    
C57   C59   1.391839 A    
C13   H1    1.085111 S    
C44   C48   1.393762 A    
C93   C94   1.398286 A    
C43   C47   1.396055 A    
V3    O19   2.136860 S    
C37   C40   1.408065 A    
O10   V2    1.976604 S    
C9    N1    1.431156 S    
C83   C84   1.405461 A    
C63   C65   1.408710 A    
C40   H10   1.074590 S    
C55   C58   1.403226 A    
O3    V1    1.974527 S    
C100  H44   1.083162 S    
N4    O27   1.301479 A    
C87   H33   1.080152 S    
C14   H2    1.085039 S    
C10   N2    1.431223 S    
N8    O35   1.300882 A    
C45   N5    1.431884 S    
C85   H31   1.080321 S    
O18   V4    1.999125 S    
C27   C29   1.398681 A    
O8    C4    1.300769 A    
C87   C88   1.397538 A    
C48   H13   1.080241 S    
O16   C6    1.298302 A    
O17   C7    1.298706 A    
C82   H29   1.083269 S    
C56   C57   1.405039 A    
N3    O25   1.301552 A    
C90   C91   1.398196 A    
C58   H16   1.077766 S    
C80   C81   1.396426 A    
C26   C30   1.388896 A    
C24   C83   1.481912 S    
C51   C55   1.434509 A    
O16   V4    1.999875 S    
C78   H25   1.083054 S    
C66   H20   1.084317 S    
C84   H30   1.083265 S    
C97   H41   1.082381 S    
C50   C52   1.432505 A    
C78   C79   1.397608 A    
N3    O26   1.301513 A    
N2    O24   1.299974 A    
C74   C76   1.400167 A    
C68   C70   1.411451 A    
C93   H38   1.081849 S    
O5    V1    1.991445 S    
C7    C12   1.482299 S    
C61   C71   1.405855 A    
O6    V2    1.991443 S    
C89   C94   1.406372 A    
O10   C6    1.294394 A    
C27   C89   1.484843 S    
O18   C8    1.298501 A    
C61   C63   1.408260 A    
C15   C21   1.395464 A    
O2    V4    1.996057 S    
C61   H17   1.084395 S    
O15   C5    1.300612 A    
C81   H28   1.079768 S    
C55   C56   1.430548 A    
C83   C88   1.405108 A    
C13   C15   1.402091 A    
C59   N3    1.436890 S    
C96   H40   1.083138 S    
C12   C14   1.396784 A    
C14   C16   1.403011 A    
O1    V3    1.996058 S    
N1    O21   1.301248 A    
C66   C68   1.405364 A    
C91   H36   1.082401 S    
C49   H12   1.077932 S    
C53   C59   1.416346 A    
O9    C5    1.292120 A    
C9    C11   1.413630 A    
C28   C30   1.400803 A    
C10   C12   1.413069 A    
C95   C100  1.407222 A    
C33   C37   1.443206 A    
C49   C51   1.432477 A    
O2    C4    1.298236 A    
C41   N7    1.434792 S    
C80   H27   1.081669 S    
C74   H22   1.083676 S    
C44   C50   1.403270 A    
C73   H21   1.083669 S    
N7    O34   1.301004 A    
C37   C38   1.429353 A    
C84   C85   1.398190 A    
N1    O22   1.300159 A    
C40   C42   1.396514 A    
C43   C49   1.403341 A    
C88   H34   1.083026 S    
C65   H19   1.084303 S    
C57   H15   1.075197 S    
C99   C100  1.397484 A    
C69   C70   1.414909 A    
O12   V4    1.991006 S    
C86   H32   1.081560 S    
C72   C75   1.403847 A    
C30   H7    1.084798 S    
C73   C75   1.400438 A    
