data_mof_unit_35894.cif
_audit_creation_date              2012-12-10T18:46:19-0500
_audit_creation_method            fapswitch 2.2
_symmetry_space_group_name_H-M    P1
_symmetry_Int_Tables_number       1
_space_group_crystal_system       triclinic
_cell_length_a                    9.893817
_cell_length_b                    10.6539
_cell_length_c                    13.066842
_cell_angle_alpha                 90.955905
_cell_angle_beta                  69.822773
_cell_angle_gamma                 90.767226
_cell_volume                      1292.59606277

loop_
_atom_site_label
_atom_site_type_symbol
_atom_type_description
_atom_site_fract_x
_atom_site_fract_y
_atom_site_fract_z
_atom_type_partial_charge
C1    C     C_R   0.498977 0.739709 0.504124 0.870375
C2    C     C_R   0.365406 0.479526 0.822934 -0.190198
C3    C     C_R   0.621009 0.935439 0.445590 -0.177721
C4    C     C_R   0.419417 0.494091 0.704447 0.959712
C5    C     C_R   0.620679 0.063793 0.442303 -0.226706
C6    C     C_R   0.496642 0.127864 0.503452 -0.268423
C7    C     C_R   0.373656 0.065835 0.570864 0.679215
C8    C     C_R   0.374419 0.936990 0.577751 0.351331
C9    C     C_R   0.497963 0.872304 0.511156 -0.229173
C10   C     C_R   0.957808 0.422824 0.429961 0.343778
C11   C     C_R   0.102715 0.423509 0.430052 0.563568
C12   C     C_R   0.430107 0.465468 0.984574 0.077400
C13   C     C_R   0.042325 0.574360 0.570702 -0.118174
C14   C     C_R   0.899698 0.575796 0.571162 0.389240
C15   C     C_R   0.499090 0.260207 0.500197 0.990075
C16   C     C_R   0.580393 0.499275 0.295270 1.006162
C17   C     C_R   0.773496 0.364154 0.017141 0.678570
C18   C     C_R   0.629883 0.480194 0.177463 -0.404931
C19   C     C_R   0.229982 0.528131 0.885690 0.643326
C20   C     C_R   0.190542 0.535556 0.998395 -0.167672
C21   C     C_R   0.290330 0.507220 0.047705 -0.110769
C22   C     C_R   0.456803 0.431356 0.875257 -0.067281
C23   C     C_R   0.541854 0.452403 0.027475 -0.169012
C24   C     C_R   0.666580 0.381534 0.969571 -0.255532
C25   C     C_R   0.680877 0.329072 0.866747 0.431725
C26   C     C_R   0.571117 0.348333 0.822348 0.357036
C27   C     C_R   0.535478 0.512882 0.124856 0.571138
C28   C     C_R   0.752166 0.409251 0.122238 0.425948
F1    F     F_    0.848006 0.379207 0.170992 -0.588563
F2    F     F_    0.256339 0.130694 0.634159 -0.571693
F3    F     F_    0.202649 0.347075 0.360758 -0.642781
F4    F     F_    0.894682 0.297496 0.965716 -0.527163
F5    F     F_    0.440704 0.607073 0.168900 -0.644372
F6    F     F_    0.137048 0.570594 0.838425 -0.631663
H1    H     H_    0.715704 0.112985 0.390564 0.227788
H2    H     H_    0.617991 0.199207 0.728475 0.348722
H3    H     H_    0.072976 0.634080 0.627040 0.239138
H4    H     H_    0.254340 0.514027 0.135568 0.237643
H5    H     H_    0.084614 0.568718 0.047398 0.202673
H6    H     H_    0.715723 0.885264 0.394912 0.199041
H7    H     H_    0.284394 0.797750 0.672248 0.341309
H8    H     H_    0.998468 0.294877 0.315658 0.384615
H9    H     H_    0.719878 0.664157 0.628547 0.384455
H10   H     H_    0.822379 0.270371 0.730803 0.343574
N1    N     N_R   0.142790 0.500030 0.500030 -0.174754
N2    N     N_R   0.857180 0.499940 0.500010 -0.177963
O1    O     O_R   0.385370 0.683250 0.500010 -0.601897
O2    O     O_3   0.915277 0.345114 0.361117 -0.654551
O3    O     O_3   0.807404 0.655289 0.646279 -0.717817
O4    O     O_3   0.803390 0.262324 0.810019 -0.635729
O5    O     O_3   0.565176 0.278726 0.733672 -0.753099
O6    O     O_R   0.614700 0.683220 0.500010 -0.657327
O7    O     O_R   0.328400 0.499990 0.653620 -0.566316
O8    O     O_R   0.557730 0.499960 0.653620 -0.613330
O9    O     O_R   0.385300 0.316780 0.499990 -0.542297
O10   O     O_R   0.614630 0.316750 0.499990 -0.558598
O11   O     O_R   0.442270 0.500040 0.346380 -0.535283
O12   O     O_R   0.671600 0.500010 0.346380 -0.543546
O13   O     O_3   0.255192 0.878895 0.650803 -0.662593
Zn1   Zn    Zn3+2 0.346870 0.500020 0.500000 1.100063
Zn2   Zn    Zn3+2 0.653130 0.499980 0.500000 1.039308

loop_
_geom_bond_atom_site_label_1
_geom_bond_atom_site_label_2
_ccdc_geom_bond_type
C10   N2    A    
C2    C4    S    
C23   C24   A    
N1    Zn1   S    
C2    C22   A    
C6    C7    A    
C3    C9    A    
O8    Zn2   S    
C23   C27   A    
C4    O7    A    
C13   H3    S    
C19   C20   A    
C16   O11   A    
O9    Zn1   S    
C15   O10   A    
O12   Zn2   S    
C6    C15   S    
C24   C25   A    
C11   F3    S    
C7    C8    A    
C14   N2    A    
C7    F2    S    
C16   O12   A    
C26   O5    S    
C27   F5    S    
C13   N1    A    
C12   C23   A    
H2    O5    S    
C5    H1    S    
C28   F1    S    
C25   C26   A    
O7    Zn1   S    
C3    H6    S    
O6    Zn2   S    
C8    O13   S    
C10   O2    S    
C5    C6    A    
C1    O6    A    
C11   N1    A    
C14   O3    S    
C10   C11   A    
C18   C27   A    
N2    Zn2   S    
C17   C24   A    
C1    C9    S    
C12   C22   A    
O1    Zn1   S    
C18   C28   A    
C20   C21   A    
H7    O13   S    
C16   C18   S    
C22   C26   A    
H10   O4    S    
C17   F4    S    
C20   H5    S    
C25   O4    S    
H9    O3    S    
O11   Zn1   S    
H8    O2    S    
C13   C14   A    
C4    O8    A    
C2    C19   A    
O10   Zn2   S    
C17   C28   A    
C12   C21   A    
C1    O1    A    
C21   H4    S    
C8    C9    A    
C3    C5    A    
C19   F6    S    
C15   O9    A    
