data_mof_unit_34412.cif
_audit_creation_date              2012-12-11T15:45:21-0500
_audit_creation_method            fapswitch 2.2
_symmetry_space_group_name_H-M    P1
_symmetry_Int_Tables_number       1
_space_group_crystal_system       triclinic
_cell_length_a                    8.232216
_cell_length_b                    19.020665
_cell_length_c                    22.939844
_cell_angle_alpha                 95.052804
_cell_angle_beta                  90.023434
_cell_angle_gamma                 94.383417
_cell_volume                      3567.45499571

loop_
_atom_site_label
_atom_site_type_symbol
_atom_type_description
_atom_site_fract_x
_atom_site_fract_y
_atom_site_fract_z
_atom_type_partial_charge
Ba1   Ba    Ba6+2 0.850680 0.532880 0.472010 1.647047
Ba2   Ba    Ba6+2 0.339140 0.467180 0.527990 1.633739
C1    C     C_3   0.632026 0.791144 0.315526 -0.374368
C2    C     C_R   0.000770 0.564530 0.950905 -0.046749
C3    C     C_R   0.942154 0.559959 0.892340 0.582175
C4    C     C_3   0.132631 0.718678 0.311897 0.332099
C5    C     C_R   0.989998 0.437139 0.879659 0.575378
C6    C     C_R   0.034166 0.438316 0.939378 -0.009388
C7    C     C_R   0.045486 0.503030 0.974698 -0.053696
C8    C     C_R   0.018379 0.629341 0.985732 -0.111165
C9    C     C_R   0.082629 0.633887 0.042970 0.201871
C10   C     C_R   0.116295 0.571056 0.068958 -0.038077
C11   C     C_R   0.096992 0.505585 0.034305 -0.088425
C12   C     C_3   0.633480 0.719618 0.340094 0.385117
C13   C     C_R   0.067879 0.375983 0.964464 -0.079340
C14   C     C_R   0.113381 0.377920 0.023303 -0.073356
C15   C     C_R   0.129637 0.442390 0.058838 -0.017782
C16   C     C_3   0.103850 0.758390 0.258656 -0.326083
C17   C     C_R   0.177964 0.444854 0.118240 0.585742
C18   C     C_R   0.167261 0.571283 0.128417 0.598823
C19   C     C_2   0.792167 0.451863 0.770710 -0.074396
C20   C     C_3   0.774943 0.430220 0.706218 -0.054063
C21   C     C_1   0.001122 0.519315 0.689958 0.040716
C22   C     C_2   0.028404 0.533815 0.748509 -0.019165
C23   C     C_3   0.502099 0.364007 0.351903 0.293272
C24   C     C_2   0.918564 0.496147 0.792127 0.217635
C25   C     C_R   0.400991 0.543747 0.231970 -0.108340
C26   C     C_R   0.447321 0.547357 0.291253 -0.028509
C27   C     C_R   0.190251 0.485864 0.314732 0.036869
C28   C     C_3   0.196145 0.680920 0.590041 0.321933
C29   C     C_R   0.143915 0.480804 0.255242 -0.077762
C30   C     C_R   0.247570 0.510938 0.213387 0.229326
C31   C     C_2   0.876893 0.476222 0.668231 -0.297700
C32   C     C_R   0.401439 0.700634 0.469695 -0.278755
C33   C     C_R   0.540556 0.723778 0.502568 0.060137
C34   C     C_3   0.492961 0.344876 0.286160 -0.364375
C35   C     C_R   0.591315 0.796118 0.509209 -0.118042
C36   C     C_R   0.499092 0.845788 0.484672 -0.018739
C37   C     C_R   0.354525 0.821724 0.453765 -0.142448
C38   C     C_R   0.304399 0.749280 0.447647 0.000560
C39   C     C_R   0.567693 0.962984 0.446208 -0.106672
C40   C     C_3   0.198444 0.760922 0.601643 -0.390411
C41   C     C_R   0.619825 0.034851 0.453389 -0.092051
C42   C     C_R   0.652885 0.068664 0.509319 0.025998
C43   C     C_R   0.628892 0.029744 0.558156 -0.074834
C44   C     C_R   0.575689 0.956930 0.551895 0.200335
C45   C     C_3   0.105586 0.315873 0.690496 0.334560
C46   C     C_R   0.547778 0.922990 0.494705 0.033268
C47   C     C_R   0.853586 0.171209 0.547046 0.134592
C48   C     C_R   0.897833 0.244929 0.552677 0.016224
C49   C     C_R   0.658165 0.265980 0.497432 0.038371
C50   C     C_R   0.611949 0.193505 0.491572 -0.144619
C51   C     C_R   0.706779 0.145445 0.516870 -0.029607
C52   C     C_3   0.995579 0.318033 0.407010 0.312732
C53   C     C_R   0.795793 0.291405 0.530184 -0.328553
C54   C     C_3   0.978418 0.238085 0.393193 -0.384151
C55   C     C_3   0.688842 0.620775 0.646793 0.297328
C56   C     C_3   0.144181 0.295644 0.751460 -0.298585
C57   C     C_3   0.715355 0.641815 0.711858 -0.393170
C58   C     C_3   0.289016 0.728738 0.067698 -0.169085
C59   C     C_3   0.137258 0.599053 0.771353 -0.229649
C60   C     C_3   0.315324 0.584205 0.779759 -0.362720
C61   C     C_3   0.570462 0.951489 0.660400 -0.246790
C62   C     C_3   0.973676 0.117345 0.628230 -0.190869
C63   C     C_3   0.561580 0.276676 0.661049 0.378846
C64   C     C_3   0.527348 0.203683 0.682506 -0.376856
C65   C     C_R   0.339773 0.520359 0.332119 -0.301748
H1    H     H_    0.710102 0.725587 0.380373 0.089848
H2    H     H_    0.802127 0.601263 0.627962 0.009204
H3    H     H_    0.589388 0.578030 0.641279 0.074453
H4    H     H_    0.758340 0.812201 0.306821 0.136956
H5    H     H_    0.832637 0.674374 0.719190 0.124124
H6    H     H_    0.717818 0.593895 0.735959 0.080558
H7    H     H_    0.614695 0.672846 0.729465 0.130812
H8    H     H_    0.506740 0.702427 0.351671 -0.084396
H9    H     H_    0.575415 0.828789 0.347515 0.064062
H10   H     H_    0.379229 0.376580 0.367424 0.019444
H11   H     H_    0.589259 0.411333 0.360493 0.059262
H12   H     H_    0.285286 0.779639 0.637737 0.112403
H13   H     H_    0.404305 0.298402 0.276031 0.137518
H14   H     H_    0.452911 0.390069 0.263834 0.076806
H15   H     H_    0.614737 0.332049 0.269381 0.128304
H16   H     H_    0.560119 0.785905 0.274225 0.113265
H17   H     H_    0.187337 0.741586 0.222859 0.141238
H18   H     H_    0.175405 0.366749 0.683829 0.099403
H19   H     H_    0.973249 0.322435 0.687404 -0.054723
H20   H     H_    0.248505 0.261697 0.750651 0.140309
H21   H     H_    0.179462 0.344136 0.780588 0.142413
H22   H     H_    0.036400 0.266009 0.769301 0.113016
H23   H     H_    0.235727 0.786961 0.562117 0.065916
H24   H     H_    0.696054 0.288230 0.661051 -0.081988
H25   H     H_    0.513616 0.275214 0.615626 0.073155
H26   H     H_    0.594477 0.164787 0.655170 0.055575
H27   H     H_    0.395448 0.187044 0.679154 0.139786
H28   H     H_    0.102834 0.660823 0.300649 0.065799
H29   H     H_    0.568153 0.204167 0.728671 0.114647
H30   H     H_    0.137230 0.328550 0.040772 0.120478
H31   H     H_    0.058673 0.325194 0.938647 0.117074
H32   H     H_    0.483535 0.565874 0.200444 0.086666
H33   H     H_    0.990945 0.677724 0.967367 0.111768
H34   H     H_    0.074872 0.776288 0.614126 0.135028
H35   H     H_    0.713554 0.423946 0.800572 0.101964
H36   H     H_    0.027869 0.453823 0.241521 0.100246
H37   H     H_    0.376034 0.523212 0.377648 0.081422
H38   H     H_    0.263771 0.729003 0.323792 -0.057370
H39   H     H_    0.858410 0.464689 0.621576 0.079680
H40   H     H_    0.503890 0.174401 0.466258 0.088868
H41   H     H_    0.636050 0.064063 0.415087 0.074860
H42   H     H_    0.544856 0.938263 0.402392 0.074292
H43   H     H_    0.699494 0.813880 0.534908 0.105401
H44   H     H_    0.648087 0.057411 0.600948 0.069907
H45   H     H_    0.876657 0.336776 0.420464 0.002546
H46   H     H_    0.276979 0.859335 0.437604 0.078629
H47   H     H_    0.831594 0.347562 0.533525 0.070049
H48   H     H_    0.974725 0.747618 0.243424 0.151207
H49   H     H_    0.360427 0.644999 0.465983 0.067563
H50   H     H_    0.130055 0.816466 0.269932 0.091139
H51   H     H_    0.320133 0.665760 0.579972 -0.003614
H52   H     H_    0.113445 0.663785 0.552504 0.085491
H53   H     H_    0.040979 0.739692 0.063259 0.183616
H54   H     H_    0.313466 0.741181 0.022038 0.078752
H55   H     H_    0.373160 0.688927 0.079916 0.127666
H56   H     H_    0.084641 0.331076 0.443282 0.075760
H57   H     H_    0.314544 0.777973 0.097561 0.103312
H58   H     H_    0.324631 0.533216 0.799617 0.157218
H59   H     H_    0.379869 0.583394 0.737488 0.177005
H60   H     H_    0.378129 0.627432 0.809245 0.108174
H61   H     H_    0.127933 0.643125 0.743322 0.131245
H62   H     H_    0.095178 0.621430 0.813689 0.155328
H63   H     H_    0.446061 0.881029 0.597761 0.193989
H64   H     H_    0.546772 0.911702 0.692624 0.114986
H65   H     H_    0.485226 0.993674 0.669076 0.104138
H66   H     H_    0.698675 0.973692 0.666350 0.112709
H67   H     H_    0.882275 0.223361 0.359400 0.128411
H68   H     H_    0.967488 0.076004 0.540519 0.196084
H69   H     H_    0.921167 0.064447 0.638533 0.072523
H70   H     H_    0.907741 0.158497 0.653807 0.101482
H71   H     H_    0.103386 0.122727 0.642095 0.138778
H72   H     H_    0.945141 0.211453 0.432925 0.059969
H73   H     H_    0.095827 0.219282 0.376736 0.126880
N1    N     N_R   0.955614 0.498947 0.855223 -0.421616
N2    N     N_R   0.196797 0.508831 0.152282 -0.429845
N3    N     N_2   0.119756 0.702365 0.072833 -0.383987
N4    N     N_2   0.545323 0.917523 0.601789 -0.433516
N5    N     N_2   0.964037 0.123436 0.565823 -0.419033
O1    O     O_2   0.896730 0.461690 0.361000 -0.456843
O2    O     O_2   0.232977 0.251160 0.540351 -0.467484
O3    O     O_3   0.151075 0.262407 0.649264 -0.605318
O4    O     O_3   0.137170 0.462400 0.432040 -0.491095
O5    O     O_3   0.560670 0.583970 0.528500 -0.489888
O6    O     O_2   0.373560 0.329680 0.473470 -0.456640
O7    O     O_3   0.554321 0.306399 0.379193 -0.639716
O8    O     O_2   0.440420 0.461738 0.710267 -0.510683
O9    O     O_3   0.484529 0.327084 0.697800 -0.592738
O10   O     O_2   0.875239 0.609391 0.875119 -0.608575
O11   O     O_2   0.978684 0.380391 0.849697 -0.631040
O12   O     O_3   0.647398 0.680075 0.619748 -0.630073
O13   O     O_2   0.204450 0.390048 0.139561 -0.594236
O14   O     O_2   0.182762 0.626973 0.159431 -0.597888
O15   O     O_3   0.657500 0.588540 0.395070 -0.486202
O16   O     O_2   0.786889 0.542336 0.292839 -0.475441
O17   O     O_3   0.047998 0.348843 0.356543 -0.631560
O18   O     O_3   0.697685 0.671207 0.298128 -0.587366
O19   O     O_2   0.816140 0.670340 0.526560 -0.456889
O20   O     O_3   0.069580 0.624410 0.423530 -0.480289
O21   O     O_2   0.978221 0.749611 0.468052 -0.484164
O22   O     O_3   0.031235 0.743914 0.357142 -0.589999
O23   O     O_2   0.292960 0.538340 0.639040 -0.467104
O24   O     O_3   0.052540 0.537650 0.567960 -0.490237
O25   O     O_3   0.532200 0.411510 0.604930 -0.470069
O26   O     O_3   0.143013 0.651397 0.640803 -0.644401
O27   O     O_3   0.629030 0.416090 0.471500 -0.476842
O28   O     O_3   0.120120 0.375640 0.576470 -0.495172
P1    P     P_3+3 0.067040 0.441110 0.370020 0.996056
P2    P     P_3+3 0.640420 0.660110 0.543790 0.988766
P3    P     P_3+3 0.097602 0.716911 0.423424 0.944384
P4    P     P_3+3 0.122660 0.558950 0.629980 0.978671
P5    P     P_3+3 0.099764 0.283394 0.579376 0.964117
P6    P     P_3+3 0.648184 0.585756 0.318459 0.974489
P7    P     P_3+3 0.556402 0.327610 0.455013 0.953564
P8    P     P_3+3 0.558872 0.411057 0.680225 0.933821

loop_
_geom_bond_atom_site_label_1
_geom_bond_atom_site_label_2
_ccdc_geom_bond_type
Ba2   O5    S    
C63   H25   S    
C52   H56   S    
C62   H69   S    
C22   C59   S    
C62   N5    S    
C27   P1    S    
C19   C24   D    
C56   H20   S    
C5    C6    A    
C62   H71   S    
C43   C44   A    
C42   C43   A    
O20   P3    S    
C25   H32   S    
Ba2   O24   S    
C63   O9    S    
C23   O7    S    
C32   C38   A    
C45   H18   S    
C64   H29   S    
C48   P5    S    
C22   C24   S    
C32   C33   A    
C20   P8    S    
C58   N3    S    
C36   C37   A    
C54   H73   S    
C14   H30   S    
C55   C57   S    
C28   H52   S    
C32   H49   S    
C13   C14   A    
O9    P8    S    
O1    P1    D    
O19   P2    D    
O4    P1    S    
C12   O18   S    
C58   H57   S    
C7    C11   A    
C27   C65   A    
C42   C51   S    
C61   H66   S    
C5    O11   D    
Ba1   O19   S    
C34   H15   S    
C14   C15   A    
C21   C31   D    
C18   O14   D    
C16   H17   S    
C21   C22   D    
Ba1   O4    S    
Ba2   P4    S    
C61   H64   S    
C55   H3    S    
O16   P6    D    
C24   N1    S    
H63   N4    S    
C57   H6    S    
C30   N2    S    
C59   H62   S    
C57   H5    S    
C64   H27   S    
O27   P7    S    
Ba2   O4    S    
O5    P2    S    
C40   H12   S    
C39   H42   S    
C19   C20   S    
C39   C41   A    
Ba1   O1    S    
C58   H54   S    
H53   N3    S    
C37   H46   S    
O24   P4    S    
C26   P6    S    
C65   H37   S    
C52   C54   S    
C62   H70   S    
C4    C16   S    
C44   C46   A    
Ba1   P1    S    
C52   H45   S    
C49   C50   A    
C45   H19   S    
C18   N2    Am   
C26   C65   A    
C50   H40   S    
C34   H13   S    
C37   C38   A    
C60   H59   S    
C54   H72   S    
C6    C7    A    
C44   N4    S    
C28   H51   S    
H68   N5    S    
C3    O10   D    
C23   H11   S    
C40   H23   S    
C29   H36   S    
O7    P7    S    
C39   C46   A    
C1    H4    S    
C41   C42   A    
O15   P6    S    
C35   C36   A    
C3    N1    Am   
C29   C30   A    
C57   H7    S    
Ba1   O20   S    
C34   H14   S    
C61   N4    S    
C10   C18   A    
C47   N5    S    
Ba1   O5    S    
C61   H65   S    
C52   O17   S    
C8    H33   S    
C1    H9    S    
C16   H50   S    
C35   H43   S    
C1    C12   S    
Ba2   O25   S    
C64   H26   S    
C19   H35   S    
O12   P2    S    
C63   C64   S    
C17   N2    Am   
O25   P8    S    
O18   P6    S    
C47   C48   A    
C23   H10   S    
C13   H31   S    
C2    C8    A    
C49   P7    S    
C40   H34   S    
Ba2   O23   S    
C5    N1    Am   
C50   C51   A    
C38   P3    S    
Ba2   O6    S    
C63   H24   S    
C20   C31   S    
C55   O12   S    
C45   O3    S    
Ba1   P2    S    
O3    P5    S    
C33   C35   A    
C25   C30   A    
C17   O13   D    
C36   C46   S    
Ba1   O15   S    
O26   P4    S    
C31   H39   S    
O8    P8    D    
C2    C3    A    
C56   H21   S    
C16   H48   S    
C60   H58   S    
C54   H67   S    
C9    C10   A    
C43   H44   S    
O17   P1    S    
C53   H47   S    
C6    C13   A    
Ba1   O27   S    
O21   P3    D    
C48   C53   A    
C11   C15   A    
C33   P2    S    
C12   H8    S    
Ba2   O28   S    
C45   C56   S    
C1    H16   S    
O2    P5    D    
O6    P7    D    
C60   H60   S    
O28   P5    S    
C47   C51   A    
Ba1   Ba2   S    
Ba1   O24   S    
C15   C17   A    
C4    H38   S    
C59   H61   S    
C49   C53   A    
C41   H41   S    
C59   C60   S    
C56   H22   S    
C28   O26   S    
C21   P4    S    
C8    C9    A    
C23   C34   S    
C58   H55   S    
C10   C11   A    
C27   C29   A    
C4    H28   S    
C25   C26   A    
C12   H1    S    
C28   C40   S    
C55   H2    S    
C2    C7    A    
C4    O22   S    
C9    N3    S    
O23   P4    D    
Ba2   O27   S    
O22   P3    S    
