data_mof_unit_57475.cif
_audit_creation_date              2012-12-10T20:51:47-0500
_audit_creation_method            fapswitch 2.2
_symmetry_space_group_name_H-M    P1
_symmetry_Int_Tables_number       1
_space_group_crystal_system       triclinic
_cell_length_a                    8.101941
_cell_length_b                    8.933605
_cell_length_c                    16.826144
_cell_angle_alpha                 89.526304
_cell_angle_beta                  93.708461
_cell_angle_gamma                 90.003836
_cell_volume                      1215.27678285

loop_
_atom_site_label
_atom_site_type_symbol
_atom_type_description
_atom_site_fract_x
_atom_site_fract_y
_atom_site_fract_z
_atom_type_partial_charge
C1    C     C_R   0.499974 0.217973 0.500022 0.923391
C2    C     C_R   0.602498 0.461183 0.137816 0.413765
C3    C     C_R   0.474599 0.614579 0.894585 0.021427
C4    C     C_R   0.465283 0.522488 0.094249 0.068988
C5    C     C_R   0.619262 0.659888 0.857829 0.342062
C6    C     C_R   0.328255 0.577831 0.133214 0.310390
C7    C     C_R   0.643144 0.613567 0.779377 0.442982
C8    C     C_R   0.329119 0.567688 0.216611 0.422095
C9    C     C_1   0.499986 0.065181 0.500035 -0.157658
C10   C     C_1   0.500026 0.934809 0.500036 -0.156330
C11   C     C_R   0.500032 0.782025 0.500019 0.937272
C12   C     C_R   0.519695 0.500361 0.653914 0.964262
C13   C     C_R   0.479629 0.502987 0.346112 0.973462
C14   C     C_R   0.521968 0.524205 0.739457 -0.234779
C15   C     C_R   0.469438 0.508369 0.259526 -0.239888
C16   C     C_R   0.380081 0.481237 0.776628 -0.368856
C17   C     C_R   0.604684 0.456478 0.220111 -0.380450
C18   C     C_R   0.351168 0.530133 0.852013 0.426774
H1    H     H_    0.711250 0.409722 0.253744 0.240377
H2    H     H_    0.286675 0.414285 0.744579 0.237790
H3    H     H_    0.806697 0.203413 0.010222 0.381372
H4    H     H_    0.062566 0.322965 0.967921 0.404797
H5    H     H_    0.700131 0.783558 0.947784 0.377591
H6    H     H_    0.229756 0.699546 0.047894 0.385246
H7    H     H_    0.853122 0.720898 0.774129 0.404451
H8    H     H_    0.107548 0.655428 0.220366 0.397609
N1    N     N_1   0.073640 0.500030 0.499990 -0.005851
N2    N     N_1   0.926360 0.499970 0.500010 -0.006417
N3    N     N_2   0.468078 0.634605 0.977085 -0.157389
N4    N     N_2   0.460291 0.511217 0.011176 -0.006958
O1    O     O_R   0.636850 0.285340 0.500000 -0.619313
O2    O     O_2   0.907216 0.337018 0.148337 -0.279329
O3    O     O_3   0.705817 0.244687 0.032078 -0.521556
O4    O     O_2   0.084165 0.632447 0.919978 -0.215998
O5    O     O_2   0.038592 0.431383 0.823595 -0.288841
O6    O     O_3   0.175452 0.362432 0.962560 -0.486133
O7    O     O_3   0.739659 0.746804 0.897049 -0.687122
O8    O     O_3   0.191192 0.637292 0.091692 -0.659700
O9    O     O_3   0.779009 0.658029 0.739320 -0.703201
O10   O     O_3   0.198414 0.619595 0.257855 -0.715605
O11   O     O_R   0.363150 0.714660 0.500000 -0.611799
O12   O     O_R   0.363100 0.285350 0.500000 -0.619667
O13   O     O_R   0.636900 0.714650 0.500000 -0.610008
O14   O     O_R   0.652140 0.498630 0.616140 -0.555645
O15   O     O_R   0.347860 0.501370 0.383860 -0.557049
O16   O     O_R   0.378390 0.498650 0.616130 -0.636084
O17   O     O_R   0.621610 0.501350 0.383870 -0.636082
O18   O     O_2   0.838103 0.509490 0.036889 -0.207196
S1    S     S_3+6 0.772105 0.389190 0.089070 0.069934
S2    S     S_3+6 0.155300 0.490944 0.888973 0.087229
Zn1   Zn    Zn3+2 0.682780 0.499990 0.500010 1.046543
Zn2   Zn    Zn3+2 0.317220 0.500010 0.499990 1.045094

loop_
_geom_bond_atom_site_label_1
_geom_bond_atom_site_label_2
_ccdc_geom_bond_type
H6    O8    S    
C6    O8    S    
C11   O13   A    
N3    N4    D    
C2    S1    S    
C5    O7    S    
H4    O6    S    
C9    C10   T    
O11   Zn2   S    
C2    C4    A    
C16   H2    S    
C4    N4    S    
O13   Zn1   S    
O5    S2    D    
C1    C9    S    
C12   O14   A    
H7    O9    S    
C2    C17   A    
C13   O15   A    
H8    O10   S    
O14   Zn1   S    
C4    C6    A    
O18   S1    D    
C17   H1    S    
C12   C14   S    
C11   O11   A    
C8    C15   A    
C5    C7    A    
C13   C15   S    
N2    Zn1   S    
C14   C16   A    
O2    S1    D    
O4    S2    D    
H3    O3    S    
C10   C11   S    
O3    S1    S    
O16   Zn2   S    
C1    O12   A    
C1    O1    A    
C3    N3    S    
O6    S2    S    
N1    Zn2   S    
C18   S2    S    
C3    C18   A    
C16   C18   A    
O1    Zn1   S    
N1    N2    T    
C15   C17   A    
C7    O9    S    
C6    C8    A    
C8    O10   S    
O15   Zn2   S    
H5    O7    S    
C13   O17   A    
C7    C14   A    
O17   Zn1   S    
O12   Zn2   S    
C3    C5    A    
C12   O16   A    
