data_mof_unit_23183.cif
_audit_creation_date              2012-12-10T18:19:14-0500
_audit_creation_method            fapswitch 2.2
_symmetry_space_group_name_H-M    P1
_symmetry_Int_Tables_number       1
_space_group_crystal_system       triclinic
_cell_length_a                    14.897497
_cell_length_b                    14.017354
_cell_length_c                    11.523104
_cell_angle_alpha                 89.641293
_cell_angle_beta                  90.129596
_cell_angle_gamma                 90.300012
_cell_volume                      2406.20866029

loop_
_atom_site_label
_atom_site_type_symbol
_atom_type_description
_atom_site_fract_x
_atom_site_fract_y
_atom_site_fract_z
_atom_type_partial_charge
C1    C     C_R   0.326884 0.499672 0.500013 0.878814
C2    C     C_R   0.441063 0.201406 0.568963 -0.007420
C3    C     C_R   0.440478 0.797266 0.568158 0.000873
C4    C     C_R   0.559534 0.202673 0.431979 -0.007523
C5    C     C_R   0.439139 0.898056 0.570687 -0.107915
C6    C     C_R   0.562087 0.101928 0.431397 -0.095521
C7    C     C_R   0.560759 0.899438 0.429350 -0.094959
C8    C     C_R   0.438512 0.100598 0.569886 -0.099554
C9    C     C_R   0.499903 0.949431 0.499991 -0.056726
C10   C     C_R   0.499947 0.050572 0.500116 -0.060798
C11   C     C_R   0.379055 0.948240 0.642485 0.339865
C12   C     C_R   0.673135 0.500236 0.499688 0.883045
C13   C     C_R   0.625703 0.051820 0.365105 0.355798
C14   C     C_R   0.621529 0.950827 0.358676 0.353148
C15   C     C_R   0.376229 0.049224 0.638502 0.371914
C16   C     C_R   0.499923 0.500279 0.281751 0.906421
C17   C     C_R   0.499780 0.499794 0.718248 0.905133
C18   C     C_1   0.499502 0.500864 0.161411 -0.189418
C19   C     C_1   0.499340 0.499618 0.838588 -0.195081
C20   C     C_1   0.499194 0.500816 0.059259 -0.001250
C21   C     C_1   0.499115 0.500168 0.940734 -0.007298
C22   C     C_R   0.812960 0.455381 0.409192 -0.229212
C23   C     C_R   0.906246 0.453472 0.408059 0.055996
C24   C     C_R   0.186926 0.542273 0.591738 -0.227190
C25   C     C_R   0.768437 0.500615 0.499134 -0.072431
C26   C     C_R   0.231635 0.498478 0.500931 -0.071648
C27   C     C_R   0.814107 0.544867 0.589315 -0.213407
C28   C     C_R   0.186144 0.452269 0.411899 -0.224034
C29   C     C_R   0.906900 0.542252 0.591901 0.083221
C30   C     C_R   0.093205 0.451781 0.411003 0.098358
C31   C     C_R   0.953372 0.496618 0.501108 -0.019448
C32   C     C_R   0.046690 0.495872 0.502500 -0.009418
C33   C     C_3   0.087278 0.565530 0.876876 0.058981
C34   C     C_R   0.093797 0.540414 0.594566 0.033045
C35   C     C_3   0.150504 0.603812 0.970461 -0.321802
C36   C     C_3   0.144001 0.544955 0.082058 -0.958653
C37   C     C_3   0.941641 0.296981 0.166635 0.060509
C38   C     C_3   0.869727 0.246802 0.094166 -0.310270
C39   C     C_3   0.906510 0.157552 0.036359 -0.974794
C40   C     C_3   0.359652 0.882209 0.821320 0.083884
C41   C     C_3   0.295367 0.823088 0.896204 -0.313047
C42   C     C_3   0.337635 0.796396 0.012687 -0.982813
C43   C     C_3   0.774441 0.095190 0.359982 0.104262
C44   C     C_3   0.792319 0.185910 0.429876 -0.378199
C45   C     C_R   0.953507 0.584405 0.683873 -0.323892
C46   C     C_3   0.885410 0.185077 0.485073 -0.950742
C47   C     C_3   0.659347 0.911968 0.171403 0.125637
C48   C     C_3   0.610124 0.822402 0.129256 -0.380941
C49   C     C_3   0.593270 0.826380 0.998601 -0.961616
C50   C     C_3   0.229245 0.094314 0.662633 0.130493
C51   C     C_3   0.208905 0.186359 0.595304 -0.389976
C52   C     C_3   0.110962 0.189864 0.556881 -0.963351
C53   C     C_R   0.046794 0.409451 0.318994 -0.375662
C54   C     C_R   0.047096 0.581968 0.687212 0.463320
C55   C     C_R   0.952329 0.409411 0.316196 0.478071
C56   C     C_R   0.559348 0.798645 0.431668 -0.002350
H1    H     H_    0.774116 0.422716 0.340203 0.175956
H2    H     H_    0.133208 0.679126 0.989649 0.233891
H3    H     H_    0.074741 0.547709 0.117357 0.278923
H4    H     H_    0.191010 0.574271 0.147897 0.270060
H5    H     H_    0.162155 0.469526 0.065325 0.255829
H6    H     H_    0.968977 0.245039 0.231021 0.138209
H7    H     H_    0.995795 0.321627 0.107101 0.146405
H8    H     H_    0.812295 0.226405 0.150578 0.243879
H9    H     H_    0.844684 0.296585 0.026095 0.227266
H10   H     H_    0.962941 0.176600 0.977618 0.263815
H11   H     H_    0.852633 0.122998 0.984522 0.270298
H12   H     H_    0.225235 0.576424 0.660220 0.174326
H13   H     H_    0.930357 0.105930 0.103003 0.260455
H14   H     H_    0.605598 0.758249 0.379257 0.170551
H15   H     H_    0.396050 0.241907 0.622955 0.167805
H16   H     H_    0.394265 0.755795 0.620649 0.166804
H17   H     H_    0.605132 0.244061 0.378535 0.168178
H18   H     H_    0.373915 0.950948 0.866012 0.166977
H19   H     H_    0.423472 0.841839 0.811560 0.131868
H20   H     H_    0.233192 0.864581 0.911680 0.231586
H21   H     H_    0.276801 0.756739 0.849372 0.236443
H22   H     H_    0.395996 0.748839 0.999255 0.274664
H23   H     H_    0.777104 0.579350 0.658275 0.138962
H24   H     H_    0.287608 0.757875 0.067014 0.270354
H25   H     H_    0.359894 0.861416 0.059529 0.271585
H26   H     H_    0.827036 0.088766 0.292374 0.169913
H27   H     H_    0.781566 0.031192 0.417477 0.152729
H28   H     H_    0.786688 0.248953 0.371624 0.243042
H29   H     H_    0.741604 0.192225 0.499833 0.224015
H30   H     H_    0.891184 0.124734 0.547527 0.266614
H31   H     H_    0.896914 0.252881 0.532323 0.275010
H32   H     H_    0.937790 0.178055 0.417465 0.259923
H33   H     H_    0.722969 0.919858 0.122052 0.170994
H34   H     H_    0.223375 0.418729 0.342449 0.141853
H35   H     H_    0.618419 0.976427 0.150684 0.147457
H36   H     H_    0.650982 0.758359 0.149988 0.238479
H37   H     H_    0.544637 0.815633 0.174641 0.220810
H38   H     H_    0.548943 0.887367 0.976496 0.259303
H39   H     H_    0.560147 0.759289 0.970302 0.270329
H40   H     H_    0.657689 0.834150 0.951037 0.267409
H41   H     H_    0.181845 0.088315 0.736653 0.171691
H42   H     H_    0.216059 0.031228 0.606254 0.152326
H43   H     H_    0.223456 0.249085 0.650978 0.236934
H44   H     H_    0.252251 0.190647 0.517110 0.220209
H45   H     H_    0.917435 0.619405 0.753095 0.160036
H46   H     H_    0.095082 0.128350 0.499970 0.265367
H47   H     H_    0.098624 0.256797 0.507585 0.279710
H48   H     H_    0.065915 0.188222 0.633559 0.268839
H49   H     H_    0.084912 0.379033 0.248654 0.146502
H50   H     H_    0.107470 0.490889 0.856541 0.132893
H51   H     H_    0.017475 0.565354 0.911292 0.152920
H52   H     H_    0.220714 0.601698 0.938153 0.222773
N1    N     N_R   0.500000 0.750030 0.500000 -0.123334
N2    N     N_R   0.500000 0.249970 0.500000 -0.122816
O1    O     O_R   0.367850 0.580280 0.500030 -0.616806
O2    O     O_3   0.902499 0.376258 0.221763 -0.657896
O3    O     O_3   0.318996 0.899043 0.712311 -0.643715
O4    O     O_3   0.690308 0.101542 0.302676 -0.665047
O5    O     O_3   0.682154 0.901992 0.290346 -0.657194
O6    O     O_3   0.317268 0.097897 0.709367 -0.653837
O7    O     O_R   0.632150 0.419720 0.499970 -0.627532
O8    O     O_R   0.632150 0.580280 0.499970 -0.617573
O9    O     O_R   0.367850 0.419720 0.500030 -0.628294
O10   O     O_R   0.500010 0.580270 0.334450 -0.618360
O11   O     O_R   0.499990 0.419730 0.665550 -0.610413
O12   O     O_R   0.499990 0.580270 0.665550 -0.622625
O13   O     O_R   0.500010 0.419730 0.334450 -0.615240
O14   O     O_3   0.093215 0.624841 0.777535 -0.647542
Zn1   Zn    Zn3+2 0.500000 0.607200 0.500000 0.943216
Zn2   Zn    Zn3+2 0.500000 0.392800 0.500000 0.939413

loop_
_geom_bond_atom_site_label_1
_geom_bond_atom_site_label_2
_ccdc_geom_bond_type
C52   H47   S    
C42   H24   S    
C55   O2    S    
C27   C29   A    
C43   H27   S    
C41   C42   S    
C35   C36   S    
C33   H51   S    
C36   H3    S    
C22   H1    S    
C37   H6    S    
C47   O5    S    
C52   H46   S    
C35   H2    S    
C19   C21   T    
C16   O13   A    
C24   C26   A    
C5    C11   A    
C27   H23   S    
C16   O10   A    
C43   O4    S    
C41   H21   S    
C38   C39   S    
C14   O5    S    
C18   C20   T    
C1    O9    A    
C37   O2    S    
C4    N2    A    
C35   H52   S    
C17   C19   S    
C11   C15   A    
C7    C14   A    
C52   H48   S    
C47   C48   S    
C22   C25   A    
O1    Zn1   S    
C33   O14   S    
O8    Zn1   S    
C49   H38   S    
C9    C10   A    
C38   H8    S    
C13   O4    S    
C13   C14   A    
C47   H33   S    
C42   H25   S    
C39   H11   S    
C7    C56   A    
C37   H7    S    
C44   C46   S    
C46   H32   S    
C53   C55   A    
C51   H43   S    
C30   C53   A    
C50   H42   S    
C48   H37   S    
C51   C52   S    
C4    C6    A    
O10   Zn1   S    
O13   Zn2   S    
C3    C5    A    
C24   C34   A    
C29   C45   A    
C32   C34   A    
C43   C44   S    
C5    C9    A    
C37   C38   S    
C40   O3    S    
C38   H9    S    
C50   C51   S    
C39   H13   S    
C16   C18   S    
C2    H15   S    
C49   H39   S    
C23   C55   A    
C4    H17   S    
C45   H45   S    
N2    Zn2   S    
C12   O8    A    
N1    Zn1   S    
C48   C49   S    
C45   C54   A    
C34   C54   A    
C8    C15   A    
C56   H14   S    
C1    C26   S    
C39   H10   S    
C44   H29   S    
C56   N1    A    
C46   H31   S    
O7    Zn2   S    
C17   O11   A    
C51   H44   S    
C7    C9    A    
C54   O14   S    
C40   C41   S    
C50   H41   S    
C22   C23   A    
C47   H35   S    
C31   C32   A    
C2    C8    A    
C33   H50   S    
C36   H4    S    
C6    C10   A    
C42   H22   S    
C25   C27   A    
C26   C28   A    
C40   H19   S    
C44   H28   S    
C12   C25   S    
O12   Zn1   S    
C28   C30   A    
C3    H16   S    
O11   Zn2   S    
C29   C31   A    
C1    O1    A    
C6    C13   A    
C30   C32   A    
C3    N1    A    
C33   C35   S    
C40   H18   S    
C50   O6    S    
C49   H40   S    
C11   O3    S    
C24   H12   S    
C12   O7    A    
O9    Zn2   S    
C53   H49   S    
C17   O12   A    
C20   C21   S    
C8    C10   A    
C48   H36   S    
C43   H26   S    
C15   O6    S    
C28   H34   S    
C46   H30   S    
C36   H5    S    
C23   C31   A    
C41   H20   S    
C2    N2    A    
