data_mof_unit_42345.cif
_audit_creation_date              2012-12-10T18:05:41-0500
_audit_creation_method            fapswitch 2.2
_symmetry_space_group_name_H-M    P1
_symmetry_Int_Tables_number       1
_space_group_crystal_system       triclinic
_cell_length_a                    10.871284
_cell_length_b                    10.771946
_cell_length_c                    9.551165
_cell_angle_alpha                 90.045712
_cell_angle_beta                  91.655342
_cell_angle_gamma                 89.814916
_cell_volume                      1118.01519202

loop_
_atom_site_label
_atom_site_type_symbol
_atom_type_description
_atom_site_fract_x
_atom_site_fract_y
_atom_site_fract_z
_atom_type_partial_charge
C1    C     C_R   0.503530 0.262471 0.500070 0.905653
C2    C     C_R   0.495780 0.737491 0.500011 0.907784
C3    C     C_R   0.871924 0.496514 0.506851 -0.036607
C4    C     C_R   0.128056 0.504972 0.493082 -0.067051
C5    C     C_R   0.943598 0.527159 0.627893 -0.006507
C6    C     C_R   0.056345 0.475782 0.371738 0.018372
C7    C     C_R   0.604713 0.060417 0.450157 0.468052
C8    C     C_R   0.395110 0.939455 0.552182 0.455975
C9    C     C_R   0.598016 0.931510 0.449171 -0.287301
C10   C     C_R   0.401430 0.068430 0.552005 -0.283249
C11   C     C_R   0.494887 0.871375 0.500238 -0.218965
C12   C     C_R   0.504417 0.128552 0.500508 -0.224802
C13   C     C_R   0.477902 0.393538 0.073265 0.027058
C14   C     C_R   0.522135 0.606453 0.926739 0.023949
C15   C     C_R   0.478345 0.393483 0.925118 -0.032049
C16   C     C_R   0.521904 0.606459 0.074896 -0.034884
C17   C     C_R   0.262154 0.501533 0.497525 0.867302
C18   C     C_R   0.737844 0.499211 0.502472 0.853009
C19   C     C_R   0.194143 0.547158 0.022508 -0.176753
C20   C     C_R   0.805635 0.467748 0.980148 -0.206780
C21   C     C_R   0.154143 0.561022 0.159141 -0.038946
C22   C     C_R   0.843496 0.449756 0.843245 -0.059976
C23   C     C_R   0.106189 0.458913 0.230632 0.038242
C24   C     C_R   0.893910 0.548644 0.768470 0.032527
C25   C     C_R   0.092541 0.344726 0.160978 -0.221710
C26   C     C_R   0.912191 0.663568 0.835358 -0.215193
C27   C     C_R   0.130154 0.331829 0.022766 0.387631
C28   C     C_R   0.877765 0.680184 0.974282 0.435508
C29   C     C_R   0.183348 0.432449 0.955259 -0.257593
C30   C     C_R   0.821987 0.582908 0.045110 -0.228660
C31   C     C_R   0.929822 0.468268 0.381988 -0.145616
C32   C     C_R   0.070173 0.534225 0.617524 -0.221775
Cu1   Cu    Cu3+1 0.500000 0.500020 0.640660 1.002315
Cu2   Cu    Cu3+1 0.500000 0.499980 0.359340 1.000702
H1    H     H_    0.233228 0.625344 0.968579 0.204170
H2    H     H_    0.764041 0.392286 0.036091 0.180249
H3    H     H_    0.160813 0.650953 0.209511 0.189112
H4    H     H_    0.833207 0.359113 0.795226 0.181215
H5    H     H_    0.051067 0.266893 0.213528 0.192403
H6    H     H_    0.955916 0.738708 0.780380 0.206887
H7    H     H_    0.875993 0.441267 0.290034 0.156486
H8    H     H_    0.124044 0.563331 0.708539 0.192750
H9    H     H_    0.674201 0.877009 0.411324 0.210443
H10   H     H_    0.325124 0.122998 0.589335 0.221020
H11   H     H_    0.458506 0.307920 0.126889 0.168339
H12   H     H_    0.541470 0.692083 0.873109 0.161583
N1    N     N_R   0.500030 0.500030 0.852070 -0.178248
N2    N     N_R   0.499970 0.499970 0.147930 -0.178091
O1    O     O_R   0.499990 0.319660 0.618740 -0.593661
O2    O     O_R   0.500010 0.680340 0.381260 -0.591859
O3    O     O_R   0.499990 0.319630 0.381170 -0.556429
O4    O     O_R   0.500010 0.680370 0.618830 -0.565212
O5    O     O_R   0.319650 0.500020 0.618780 -0.579236
O6    O     O_R   0.680350 0.499980 0.381220 -0.582396
O7    O     O_R   0.319640 0.500000 0.381210 -0.583531
O8    O     O_R   0.680360 0.500000 0.618790 -0.583836
H13   H     H_    0.216710 0.421537 0.850691 0.187905
H14   H     H_    0.791691 0.596454 0.150770 0.192542
H15   H     H_    0.459163 0.307810 0.870075 0.165836
H16   H     H_    0.541150 0.692110 0.129952 0.161914
S1    S     S_3+6 0.107535 0.191122 0.932724 0.056636
O9    O     O_2   0.203247 0.099216 0.982797 -0.200718
O10   O     O_2   0.982039 0.141041 0.962204 -0.217963
O11   O     O_3   0.120279 0.212456 0.759296 -0.499384
H17   H     H_    0.047558 0.262944 0.730580 0.351269
S2    S     S_3+6 0.909596 0.820317 0.061956 0.042235
O12   O     O_2   0.029269 0.871587 0.012557 -0.208562
O13   O     O_2   0.808067 0.911814 0.029949 -0.214608
O14   O     O_3   0.919249 0.794964 0.235786 -0.557090
H18   H     H_    0.987234 0.848553 0.270945 0.400813
S3    S     S_3+6 0.742014 0.132887 0.398067 0.027498
O15   O     O_2   0.788086 0.217017 0.513409 -0.331188
O16   O     O_2   0.839118 0.037315 0.369262 -0.239478
O17   O     O_3   0.713444 0.216764 0.252369 -0.536452
H19   H     H_    0.795184 0.230100 0.211868 0.367592
S4    S     S_3+6 0.258053 0.866968 0.605481 0.025823
O18   O     O_2   0.285501 0.779788 0.725124 -0.299719
O19   O     O_2   0.166036 0.962298 0.650744 -0.190619
O20   O     O_3   0.198330 0.786748 0.468884 -0.587096
H20   H     H_    0.109787 0.778121 0.488370 0.370998

loop_
_geom_bond_atom_site_label_1
_geom_bond_atom_site_label_2
_ccdc_geom_bond_type
S2    O13   D    
C27   C29   A    
S4    O20   S    
C15   N1    A    
C16   N2    A    
C14   H12   S    
C20   C30   A    
Cu1   O4    S    
Cu2   O3    S    
C19   C21   A    
S4    O19   D    
C7    S3    S    
S2    O14   S    
Cu1   O1    S    
C22   H4    S    
C8    S4    S    
C3    C18   S    
C16   H16   S    
S1    O10   D    
C2    O2    A    
C27   S1    S    
C17   O7    A    
C18   O8    A    
C5    C32   A    
Cu1   O8    S    
C6    C31   A    
Cu2   O7    S    
O14   H18   S    
C1    C12   S    
C2    C11   S    
C10   C12   A    
C21   C23   A    
Cu1   O5    S    
C7    C12   A    
C9    H9    S    
Cu2   O2    S    
O17   H19   S    
C29   H13   S    
C10   H10   S    
S4    O18   D    
C4    C6    A    
S3    O16   D    
S1    O11   S    
C28   S2    S    
C13   N2    A    
C9    C11   A    
Cu1   Cu2   S    
C3    C31   A    
C1    O3    A    
C4    C32   A    
C2    O4    A    
C4    C17   S    
C20   C22   A    
Cu2   O6    S    
C13   C15   A    
Cu1   N1    S    
C14   C16   A    
Cu2   N2    S    
C19   C29   A    
C17   O5    A    
C7    C9    A    
C31   H7    S    
C15   H15   S    
C24   C26   A    
C3    C5    A    
S3    O17   S    
C14   N1    A    
C25   C27   A    
C26   C28   A    
O11   H17   S    
C28   C30   A    
S3    O15   D    
C19   H1    S    
C25   H5    S    
C13   H11   S    
C26   H6    S    
C5    C24   S    
C8    C11   A    
C6    C23   S    
C30   H14   S    
S2    O12   D    
C22   C24   A    
C23   C25   A    
S1    O9    D    
C18   O6    A    
O20   H20   S    
C20   H2    S    
C21   H3    S    
C8    C10   A    
C32   H8    S    
C1    O1    A    
