data_mof_unit_34616.cif
_audit_creation_date              2012-12-10T20:27:55-0500
_audit_creation_method            fapswitch 2.2
_symmetry_space_group_name_H-M    P1
_symmetry_Int_Tables_number       1
_space_group_crystal_system       triclinic
_cell_length_a                    12.89894
_cell_length_b                    10.67963
_cell_length_c                    9.88658
_cell_angle_alpha                 89.867157
_cell_angle_beta                  96.618784
_cell_angle_gamma                 90.76251
_cell_volume                      1352.73731434

loop_
_atom_site_label
_atom_site_type_symbol
_atom_type_description
_atom_site_fract_x
_atom_site_fract_y
_atom_site_fract_z
_atom_type_partial_charge
C1    C     C_R   0.497733 0.260294 0.499918 0.897567
C2    C     C_R   0.029457 0.496002 0.570102 0.134997
C3    C     C_R   0.972166 0.513019 0.440147 0.154069
C4    C     C_R   0.865168 0.515418 0.428220 -0.274487
C5    C     C_R   0.868830 0.485411 0.672277 -0.263354
C6    C     C_R   0.977193 0.486069 0.688318 -0.022137
C7    C     C_R   0.514473 0.063376 0.620647 -0.035976
C8    C     C_R   0.487638 0.128518 0.500270 -0.094545
C9    C     C_R   0.446167 0.064183 0.382443 -0.222094
C10   C     C_R   0.446968 0.934482 0.382032 -0.217704
C11   C     C_R   0.487555 0.871078 0.500335 -0.062384
C12   C     C_R   0.298321 0.499017 0.473856 0.893110
C13   C     C_R   0.512169 0.935955 0.621746 0.030862
C14   C     C_3   0.603407 0.925646 0.729670 -0.522388
C15   C     C_3   0.607121 0.068541 0.728520 0.409892
C16   C     C_R   0.421438 0.441665 0.059504 0.157328
C17   C     C_R   0.571850 0.569555 0.080811 0.010579
C18   C     C_R   0.571522 0.567640 0.936844 -0.123860
C19   C     C_R   0.421091 0.442387 0.917241 0.227165
C20   C     C_3   0.390657 0.307559 0.905802 0.332974
C21   C     C_3   0.392359 0.306154 0.060155 -0.584050
C22   C     C_R   0.498529 0.739726 0.499824 0.871841
C23   C     C_R   0.701667 0.499898 0.526378 0.894768
C24   C     C_R   0.813635 0.499964 0.543057 -0.061059
C25   C     C_R   0.186378 0.500342 0.459312 -0.096956
C26   C     C_R   0.022148 0.525343 0.322490 -0.183271
C27   C     C_R   0.129574 0.520085 0.332204 -0.191752
C28   C     C_R   0.136526 0.485274 0.576339 -0.207016
H1    H     H_    0.822101 0.527710 0.328372 0.186001
H2    H     H_    0.671758 0.878933 0.694007 0.207706
H3    H     H_    0.585795 0.108167 0.825174 0.081538
H4    H     H_    0.629102 0.620594 0.888253 0.194019
H5    H     H_    0.451851 0.250202 0.865737 0.071753
H6    H     H_    0.314550 0.290042 0.095651 0.229409
H7    H     H_    0.456149 0.247995 0.111179 0.172899
H8    H     H_    0.827475 0.475554 0.761299 0.171843
H9    H     H_    0.978210 0.539158 0.223414 0.166192
H10   H     H_    0.167910 0.531569 0.240970 0.188377
H11   H     H_    0.182036 0.463221 0.671564 0.246944
H12   H     H_    0.417721 0.113318 0.290108 0.162091
H13   H     H_    0.420143 0.884683 0.288920 0.168560
H14   H     H_    0.579670 0.886460 0.825912 0.183165
N1    N     N_R   0.499290 0.499140 0.142710 -0.154202
N2    N     N_R   0.499290 0.499180 0.857070 -0.169365
O1    O     O_R   0.500010 0.316790 0.614690 -0.617240
O2    O     O_R   0.500000 0.316760 0.385350 -0.625177
O3    O     O_R   0.346360 0.499990 0.595720 -0.598458
O4    O     O_R   0.346350 0.499960 0.366370 -0.618637
O5    O     O_R   0.500000 0.683240 0.614650 -0.607881
O6    O     O_R   0.499990 0.683210 0.385310 -0.659878
O7    O     O_R   0.653650 0.500040 0.633630 -0.616206
O8    O     O_R   0.653640 0.500010 0.404280 -0.656263
Zn1   Zn    Zn3+2 0.500010 0.500020 0.653130 0.976439
Zn2   Zn    Zn3+2 0.499990 0.499980 0.346870 0.934274
O9    O     O_3   0.702670 0.122994 0.694914 -0.586150
C29   C     C_3   0.727320 0.098326 0.561649 -0.233401
H15   H     H_    0.700179 0.176283 0.492792 0.160300
H16   H     H_    0.696101 0.008031 0.517927 0.151580
H17   H     H_    0.813474 0.095429 0.564750 0.181905
C30   C     C_2   0.651444 0.649600 0.159974 0.372781
H18   H     H_    0.643172 0.678886 0.261857 0.138727
O10   O     O_2   0.728504 0.686855 0.109980 -0.614159
O11   O     O_3   0.288842 0.294122 0.837425 -0.574049
C31   C     C_3   0.269227 0.167140 0.804357 -0.296031
H19   H     H_    0.280722 0.106390 0.896397 0.163480
H20   H     H_    0.319239 0.135855 0.726806 0.163294
H21   H     H_    0.186701 0.156500 0.759568 0.194022
C32   C     C_2   0.029868 0.478474 0.829925 0.405625
H22   H     H_    0.992187 0.427631 0.906427 0.068471
O12   O     O_2   0.111320 0.535047 0.865172 -0.566419

loop_
_geom_bond_atom_site_label_1
_geom_bond_atom_site_label_2
_ccdc_geom_bond_type
C9    H12   S    
C4    H1    S    
C23   C24   S    
C17   N1    A    
C26   H9    S    
C15   H3    S    
C16   C21   S    
C21   H7    S    
C18   N2    A    
C25   C27   A    
C1    C8    S    
C9    C10   A    
C11   C22   S    
C23   O7    A    
C19   C20   S    
C28   H11   S    
C29   H17   S    
C22   O6    A    
C12   C25   S    
O3    Zn1   S    
C31   H19   S    
O2    Zn2   S    
C20   O11   S    
C7    C15   S    
C17   C18   A    
C23   O8    A    
O1    Zn1   S    
C7    C8    A    
C15   O9    S    
C2    C6    A    
C14   H14   S    
C19   N2    A    
C25   C28   A    
O4    Zn2   S    
C11   C13   A    
C16   N1    A    
C1    O1    A    
C26   C27   A    
O6    Zn2   S    
C5    C24   A    
C14   H2    S    
C12   O3    A    
O5    Zn1   S    
C20   H5    S    
C6    C32   S    
C12   O4    A    
C29   H16   S    
C2    C3    A    
C27   H10   S    
C22   O5    A    
C16   C19   A    
C5    C6    A    
C4    C24   A    
C1    O2    A    
C18   H4    S    
C10   C11   A    
C17   C30   S    
O11   C31   S    
C5    H8    S    
C7    C13   A    
C20   C21   S    
C8    C9    A    
C30   O10   D    
C29   H15   S    
C32   O12   D    
C14   C15   S    
C32   H22   S    
C2    C28   A    
C21   H6    S    
N1    Zn2   S    
O9    C29   S    
O7    Zn1   S    
C13   C14   S    
N2    Zn1   S    
C3    C26   A    
C31   H21   S    
C3    C4    A    
O8    Zn2   S    
C30   H18   S    
C10   H13   S    
C31   H20   S    
