data_mof_unit_22122.cif
_audit_creation_date              2012-12-11T14:13:27-0500
_audit_creation_method            fapswitch 2.2
_symmetry_space_group_name_H-M    P1
_symmetry_Int_Tables_number       1
_space_group_crystal_system       triclinic
_cell_length_a                    11.604916
_cell_length_b                    18.619027
_cell_length_c                    10.060459
_cell_angle_alpha                 89.742149
_cell_angle_beta                  110.42568
_cell_angle_gamma                 89.549583
_cell_volume                      2036.98680165

loop_
_atom_site_label
_atom_site_type_symbol
_atom_type_description
_atom_site_fract_x
_atom_site_fract_y
_atom_site_fract_z
_atom_type_partial_charge
C1    C     C_R   0.073972 0.646301 0.141061 0.570857
C2    C     C_2   0.608668 0.070829 0.068219 -0.099925
C3    C     C_2   0.624481 0.436798 0.026520 -0.124696
C4    C     C_2   0.413091 0.581368 0.905179 -0.124723
C5    C     C_2   0.495748 0.962807 0.991789 -0.175601
C6    C     C_2   0.500361 0.039845 0.018990 -0.173645
C7    C     C_2   0.543414 0.477838 0.929854 -0.168438
C8    C     C_2   0.522393 0.550786 0.967955 -0.159752
C9    C     C_2   0.000726 0.922409 0.114764 -0.012505
C10   C     C_2   0.954869 0.066720 0.873219 -0.010964
C11   C     C_2   0.992975 0.421220 0.886614 0.001071
C12   C     C_R   0.925938 0.353822 0.858872 0.567146
C13   C     C_2   0.006910 0.579059 0.113089 0.003162
C14   C     C_2   0.951456 0.948270 0.981701 -0.136580
C15   C     C_2   0.912735 0.024026 0.953556 -0.135404
C16   C     C_2   0.972576 0.464747 0.982754 -0.131120
C17   C     C_2   0.029950 0.534672 0.019929 -0.127251
C18   C     C_R   0.469807 0.646614 0.442594 0.546814
C19   C     C_R   0.529055 0.352407 0.555412 0.537617
C20   C     C_R   0.564301 0.137751 0.624215 0.534382
C21   C     C_R   0.436351 0.862291 0.376410 0.540103
C22   C     C_R   0.377640 0.646085 0.962013 0.554695
C23   C     C_R   0.916480 0.142391 0.856350 0.546660
C24   C     C_R   0.644464 0.362586 0.996862 0.564351
C25   C     C_R   0.624793 0.145003 0.036640 0.549876
C26   C     C_R   0.374461 0.855755 0.965449 0.549072
C27   C     C_R   0.500219 0.423214 0.483753 -0.040879
C28   C     C_R   0.494686 0.573780 0.506534 -0.038969
C29   C     C_R   0.456780 0.937645 0.422102 -0.033563
C30   C     C_R   0.546211 0.061656 0.581052 -0.039614
C31   C     C_R   0.282047 0.419058 0.458516 -0.074704
C32   C     C_R   0.713388 0.576382 0.529562 -0.075815
C33   C     C_R   0.624437 0.948564 0.322435 -0.069130
C34   C     C_R   0.072778 0.854534 0.140600 0.545984
C35   C     C_R   0.386536 0.049571 0.687294 -0.069944
C36   C     C_R   0.180208 0.451242 0.477211 -0.126047
C37   C     C_R   0.812777 0.543877 0.505524 -0.128367
C38   C     C_R   0.743519 0.968452 0.342105 -0.136521
C39   C     C_R   0.270619 0.028695 0.675667 -0.124233
C40   C     C_R   0.186383 0.522109 0.521342 -0.124130
C41   C     C_R   0.803309 0.473690 0.456660 -0.122023
C42   C     C_R   0.799476 0.019361 0.442146 -0.128445
C43   C     C_R   0.213277 0.975782 0.581638 -0.129107
C44   C     C_R   0.291598 0.562102 0.538496 -0.071518
C45   C     C_R   0.391526 0.457930 0.482166 0.007873
C46   C     C_R   0.697532 0.434491 0.440684 -0.062680
C47   C     C_R   0.733966 0.049496 0.520407 -0.088037
C48   C     C_R   0.274160 0.945619 0.498267 -0.101771
C49   C     C_R   0.392975 0.532130 0.509571 0.004624
C50   C     C_R   0.599596 0.464769 0.475741 0.010518
C51   C     C_R   0.613545 0.029301 0.503930 0.007655
C52   C     C_R   0.391181 0.968862 0.503219 0.008620
C53   C     C_3   0.025152 0.036345 0.786733 -0.421052
C54   C     C_3   0.008255 0.968636 0.240815 -0.405644
C55   C     C_3   0.920860 0.560947 0.191139 -0.406258
C56   C     C_R   0.602798 0.538605 0.505970 0.013015
C57   C     C_3   0.074298 0.441132 0.803342 -0.400221
C58   C     C_R   0.562417 0.972461 0.413091 0.025197
C59   C     C_R   0.442972 0.026304 0.592077 0.021991
C60   C     C_2   0.387882 0.931274 0.943313 -0.092329
Cr1   Cr    Cr6+3 0.187610 0.750000 0.979860 1.006827
Cr2   Cr    Cr6+3 0.812390 0.250000 0.020140 1.007259
Cr3   Cr    Cr6+3 0.245810 0.750000 0.341640 1.006571
Cr4   Cr    Cr6+3 0.754190 0.250000 0.658360 1.009638
Cr5   Cr    Cr6+3 0.485760 0.750000 0.219910 1.005096
Cr6   Cr    Cr6+3 0.514240 0.250000 0.780090 1.005096
H1    H     H_    0.097765 0.420524 0.461263 0.102004
H2    H     H_    0.722859 0.631443 0.565784 0.128070
H3    H     H_    0.584560 0.911214 0.239462 0.163364
H4    H     H_    0.429321 0.086908 0.768767 0.163898
H5    H     H_    0.294022 0.615632 0.580359 0.141452
H6    H     H_    0.692307 0.380807 0.398414 0.146981
H7    H     H_    0.780958 0.083885 0.601812 0.176277
H8    H     H_    0.224723 0.907630 0.424802 0.182676
H9    H     H_    0.416458 0.072177 0.985491 0.132713
H10   H     H_    0.580054 0.931030 0.019282 0.131226
H11   H     H_    0.590813 0.575918 0.058500 0.156696
H12   H     H_    0.895886 0.573881 0.521310 0.099448
H13   H     H_    0.487177 0.456103 0.827735 0.164414
H14   H     H_    0.691477 0.038000 0.104595 0.101382
H15   H     H_    0.304578 0.963310 0.914826 0.102900
H16   H     H_    0.343153 0.553779 0.820369 0.107389
H17   H     H_    0.680065 0.459079 0.128361 0.108994
H18   H     H_    0.853275 0.046732 0.005325 0.135124
H19   H     H_    0.954532 0.915990 0.893343 0.148082
H20   H     H_    0.096211 0.550423 0.971374 0.152017
H21   H     H_    0.908593 0.448313 0.033991 0.145182
H22   H     H_    0.112965 0.013847 0.860075 0.129466
H23   H     H_    0.790474 0.943675 0.278578 0.102992
H24   H     H_    0.972544 0.992883 0.717374 0.127502
H25   H     H_    0.041490 0.078632 0.717631 0.141510
H26   H     H_    0.929614 0.006129 0.219480 0.121399
H27   H     H_    0.008482 0.934625 0.331524 0.132618
H28   H     H_    0.092790 0.001321 0.269961 0.144880
H29   H     H_    0.826514 0.553685 0.113886 0.118608
H30   H     H_    0.952220 0.510993 0.254388 0.129253
H31   H     H_    0.917313 0.604663 0.264351 0.143604
H32   H     H_    0.170089 0.449131 0.876642 0.129944
H33   H     H_    0.076096 0.398129 0.727973 0.147310
H34   H     H_    0.229855 0.053465 0.744152 0.094500
H35   H     H_    0.039574 0.491200 0.741599 0.128837
H36   H     H_    0.109488 0.546331 0.542229 0.102448
H37   H     H_    0.878461 0.449195 0.432582 0.102727
H38   H     H_    0.893166 0.035225 0.459825 0.111673
H39   H     H_    0.122802 0.957801 0.574111 0.109804
H40   H     H_    0.275407 0.363380 0.426146 0.131775
O1    O     O_R   0.267710 0.668200 0.902110 -0.526346
O2    O     O_R   0.883280 0.330790 0.732340 -0.509446
O3    O     O_R   0.883280 0.169210 0.732340 -0.548562
O4    O     O_R   0.116720 0.830790 0.267660 -0.550654
O5    O     O_R   0.366710 0.675440 0.427590 -0.500928
O6    O     O_R   0.633290 0.324560 0.572410 -0.499378
O7    O     O_R   0.633290 0.175440 0.572410 -0.497423
O8    O     O_R   0.366710 0.824560 0.427590 -0.504902
O9    O     O_R   0.534870 0.669390 0.371760 -0.508919
O10   O     O_R   0.465130 0.330610 0.628240 -0.519657
O11   O     O_R   0.465130 0.169390 0.628240 -0.516692
O12   O     O_R   0.732290 0.331800 0.097890 -0.525794
O13   O     O_R   0.534870 0.830610 0.371760 -0.521601
O14   O     O_R   0.453080 0.674480 0.075160 -0.492644
O15   O     O_R   0.546920 0.325520 0.924840 -0.485282
O16   O     O_R   0.546920 0.174480 0.924840 -0.530501
O17   O     O_R   0.453080 0.825520 0.075160 -0.534808
O18   O     O_3   0.306390 0.750000 0.180470 -0.265898
O19   O     O_3   0.693610 0.250000 0.819530 -0.288379
O20   O     O_R   0.732290 0.168200 0.097890 -0.513081
O21   O     O_R   0.267710 0.831800 0.902110 -0.513412
O22   O     O_R   0.099480 0.674460 0.038850 -0.508565
O23   O     O_R   0.900520 0.325540 0.961150 -0.519265
O24   O     O_R   0.900520 0.174460 0.961150 -0.499565
O25   O     O_R   0.099480 0.825540 0.038850 -0.507100
O26   O     O_R   0.116720 0.669210 0.267660 -0.512503

loop_
_geom_bond_atom_site_label_1
_geom_bond_atom_site_label_2
_ccdc_geom_bond_type
C44   C49   A    
C30   C51   A    
C33   C58   A    
Cr2   O24   S    
C1    O22   A    
C4    C8    D    
C1    O26   A    
Cr3   O18   S    
C28   C56   A    
C36   H1    S    
C7    C8    S    
C20   C30   S    
C19   O6    A    
C22   O14   A    
C38   H23   S    
Cr6   O10   S    
Cr1   O18   S    
C38   C42   A    
C3    C7    D    
C10   C15   D    
C25   O20   A    
C43   H39   S    
C20   O7    A    
Cr4   O6    S    
C22   O1    A    
C57   H33   S    
C44   H5    S    
C35   C59   A    
C60   H15   S    
Cr5   O18   S    
C39   H34   S    
C10   C53   S    
C54   H27   S    
Cr3   O8    S    
C35   H4    S    
C16   C17   S    
Cr6   O11   S    
C53   H25   S    
C16   H21   S    
C41   C46   A    
Cr6   O16   S    
C53   H22   S    
C19   C27   S    
C25   O16   A    
C40   C44   A    
C46   H6    S    
C27   C50   A    
C33   H3    S    
C32   H2    S    
C27   C45   A    
C12   O2    A    
Cr3   O5    S    
Cr5   O9    S    
Cr2   O23   S    
C3    C24   S    
C2    C6    D    
C20   O11   A    
Cr4   O2    S    
C23   O3    A    
Cr2   O12   S    
C12   O23   A    
C17   H20   S    
C48   H8    S    
C6    H9    S    
C18   C28   S    
C18   O5    A    
C47   H7    S    
C55   H29   S    
Cr2   O20   S    
C55   H30   S    
C47   C51   A    
C8    H11   S    
Cr1   O22   S    
Cr3   O26   S    
C21   C29   S    
C50   C56   A    
C41   H37   S    
C23   O24   A    
C35   C39   A    
C9    C14   D    
C54   H26   S    
C52   C59   A    
C4    C22   S    
C28   C49   A    
C45   C49   A    
C30   C59   A    
C55   H31   S    
Cr5   O13   S    
Cr6   O15   S    
Cr1   O21   S    
C51   C58   A    
C32   C37   A    
C34   O25   A    
C3    H17   S    
C9    C34   S    
C34   O4    A    
C31   H40   S    
C1    C13   S    
C26   O17   A    
C36   C40   A    
C7    H13   S    
C43   C48   A    
Cr4   O7    S    
C5    C60   D    
C31   C36   A    
C14   H19   S    
C21   O8    A    
C42   H38   S    
C18   O9    A    
Cr2   O19   S    
C39   C43   A    
C11   C12   S    
C15   H18   S    
C10   C23   S    
C57   H35   S    
C37   H12   S    
C46   C50   A    
C24   O12   A    
C33   C38   A    
Cr6   O19   S    
C13   C17   D    
Cr3   O4    S    
C21   O13   A    
Cr4   O3    S    
C5    C6    S    
C19   O10   A    
C5    H10   S    
C57   H32   S    
C24   O15   A    
Cr5   O14   S    
C2    C25   S    
C26   O21   A    
Cr5   O17   S    
C37   C41   A    
Cr1   O1    S    
C54   H28   S    
C11   C16   D    
C2    H14   S    
Cr1   O25   S    
C40   H36   S    
C48   C52   A    
C42   C47   A    
C4    H16   S    
C29   C58   A    
Cr4   O19   S    
C31   C45   A    
C53   H24   S    
C14   C15   S    
C9    C54   S    
C11   C57   S    
C26   C60   S    
C32   C56   A    
C13   C55   S    
C29   C52   A    
