data_mof_unit_31644.cif
_audit_creation_date              2012-12-10T17:50:50-0500
_audit_creation_method            fapswitch 2.2
_symmetry_space_group_name_H-M    P1
_symmetry_Int_Tables_number       1
_space_group_crystal_system       triclinic
_cell_length_a                    14.682387
_cell_length_b                    14.695869
_cell_length_c                    15.838815
_cell_angle_alpha                 77.04692
_cell_angle_beta                  102.948791
_cell_angle_gamma                 115.062146
_cell_volume                      2984.55691344

loop_
_atom_site_label
_atom_site_type_symbol
_atom_type_description
_atom_site_fract_x
_atom_site_fract_y
_atom_site_fract_z
_atom_type_partial_charge
C1    C     C_R   0.880116 0.311905 0.515135 0.810284
C2    C     C_R   0.119741 0.687939 0.489353 0.812772
C3    C     C_R   0.783148 0.024492 0.559867 -0.286431
C4    C     C_R   0.218329 0.967751 0.509712 -0.302249
C5    C     C_R   0.849334 0.125729 0.542018 0.459083
C6    C     C_R   0.149374 0.868014 0.500345 0.465090
C7    C     C_R   0.709699 0.177463 0.530527 -0.327695
C8    C     C_R   0.291949 0.821735 0.508356 -0.327365
C9    C     C_R   0.641408 0.075764 0.545589 0.089572
C10   C     C_R   0.361572 0.918769 0.525740 0.089957
C11   C     C_R   0.679664 0.998942 0.559417 0.104029
C12   C     C_R   0.323322 0.993264 0.522649 0.085495
C13   C     C_R   0.535489 0.048221 0.542965 0.066825
C14   C     C_R   0.468260 0.944607 0.542632 0.082735
C15   C     C_R   0.509797 0.870090 0.560667 -0.241426
C16   C     C_R   0.494373 0.120387 0.540495 -0.211652
C17   C     C_R   0.613830 0.897095 0.570125 -0.227207
C18   C     C_R   0.390225 0.092728 0.532024 -0.169098
C19   C     C_R   0.722516 0.677389 0.360483 0.360258
C20   C     C_R   0.280273 0.326352 0.642435 0.354161
C21   C     C_R   0.801627 0.643222 0.382588 -0.033638
C22   C     C_R   0.200802 0.359871 0.620343 -0.023096
C23   C     C_R   0.999248 0.499323 0.660119 0.811789
C24   C     C_R   0.000060 0.499691 0.339904 0.822695
C25   C     C_R   0.713753 0.509102 0.486237 -0.001502
C26   C     C_R   0.286295 0.491187 0.513615 0.003702
C27   C     C_R   0.630256 0.538938 0.468421 -0.111546
C28   C     C_R   0.372320 0.465053 0.534603 -0.116979
C29   C     C_R   0.636400 0.626139 0.404866 -0.041280
C30   C     C_R   0.367849 0.379749 0.600178 -0.040179
C31   C     C_R   0.542420 0.485963 0.512376 0.048680
C32   C     C_R   0.461218 0.519941 0.492089 0.043917
C33   C     C_R   0.471323 0.607651 0.429805 -0.320577
C34   C     C_R   0.533189 0.399482 0.575673 -0.330900
C35   C     C_R   0.556851 0.660612 0.387477 0.448001
C36   C     C_R   0.450244 0.349196 0.621499 0.452608
C37   C     C_3   0.037882 0.433773 0.049242 -0.155770
C38   C     C_3   0.955766 0.561983 0.950016 -0.164316
C39   C     C_3   0.941555 0.403626 0.979737 -0.163713
C40   C     C_3   0.052083 0.592115 0.019523 -0.154917
C41   C     C_1   0.997939 0.498703 0.749731 -0.176775
C42   C     C_1   0.999724 0.498778 0.250190 -0.184449
C43   C     C_3   0.092648 0.528051 0.984846 -0.150942
C44   C     C_3   0.900976 0.467692 0.014500 -0.159852
C45   C     C_3   0.996371 0.497922 0.916887 0.190879
C46   C     C_3   0.997350 0.497843 0.082451 0.191964
C47   C     C_1   0.996883 0.498264 0.825218 -0.076973
C48   C     C_1   0.998681 0.498188 0.174432 -0.076986
C49   C     C_R   0.812763 0.203344 0.529030 -0.159214
C50   C     C_R   0.186878 0.795082 0.496583 -0.141967
Cu1   Cu    Cu3+1 0.081740 0.475690 0.522610 0.935919
Cu2   Cu    Cu3+1 0.918260 0.524310 0.477390 0.930293
H1    H     H_    0.896158 0.326303 0.961961 0.136739
H2    H     H_    0.097453 0.669477 0.037219 0.131896
H3    H     H_    0.281025 0.551467 0.462557 0.141338
H4    H     H_    0.717866 0.446779 0.535229 0.139843
H5    H     H_    0.134781 0.321782 0.653541 0.153931
H6    H     H_    0.870051 0.684444 0.352738 0.159448
H7    H     H_    0.413738 0.638321 0.411633 0.141358
H8    H     H_    0.589548 0.367613 0.591948 0.133174
H9    H     H_    0.071572 0.381152 0.091348 0.131890
H10   H     H_    0.922098 0.614588 0.907831 0.132966
H11   H     H_    0.822285 0.442847 0.028011 0.130610
H12   H     H_    0.171303 0.552844 0.971265 0.133502
H13   H     H_    0.642532 0.837685 0.582620 0.138103
H14   H     H_    0.361811 0.150184 0.530936 0.161443
H15   H     H_    0.318228 0.765843 0.501583 0.166466
H16   H     H_    0.683739 0.238322 0.516884 0.168825
H17   H     H_    0.812219 0.965526 0.570870 0.135705
H18   H     H_    0.189530 0.025147 0.507604 0.132605
H19   H     H_    0.463661 0.789757 0.569778 0.146649
H20   H     H_    0.540845 0.198620 0.547474 0.141070
N1    N     N_R   0.795440 0.560790 0.443380 -0.212906
N2    N     N_R   0.204560 0.439210 0.556620 -0.206910
O1    O     O_R   0.977900 0.338120 0.529810 -0.553947
O2    O     O_R   0.022100 0.661880 0.470190 -0.550161
O3    O     O_R   0.839850 0.379180 0.491620 -0.589895
O4    O     O_R   0.160150 0.620820 0.508380 -0.592658
O5    O     O_R   0.069010 0.479460 0.640020 -0.572362
O6    O     O_R   0.930990 0.520540 0.359980 -0.574319
O7    O     O_R   0.930960 0.520530 0.601820 -0.594452
O8    O     O_R   0.069040 0.479470 0.398180 -0.582820
O9    O     O_3   0.734843 0.767519 0.304107 -0.590548
C51   C     C_3   0.748550 0.761876 0.219968 0.071812
H21   H     H_    0.684195 0.771959 0.172218 0.175396
H22   H     H_    0.748472 0.687884 0.212916 0.113601
C52   C     C_3   0.847623 0.848402 0.196201 -0.353989
H23   H     H_    0.844469 0.922258 0.197789 0.225429
H24   H     H_    0.912477 0.841304 0.245091 0.223456
C53   C     C_3   0.865447 0.847186 0.105261 -0.926513
H25   H     H_    0.871302 0.774910 0.102818 0.257329
H26   H     H_    0.937499 0.911220 0.089930 0.259040
H27   H     H_    0.802156 0.855664 0.055050 0.255497
O10   O     O_3   0.275444 0.246677 0.709838 -0.586060
C54   C     C_3   0.197640 0.154404 0.686008 0.073331
H28   H     H_    0.233349 0.099460 0.692356 0.177379
H29   H     H_    0.158543 0.159997 0.616960 0.129077
C55   C     C_3   0.119086 0.112517 0.748983 -0.324720
H30   H     H_    0.158390 0.109516 0.817624 0.225307
H31   H     H_    0.078026 0.163235 0.739586 0.218179
C56   C     C_3   0.042149 0.006201 0.734309 -0.922443
H32   H     H_    0.002770 0.006398 0.665722 0.276305
H33   H     H_    0.984556 0.979065 0.779057 0.260213
H34   H     H_    0.081603 0.953482 0.748464 0.244477
O11   O     O_3   0.045682 0.844232 0.487743 -0.601384
C57   C     C_3   0.014583 0.847958 0.565099 0.000994
H35   H     H_    0.954138 0.878218 0.545302 0.160251
H36   H     H_    0.075971 0.898670 0.609441 0.127477
C58   C     C_3   0.969183 0.740967 0.614995 -0.269040
H37   H     H_    0.906137 0.692373 0.570704 0.255086
H38   H     H_    0.028930 0.709781 0.636166 0.204760
C59   C     C_3   0.927578 0.739426 0.695557 -0.958244
H39   H     H_    0.990637 0.778145 0.745310 0.258475
H40   H     H_    0.887624 0.659514 0.724920 0.261480
H41   H     H_    0.872882 0.777035 0.677469 0.256548
O12   O     O_3   0.950092 0.147557 0.539300 -0.622295
C60   C     C_3   0.966008 0.163566 0.451184 0.054383
H42   H     H_    0.041124 0.227111 0.444447 0.177405
H43   H     H_    0.908985 0.186680 0.402189 0.118051
C61   C     C_3   0.968846 0.068555 0.429683 -0.366339
H44   H     H_    0.029565 0.050201 0.476231 0.216869
H45   H     H_    0.894758 0.003662 0.436931 0.218203
C62   C     C_3   0.990371 0.084242 0.336515 -0.883798
H46   H     H_    0.928990 0.099988 0.288529 0.248578
H47   H     H_    0.993757 0.014412 0.324048 0.270863
H48   H     H_    0.064416 0.148530 0.327476 0.248066
O13   O     O_3   0.557392 0.741552 0.322721 -0.584052
C63   C     C_3   0.585810 0.828844 0.362039 0.106699
H49   H     H_    0.657248 0.841592 0.409675 0.149379
H50   H     H_    0.523820 0.821072 0.396173 0.130512
C64   C     C_3   0.604113 0.921187 0.290471 -0.305804
H51   H     H_    0.663451 0.927737 0.253810 0.240154
H52   H     H_    0.532730 0.910930 0.243854 0.213658
C65   C     C_3   0.638597 0.019097 0.328592 -0.925510
H53   H     H_    0.580653 0.014426 0.365817 0.269081
H54   H     H_    0.648976 0.084034 0.274704 0.252139
H55   H     H_    0.712268 0.033070 0.372343 0.259131
O14   O     O_3   0.445966 0.263381 0.681794 -0.587489
C66   C     C_3   0.524240 0.288521 0.754241 0.090588
H56   H     H_    0.487745 0.267027 0.814064 0.176137
H57   H     H_    0.574280 0.371143 0.751026 0.116918
C67   C     C_3   0.589318 0.227352 0.764017 -0.343237
H58   H     H_    0.540747 0.144897 0.774788 0.232361
H59   H     H_    0.622516 0.243831 0.703109 0.210354
C68   C     C_3   0.675596 0.253086 0.840629 -0.940392
H60   H     H_    0.726800 0.334714 0.829855 0.258722
H61   H     H_    0.720678 0.206904 0.846371 0.259051
H62   H     H_    0.644605 0.236121 0.902810 0.254515

loop_
_geom_bond_atom_site_label_1
_geom_bond_atom_site_label_2
_ccdc_geom_bond_type
C52   H23   S    
C56   H32   S    
C27   C29   A    
C1    O3    A    
C54   H28   S    
C16   H20   S    
Cu1   N2    S    
C64   C65   S    
C63   H49   S    
C65   H55   S    
C59   H40   S    
C68   H60   S    
C54   C55   S    
C62   H46   S    
C20   C30   A    
C40   C46   S    
C3    H17   S    
Cu1   O1    S    
C60   H43   S    
C66   C67   S    
C62   H47   S    
C57   H35   S    
C21   N1    A    
C24   C42   S    
O12   C60   S    
C15   C17   A    
C9    C13   A    
C38   C45   S    
C24   O8    A    
C2    C50   S    
C26   N2    A    
C7    H16   S    
C24   O6    A    
C40   C43   S    
O9    C51   S    
C61   H45   S    
C1    C49   S    
C25   H4    S    
C4    C12   A    
C25   N1    A    
C61   C62   S    
C39   C45   S    
C33   H7    S    
C13   C14   A    
C26   H3    S    
C34   H8    S    
C67   C68   S    
C5    C49   A    
O10   C54   S    
C22   H5    S    
C19   O9    S    
C4    H18   S    
C59   H39   S    
C68   H61   S    
C44   C46   S    
C43   H12   S    
C45   C47   S    
C44   H11   S    
C46   C48   S    
C27   C31   A    
Cu1   Cu2   S    
C1    O1    A    
C28   C32   A    
C51   H21   S    
C7    C49   A    
C4    C6    A    
Cu2   N1    S    
C10   C14   A    
C58   C59   S    
C62   H48   S    
C65   H54   S    
C64   H52   S    
C37   C43   S    
C38   C44   S    
C2    O4    A    
C43   C45   S    
C53   H26   S    
C31   C32   A    
C41   C47   T    
C31   C34   A    
C42   C48   T    
C6    C50   A    
C35   O13   S    
C9    C11   A    
Cu1   O8    S    
C65   H53   S    
C10   C12   A    
C16   C18   A    
C17   H13   S    
C20   C22   A    
C56   H34   S    
C40   H2    S    
C52   H24   S    
C5    O12   S    
Cu2   O2    S    
C67   H59   S    
C60   C61   S    
C18   H14   S    
C22   N2    A    
Cu2   O3    S    
C19   C29   A    
C63   C64   S    
C8    C50   A    
C68   H62   S    
C2    O2    A    
C61   H44   S    
C53   H27   S    
C56   H33   S    
C7    C9    A    
C20   O10   S    
C11   C17   A    
C23   O7    A    
C19   C21   A    
C14   C15   A    
C26   C28   A    
C51   H22   S    
C3    C5    A    
C64   H51   S    
C63   H50   S    
C37   H9    S    
C66   H56   S    
C54   H29   S    
C39   C44   S    
C51   C52   S    
C25   C27   A    
C55   C56   S    
C15   H19   S    
O11   C57   S    
C29   C35   A    
C55   H31   S    
C23   C41   S    
C30   C36   A    
C32   C33   A    
C58   H38   S    
C13   C16   A    
Cu1   O4    S    
C21   H6    S    
C37   C39   S    
Cu2   O6    S    
C58   H37   S    
C38   C40   S    
C66   H57   S    
C53   H25   S    
C39   H1    S    
C57   H36   S    
C28   C30   A    
C33   C35   A    
C6    O11   S    
C34   C36   A    
Cu2   O7    S    
Cu1   O5    S    
C3    C11   A    
O14   C66   S    
C8    H15   S    
C8    C10   A    
C55   H30   S    
C52   C53   S    
C12   C18   A    
C67   H58   S    
C23   O5    A    
C37   C46   S    
C60   H42   S    
C36   O14   S    
C59   H41   S    
O13   C63   S    
C38   H10   S    
C57   C58   S    
