data_mof_unit_65085.cif
_audit_creation_date              2012-12-10T16:58:20-0500
_audit_creation_method            fapswitch 2.2
_symmetry_space_group_name_H-M    P1
_symmetry_Int_Tables_number       1
_space_group_crystal_system       triclinic
_cell_length_a                    21.739494
_cell_length_b                    21.73566
_cell_length_c                    22.225386
_cell_angle_alpha                 60.178066
_cell_angle_beta                  119.15142
_cell_angle_gamma                 90.189832
_cell_volume                      7551.18309685

loop_
_atom_site_label
_atom_site_type_symbol
_atom_type_description
_atom_site_fract_x
_atom_site_fract_y
_atom_site_fract_z
_atom_type_partial_charge
C1    C     C_R   0.620188 0.498732 0.502854 0.848093
C2    C     C_R   0.804348 0.530839 0.673062 -0.132831
C3    C     C_R   0.862481 0.543560 0.663089 -0.132492
C4    C     C_R   0.419561 0.580448 0.339680 0.822162
C5    C     C_R   0.865818 0.536814 0.605503 -0.140480
C6    C     C_R   0.810491 0.517036 0.556536 0.093503
C7    C     C_R   0.748340 0.509822 0.562049 0.020790
C8    C     C_R   0.689181 0.497564 0.506945 -0.235858
C9    C     C_R   0.693974 0.488615 0.451004 0.606474
C10   C     C_R   0.756375 0.492153 0.448633 -0.265378
C11   C     C_R   0.814813 0.505435 0.501206 -0.197572
C12   C     C_3   0.289703 0.710204 0.082462 0.107235
C13   C     C_3   0.706577 0.228221 0.028576 -0.236033
C14   C     C_3   0.701746 0.310128 0.971799 -0.212343
C15   C     C_1   0.625374 0.374150 0.750181 -0.144931
C16   C     C_R   0.379539 0.501784 0.496453 0.808742
C17   C     C_1   0.875350 0.124652 0.249852 -0.165419
C18   C     C_3   0.714941 0.209830 0.973846 0.561858
C19   C     C_3   0.709486 0.290610 0.917498 0.112790
C20   C     C_3   0.800143 0.188090 0.028484 -0.232180
C21   C     C_3   0.791905 0.207814 0.082594 0.112524
C22   C     C_3   0.794554 0.270335 0.971686 -0.216124
C23   C     C_3   0.212746 0.709933 0.973465 -0.219672
C24   C     C_3   0.787480 0.289173 0.027334 -0.123268
C25   C     C_1   0.663326 0.336299 0.825659 -0.000148
C26   C     C_1   0.837756 0.162161 0.174383 -0.034323
C27   C     C_R   0.251896 0.639178 0.375439 -0.369600
C28   C     C_R   0.580202 0.419593 0.660307 0.798936
C29   C     C_R   0.194861 0.707488 0.324633 0.461832
C30   C     C_R   0.137965 0.708555 0.337098 0.619356
C31   C     C_R   0.134649 0.642976 0.394381 -0.317623
C32   C     C_R   0.189407 0.573767 0.442589 -0.064286
C33   C     C_R   0.251119 0.572685 0.436518 0.045288
C34   C     C_3   0.208267 0.791113 0.917426 0.108775
C35   C     C_R   0.310229 0.504807 0.491474 -0.141149
C36   C     C_R   0.305719 0.439065 0.547330 -0.251149
C37   C     C_R   0.243993 0.439366 0.550897 0.603265
C38   C     C_R   0.185319 0.505847 0.498467 -0.187788
C39   C     C_R   0.998056 0.882945 0.496529 0.775774
C40   C     C_3   0.293202 0.771415 0.972031 -0.196497
C41   C     C_R   0.080013 0.919753 0.660285 0.807873
C42   C     C_R   0.001503 0.117267 0.502665 0.776387
C43   C     C_R   0.919993 0.079993 0.339710 0.807431
C44   C     C_R   0.997366 0.619140 0.499634 0.758535
C45   C     C_3   0.204504 0.729589 0.028007 -0.246419
C46   C     C_R   0.881155 0.502572 0.500200 0.810706
C47   C     C_R   0.003048 0.380742 0.500461 0.795513
C48   C     C_R   0.118924 0.502247 0.499741 0.843246
C49   C     C_R   0.860754 0.874905 0.378109 -0.163886
C50   C     C_R   0.794059 0.867331 0.329634 -0.136657
C51   C     C_R   0.791962 0.799029 0.339808 -0.122372
C52   C     C_3   0.285597 0.791567 0.026544 -0.226898
C53   C     C_R   0.857025 0.738663 0.396291 -0.166015
C54   C     C_R   0.925857 0.745793 0.443921 0.097509
C55   C     C_R   0.927041 0.813635 0.438169 0.101397
C56   C     C_3   0.200802 0.810321 0.971473 0.564570
C57   C     C_R   0.994769 0.818434 0.491748 -0.094028
C58   C     C_R   0.060315 0.758722 0.545778 -0.185184
C59   C     C_R   0.059682 0.693629 0.548760 -0.189020
C60   C     C_R   0.993426 0.686743 0.498121 -0.093292
C61   C     C_R   0.135696 0.120486 0.628433 -0.358353
C62   C     C_R   0.201808 0.124970 0.682086 0.576276
C63   C     C_R   0.205142 0.192378 0.674000 0.626920
C64   C     C_1   0.373955 0.626092 0.249786 -0.161989
C65   C     C_R   0.141742 0.254896 0.614085 -0.331756
C66   C     C_R   0.073305 0.251111 0.560858 -0.011498
C67   C     C_1   0.335763 0.664260 0.174294 -0.036325
C68   C     C_R   0.071322 0.183881 0.565347 0.013878
C69   C     C_R   0.004665 0.181666 0.507395 -0.024814
C70   C     C_R   0.940546 0.243468 0.449488 -0.193079
C71   C     C_R   0.941694 0.308318 0.447009 -0.189093
C72   C     C_R   0.007039 0.312767 0.502295 -0.037070
C73   C     C_1   0.124712 0.874766 0.750135 -0.140085
C74   C     C_3   0.298372 0.689548 0.029406 -0.116580
C75   C     C_3   0.689865 0.098769 0.005869 -0.269564
C76   C     C_3   0.228962 0.768620 0.229968 -0.298483
C77   C     C_3   0.151212 0.879447 0.998076 -0.289153
C78   C     C_1   0.162399 0.836973 0.825601 0.013156
C79   C     C_R   0.747734 0.514077 0.623285 -0.131169
Cu1   Cu    Cu3+1 0.500040 0.438210 0.499990 1.033145
Cu2   Cu    Cu3+1 0.499960 0.561790 0.500010 0.966036
Cu3   Cu    Cu3+1 0.061810 0.999860 0.500010 0.998382
Cu4   Cu    Cu3+1 0.938190 0.999990 0.499990 0.973818
Cu5   Cu    Cu3+1 0.958570 0.541460 0.417120 0.975860
Cu6   Cu    Cu3+1 0.041430 0.458560 0.582880 1.003074
F1    F     F_    0.084466 0.774014 0.292253 -0.624313
F2    F     F_    0.241397 0.374080 0.605395 -0.639226
F3    F     F_    0.263037 0.063693 0.741684 -0.612007
F4    F     F_    0.269948 0.197228 0.724852 -0.573044
F5    F     F_    0.637330 0.477760 0.397219 -0.649274
H1    H     H_    0.315446 0.824780 0.049046 0.152954
H2    H     H_    0.351039 0.387233 0.589622 0.193757
H3    H     H_    0.328991 0.788563 0.948068 0.171924
H4    H     H_    0.296639 0.638023 0.367159 0.172572
H5    H     H_    0.089522 0.647698 0.401572 0.195643
H6    H     H_    0.112217 0.762111 0.586855 0.158725
H7    H     H_    0.859701 0.929409 0.366925 0.147887
H8    H     H_    0.743682 0.914547 0.284398 0.139034
H9    H     H_    0.739793 0.792937 0.303273 0.144287
H10   H     H_    0.852393 0.686485 0.402766 0.145513
H11   H     H_    0.111482 0.648587 0.590195 0.158764
H12   H     H_    0.905521 0.558140 0.700603 0.138494
H13   H     H_    0.889476 0.241832 0.405089 0.151880
H14   H     H_    0.135513 0.066737 0.637735 0.199696
H15   H     H_    0.147485 0.306067 0.609493 0.250027
H16   H     H_    0.890855 0.355073 0.402295 0.156168
H17   H     H_    0.168590 0.712369 0.051783 0.142712
H18   H     H_    0.182879 0.676896 0.950670 0.156559
H19   H     H_    0.339471 0.638815 0.054625 0.154579
H20   H     H_    0.704373 0.503636 0.634278 0.141546
H21   H     H_    0.802764 0.534566 0.719108 0.135800
H22   H     H_    0.672430 0.099359 0.045089 0.151245
H23   H     H_    0.911488 0.548343 0.599159 0.140236
H24   H     H_    0.749612 0.066238 0.045125 0.154583
H25   H     H_    0.657659 0.069581 0.978435 0.208408
H26   H     H_    0.211085 0.730332 0.209889 0.140885
H27   H     H_    0.290330 0.750797 0.272494 0.173801
H28   H     H_    0.212110 0.824433 0.173234 0.186485
H29   H     H_    0.206688 0.880705 0.038899 0.148658
H30   H     H_    0.137332 0.832259 0.035853 0.152509
H31   H     H_    0.109647 0.931958 0.968299 0.209991
H32   H     H_    0.759509 0.483533 0.406041 0.182938
H33   H     H_    0.661321 0.360849 0.947549 0.158566
H34   H     H_    0.670947 0.210355 0.052649 0.146965
H35   H     H_    0.818180 0.321517 0.050722 0.145184
H36   H     H_    0.829949 0.288550 0.947337 0.156627
H37   H     H_    0.840653 0.137566 0.052488 0.152182
O1    O     O_R   0.590210 0.447820 0.500000 -0.528713
O2    O     O_R   0.034940 0.555150 0.570020 -0.596087
O3    O     O_R   0.874830 0.535020 0.430000 -0.590436
O4    O     O_R   0.590150 0.552170 0.500020 -0.599365
O5    O     O_R   0.944810 0.465010 0.569970 -0.582881
O6    O     O_R   0.965060 0.444870 0.429980 -0.584326
O7    O     O_R   0.035040 0.374860 0.569950 -0.578270
O8    O     O_R   0.055190 0.535000 0.430030 -0.591572
O9    O     O_R   0.125170 0.465000 0.570000 -0.538971
O10   O     O_R   0.439580 0.508290 0.379070 -0.557839
O11   O     O_R   0.439510 0.612640 0.379090 -0.596888
O12   O     O_R   0.947780 0.909820 0.499990 -0.590939
O13   O     O_R   0.409850 0.447830 0.499980 -0.582188
O14   O     O_R   0.409790 0.552180 0.500000 -0.582140
O15   O     O_R   0.560490 0.387360 0.620910 -0.568851
O16   O     O_R   0.560420 0.491710 0.620930 -0.590870
O17   O     O_R   0.052170 0.909710 0.500000 -0.574480
O18   O     O_3   0.674394 0.171771 0.940153 -0.565578
O19   O     O_3   0.194735 0.775755 0.267214 -0.523807
O20   O     O_3   0.147227 0.876094 0.934698 -0.566814
O21   O     O_R   0.112650 0.939420 0.620930 -0.577099
O22   O     O_R   0.008260 0.939530 0.620910 -0.570130
O23   O     O_R   0.052220 0.090030 0.500010 -0.579955
O24   O     O_R   0.947830 0.090140 0.500000 -0.579477
O25   O     O_R   0.991740 0.060320 0.379090 -0.568145
O26   O     O_R   0.887350 0.060430 0.379070 -0.589837
O27   O     O_R   0.964960 0.625150 0.430050 -0.585449

loop_
_geom_bond_atom_site_label_1
_geom_bond_atom_site_label_2
_ccdc_geom_bond_type
C66   C68   A    
C21   C26   S    
C63   C65   A    
Cu5   O8    S    
C34   C56   S    
C23   C45   S    
C12   C74   S    
C27   C29   A    
C1    C8    S    
C48   O8    A    
C35   C36   A    
C1    O1    A    
C40   H3    S    
C77   H30   S    
C74   H19   S    
Cu4   O12   S    
C15   C28   S    
C7    C8    A    
C54   C60   A    
C53   C54   A    
C75   O18   S    
C75   H22   S    
C37   C38   A    
C13   C18   S    
C34   C40   S    
C17   C26   T    
C36   C37   A    
C11   C46   S    
C69   C70   A    
Cu6   O5    S    
C46   O5    A    
C30   C31   A    
C33   C35   A    
C22   H36   S    
C41   O22   A    
Cu1   O10   S    
C39   C57   S    
Cu2   O4    S    
C18   C19   S    
C12   C45   S    
C14   C24   S    
C58   H6    S    
C2    C79   A    
Cu6   O2    S    
C4    O10   A    
Cu5   O27   S    
C66   C72   A    
C45   C56   S    
C8    C9    A    
C73   C78   T    
C70   C71   A    
C32   C38   A    
C30   F1    S    
C29   C30   A    
C9    C10   A    
C77   O20   S    
C38   C48   S    
Cu6   O7    S    
C36   H2    S    
Cu2   O14   S    
C76   O19   S    
C59   C60   A    
C13   C14   S    
C47   O6    A    
C16   O13   A    
C19   C25   S    
C65   H15   S    
C12   C52   S    
C37   F2    S    
Cu4   O24   S    
C53   H10   S    
C51   H9    S    
Cu2   O11   S    
C2    H21   S    
C12   C67   S    
C39   O12   A    
Cu5   O6    S    
C50   H8    S    
C59   H11   S    
C64   C67   T    
C19   C22   S    
Cu5   Cu6   S    
C20   H37   S    
Cu3   O17   S    
C29   O19   S    
C75   H24   S    
C13   H34   S    
C70   H13   S    
C68   C69   A    
Cu1   O1    S    
C77   H29   S    
C58   C59   A    
Cu1   O13   S    
C41   C73   S    
Cu3   Cu4   S    
C42   C69   S    
C27   C33   A    
C51   C53   A    
C17   C43   S    
C62   C63   A    
C31   C32   A    
C23   C34   S    
C49   C55   A    
C63   F4    S    
C50   C51   A    
C13   C21   S    
C28   O16   A    
C39   O17   A    
C42   O24   A    
Cu3   O23   S    
C10   H32   S    
C3    H12   S    
C20   C22   S    
C65   C66   A    
Cu1   O15   S    
C55   C57   A    
C47   O7    A    
C24   H35   S    
C22   C24   S    
C71   H16   S    
C75   H25   S    
C23   C74   S    
C3    C5    A    
C6    C11   A    
C7    C79   A    
C54   C55   A    
C14   H33   S    
C79   H20   S    
C5    H23   S    
C18   O18   S    
C14   C19   S    
C48   O9    A    
Cu1   Cu2   S    
C1    O4    A    
C9    F5    S    
C46   O3    A    
Cu3   O21   S    
C6    C7    A    
Cu4   O26   S    
C4    C64   S    
C76   H27   S    
C44   O27   A    
C32   C33   A    
C56   O20   S    
C2    C3    A    
C44   O2    A    
C71   C72   A    
C16   C35   S    
C40   C52   S    
C34   C78   S    
C61   H14   S    
C61   C68   A    
C57   C58   A    
C5    C6    A    
C41   O21   A    
C62   F3    S    
C44   C60   S    
C31   H5    S    
C23   H18   S    
Cu5   O3    S    
C76   H26   S    
C40   C74   S    
C16   O14   A    
C18   C20   S    
C27   H4    S    
C61   C62   A    
C42   O23   A    
C76   H28   S    
C47   C72   S    
C49   H7    S    
C77   H31   S    
C10   C11   A    
Cu6   O9    S    
C4    O11   A    
C45   H17   S    
Cu2   O16   S    
C28   O15   A    
C20   C21   S    
C15   C25   T    
C49   C50   A    
C21   C24   S    
C52   H1    S    
C43   O26   A    
Cu3   O25   S    
C43   O25   A    
C52   C56   S    
Cu4   O22   S    
