data_mof_unit_15579.cif
_audit_creation_date              2012-10-26T19:55:47-0400
_audit_creation_method            fapswitch 2.2
_symmetry_space_group_name_H-M    P1
_symmetry_Int_Tables_number       1
_space_group_crystal_system       triclinic
_cell_length_a                    11.033077
_cell_length_b                    10.94739
_cell_length_c                    9.708306
_cell_angle_alpha                 91.583719
_cell_angle_beta                  92.837275
_cell_angle_gamma                 94.454289
_cell_volume                      1167.04365338

loop_
_atom_site_label
_atom_site_type_symbol
_atom_type_description
_atom_site_fract_x
_atom_site_fract_y
_atom_site_fract_z
_atom_type_partial_charge
C1    C     C_R   0.506361 0.262964 0.499350 0.574981
C2    C     C_R   0.951450 0.734889 0.954166 0.264111
C3    C     C_R   0.905104 0.644929 0.040576 -0.099717
C4    C     C_R   0.262319 0.500810 0.496702 0.556785
C5    C     C_R   0.860374 0.530487 0.985971 -0.159942
C6    C     C_R   0.867247 0.504278 0.845547 -0.067598
C7    C     C_R   0.912977 0.592518 0.756680 -0.018624
C8    C     C_R   0.564219 0.119041 0.754060 0.085996
C9    C     C_R   0.526954 0.066871 0.876583 -0.070701
C10   C     C_R   0.456839 0.956129 0.871777 -0.105886
C11   C     C_R   0.434751 0.891096 0.746866 -0.085149
C12   C     C_R   0.168086 0.479991 0.966001 -0.169799
C13   C     C_R   0.475404 0.940804 0.624066 0.008783
C14   C     C_R   0.517308 0.065362 0.625911 0.023360
C15   C     C_R   0.513475 0.128542 0.500029 0.025186
C16   C     C_R   0.490552 0.736577 0.500640 0.586814
C17   C     C_R   0.500108 0.060057 0.375394 -0.135376
C18   C     C_R   0.489945 0.932532 0.375950 -0.097627
C19   C     C_R   0.480123 0.870715 0.500654 0.031767
C20   C     C_R   0.629815 0.706920 0.143646 0.221307
C21   C     C_R   0.664648 0.807999 0.065152 -0.133452
C22   C     C_R   0.674976 0.793989 0.924427 -0.026779
C23   C     C_R   0.924001 0.461928 0.387916 -0.096117
C24   C     C_R   0.633752 0.682799 0.861917 -0.094565
C25   C     C_R   0.564112 0.593212 0.929952 0.089443
C26   C     C_R   0.563961 0.597574 0.079073 0.138095
C27   C     C_R   0.442641 0.406328 0.065317 0.135184
C28   C     C_R   0.737756 0.501361 0.503696 0.601093
C29   C     C_R   0.442930 0.408524 0.918575 0.008966
C30   C     C_R   0.188181 0.580359 0.058700 0.047081
C31   C     C_R   0.149944 0.569576 0.191575 -0.082521
C32   C     C_R   0.093734 0.460290 0.235771 -0.013819
C33   C     C_R   0.066735 0.359505 0.141019 0.056405
C34   C     C_R   0.872218 0.502364 0.508406 0.030616
C35   C     C_R   0.107318 0.369539 0.004628 0.026501
C36   C     C_2   0.676259 0.202395 0.761446 0.629061
C37   C     C_2   0.376295 0.296842 0.121595 0.567176
C38   C     C_2   0.239200 0.701067 0.017204 0.585297
C39   C     C_2   0.738438 0.890725 0.843626 0.578346
C40   C     C_2   0.995995 0.247175 0.183994 0.610358
C41   C     C_2   0.094187 0.265846 0.901777 0.614228
C42   C     C_R   0.951199 0.550934 0.620330 -0.010312
C43   C     C_R   0.076828 0.551601 0.608799 -0.117098
C44   C     C_R   0.127933 0.505047 0.491967 0.016803
C45   C     C_R   0.049767 0.465781 0.376594 0.012622
C46   C     C_R   0.954980 0.709301 0.812118 -0.037688
Cl1   Cl    Cl    0.721854 0.724498 0.297732 -0.600110
Cl2   Cl    Cl    0.008762 0.877502 0.026411 -0.512332
Cu1   Cu    Cu3+1 0.499990 0.499990 0.640660 0.991645
Cu2   Cu    Cu3+1 0.500010 0.500010 0.359340 1.073826
H1    H     H_    0.203037 0.486298 0.864536 0.164905
H2    H     H_    0.704318 0.892257 0.116180 0.198691
H3    H     H_    0.660930 0.666246 0.760113 0.230092
H4    H     H_    0.394228 0.335031 0.856591 0.159839
H5    H     H_    0.160937 0.648623 0.262273 0.173492
H6    H     H_    0.865900 0.432465 0.298073 0.134444
H7    H     H_    0.136295 0.591257 0.692478 0.165896
H8    H     H_    0.996415 0.777529 0.746613 0.171643
H9    H     H_    0.831647 0.254250 0.667304 0.354342
H10   H     H_    0.267066 0.223610 0.262770 0.358269
H11   H     H_    0.275533 0.878331 0.080561 0.371169
H12   H     H_    0.907903 0.662371 0.150574 0.196124
H13   H     H_    0.791808 0.946262 0.657881 0.373662
H14   H     H_    0.858946 0.117467 0.138654 0.380481
H15   H     H_    0.097093 0.084498 0.863106 0.378167
H16   H     H_    0.826180 0.460067 0.053167 0.165857
H17   H     H_    0.846586 0.412781 0.806938 0.199953
H18   H     H_    0.500139 0.104700 0.277386 0.166302
H19   H     H_    0.562333 0.104631 0.976122 0.182133
H20   H     H_    0.435037 0.913380 0.966591 0.147610
H21   H     H_    0.387221 0.802042 0.746783 0.206296
H22   H     H_    0.488474 0.882646 0.278067 0.169413
N1    N     N_R   0.501190 0.501210 0.147910 -0.257706
N2    N     N_R   0.501230 0.501290 0.852040 -0.267313
O1    O     O_R   0.499990 0.319640 0.618810 -0.512793
O2    O     O_R   0.748258 0.210794 0.646707 -0.696393
O3    O     O_2   0.376784 0.197438 0.061458 -0.567395
O4    O     O_R   0.305928 0.305866 0.235605 -0.641538
O5    O     O_2   0.243505 0.723672 0.895380 -0.574536
O6    O     O_R   0.272048 0.793008 0.118198 -0.697841
O7    O     O_2   0.784233 0.985025 0.901283 -0.450505
O8    O     O_R   0.746562 0.874055 0.701063 -0.696449
O9    O     O_2   0.017959 0.204904 0.297000 -0.474748
O10   O     O_R   0.901982 0.191562 0.096585 -0.607303
O11   O     O_2   0.079951 0.285935 0.778922 -0.533842
O12   O     O_R   0.500000 0.319660 0.381240 -0.479999
O13   O     O_R   0.103701 0.145846 0.943823 -0.575281
O14   O     O_R   0.319640 0.500000 0.618780 -0.513237
O15   O     O_R   0.319650 0.500020 0.381210 -0.460664
O16   O     O_R   0.500000 0.680340 0.618760 -0.538985
O17   O     O_R   0.500010 0.680360 0.381190 -0.459605
O18   O     O_R   0.680350 0.499980 0.618790 -0.522047
O19   O     O_R   0.680360 0.500000 0.381220 -0.460266
O20   O     O_2   0.710240 0.255549 0.870467 -0.516953

loop_
_geom_bond_atom_site_label_1
_geom_bond_atom_site_label_2
_ccdc_geom_bond_type
C16   O16   A    
C23   C45   A    
C27   C29   A    
C32   C45   S    
C40   O10   S    
C34   C42   A    
Cu1   O16   S    
C23   H6    S    
C2    C46   A    
H10   O4    S    
C20   C26   A    
C21   C22   A    
C9    H19   S    
C18   C19   A    
C30   C31   A    
C11   H21   S    
C29   H4    S    
H11   O6    S    
C26   N1    A    
C30   C38   S    
C25   N2    A    
C8    C36   S    
C7    C42   S    
H14   O10   S    
C36   O2    S    
C8    C9    A    
Cu1   O1    S    
C1    C15   S    
C9    C10   A    
C28   C34   S    
C13   C14   A    
C46   H8    S    
Cu1   O14   S    
C40   O9    D    
H15   O13   S    
C18   H22   S    
C41   O13   S    
C33   C40   S    
C13   C19   A    
H13   O8    S    
C1    O1    A    
C7    C46   A    
C24   C25   A    
C39   O7    D    
Cu2   N1    S    
Cu2   O12   S    
C29   N2    A    
C4    C44   S    
C2    Cl2   S    
C24   H3    S    
C37   O3    D    
C28   O19   A    
C43   C44   A    
Cu2   O15   S    
C31   C32   A    
C23   C34   A    
C17   C18   A    
C28   O18   A    
C12   C35   A    
C10   H20   S    
C6    H17   S    
C22   C24   A    
C42   C43   A    
Cu1   O18   S    
C12   H1    S    
C44   C45   A    
C4    O15   A    
C3    H12   S    
C1    O12   A    
C15   C17   A    
C17   H18   S    
C8    C14   A    
C12   C30   A    
C14   C15   A    
C39   O8    S    
C5    H16   S    
C3    C5    A    
Cu2   O19   S    
C6    C7    A    
C4    O14   A    
C41   O11   D    
C37   O4    S    
C32   C33   A    
C2    C3    A    
C25   C26   A    
C11   C13   A    
C5    C6    A    
C38   O6    S    
C27   C37   S    
C16   C19   S    
C22   C39   S    
C33   C35   A    
C35   C41   S    
C20   Cl1   S    
C10   C11   A    
C43   H7    S    
C36   O20   D    
Cu2   O17   S    
C20   C21   A    
C16   O17   A    
Cu1   Cu2   S    
C38   O5    D    
Cu1   N2    S    
C31   H5    S    
C27   N1    A    
H9    O2    S    
C21   H2    S    
