data_mof_unit_38855.cif
_audit_creation_date              2012-12-10T18:08:21-0500
_audit_creation_method            fapswitch 2.2
_symmetry_space_group_name_H-M    P1
_symmetry_Int_Tables_number       1
_space_group_crystal_system       triclinic
_cell_length_a                    12.647985
_cell_length_b                    13.018415
_cell_length_c                    14.156325
_cell_angle_alpha                 91.478888
_cell_angle_beta                  102.377735
_cell_angle_gamma                 82.66325
_cell_volume                      2258.1096447

loop_
_atom_site_label
_atom_site_type_symbol
_atom_type_description
_atom_site_fract_x
_atom_site_fract_y
_atom_site_fract_z
_atom_type_partial_charge
C1    C     C_R   0.439829 0.691654 0.495440 0.848969
C2    C     C_1   0.496089 0.498724 0.227231 -0.219248
C3    C     C_R   0.716140 0.061253 0.649170 -0.209028
C4    C     C_R   0.590577 0.207796 0.572846 -0.112610
C5    C     C_R   0.303406 0.842350 0.441356 -0.188654
C6    C     C_R   0.276741 0.948489 0.428303 -0.157109
C7    C     C_R   0.349691 0.015244 0.472964 -0.185380
C8    C     C_R   0.447423 0.977316 0.538228 0.098997
C9    C     C_R   0.472082 0.869787 0.555129 0.085927
C10   C     C_R   0.526518 0.042315 0.579831 0.050655
C11   C     C_R   0.632012 0.998875 0.626635 0.095365
C12   C     C_R   0.501470 0.500557 0.670732 0.855815
C13   C     C_R   0.649836 0.895022 0.653697 -0.221152
C14   C     C_R   0.567706 0.832677 0.623201 -0.200969
C15   C     C_R   0.504200 0.149742 0.575327 0.077212
C16   C     C_R   0.697967 0.165514 0.620078 0.171061
C17   C     C_R   0.403000 0.802262 0.500677 -0.117498
C18   C     C_R   0.079945 0.412380 0.322509 -0.290020
C19   C     C_R   0.803496 0.613793 0.625156 0.029631
C20   C     C_R   0.907903 0.641522 0.654323 -0.258964
C21   C     C_R   0.986642 0.606566 0.602092 -0.158871
C22   C     C_R   0.960588 0.544119 0.519598 -0.027327
C23   C     C_R   0.559736 0.311195 0.526443 0.881087
C24   C     C_R   0.852216 0.519750 0.490452 0.155779
C25   C     C_R   0.038992 0.500536 0.467279 -0.061675
C26   C     C_R   0.003116 0.458923 0.373697 0.122301
C27   C     C_R   0.891200 0.456851 0.337495 0.125262
C28   C     C_R   0.825960 0.458597 0.405823 0.171633
C29   C     C_R   0.151705 0.493832 0.505160 -0.019873
C30   C     C_R   0.189500 0.404006 0.365631 0.002314
C31   C     C_R   0.498499 0.499628 0.329305 0.893401
C32   C     C_1   0.504419 0.500679 0.772881 -0.210450
C33   C     C_1   0.504260 0.500261 0.858175 -0.014201
C34   C     C_1   0.502097 0.499520 0.957761 0.003812
C35   C     C_1   0.499576 0.498945 0.042571 0.004199
C36   C     C_1   0.496890 0.498576 0.142052 -0.017309
H1    H     H_    0.056679 0.379950 0.251065 0.157329
H2    H     H_    0.185436 0.527260 0.573740 0.124537
H3    H     H_    0.743035 0.639311 0.666955 0.124854
H4    H     H_    0.066375 0.631152 0.626136 0.136860
H5    H     H_    0.927872 0.689564 0.717607 0.143600
H6    H     H_    0.726911 0.862040 0.698155 0.138952
H7    H     H_    0.796541 0.028236 0.687505 0.148415
H8    H     H_    0.249140 0.791396 0.400335 0.159559
H9    H     H_    0.330649 0.095606 0.451984 0.151155
H10   H     H_    0.202063 0.978835 0.378966 0.143295
H11   H     H_    0.581561 0.754515 0.650816 0.156877
H12   H     H_    0.249484 0.370582 0.325802 0.139398
N1    N     N_R   0.222200 0.444680 0.454480 -0.104217
N2    N     N_R   0.776970 0.554780 0.545050 -0.109320
O1    O     O_R   0.366740 0.627160 0.478260 -0.601953
O2    O     O_R   0.544830 0.662520 0.507340 -0.601446
O3    O     O_R   0.410930 0.482320 0.611740 -0.602279
O4    O     O_R   0.589030 0.517680 0.640820 -0.617153
O5    O     O_R   0.455170 0.337480 0.492660 -0.602618
O6    O     O_R   0.633260 0.372840 0.521740 -0.619937
O7    O     O_R   0.410970 0.482320 0.359180 -0.596281
O8    O     O_R   0.589070 0.517680 0.388260 -0.581670
Zn1   Zn    Zn3+2 0.381090 0.476390 0.480580 0.921928
Zn2   Zn    Zn3+2 0.618910 0.523610 0.519420 0.921605
C37   C     C_3   0.791971 0.227782 0.651989 -0.907382
H13   H     H_    0.766740 0.312072 0.654027 0.266630
H14   H     H_    0.833925 0.206558 0.727485 0.233852
H15   H     H_    0.852178 0.209114 0.605582 0.235345
C38   C     C_3   0.846096 0.425301 0.234610 -0.912297
H16   H     H_    0.755449 0.434878 0.218743 0.258463
H17   H     H_    0.871756 0.475320 0.183463 0.243463
H18   H     H_    0.875487 0.342953 0.222527 0.235980
C39   C     C_3   0.785800 0.355617 0.412731 -0.781707
H19   H     H_    0.699829 0.356172 0.374589 0.254902
H20   H     H_    0.832550 0.292274 0.378722 0.205501
H21   H     H_    0.802903 0.331731 0.489004 0.245958
C40   C     C_3   0.403135 0.200024 0.609098 -0.831250
H22   H     H_    0.424754 0.263145 0.661245 0.240836
H23   H     H_    0.337895 0.232572 0.548193 0.249653
H24   H     H_    0.368834 0.143425 0.647775 0.227480

loop_
_geom_bond_atom_site_label_1
_geom_bond_atom_site_label_2
_ccdc_geom_bond_type
O5    Zn1   S    
C39   H21   S    
C40   H22   S    
C28   C39   S    
C18   C26   A    
C20   H5    S    
O3    Zn1   S    
C7    C8    A    
C29   N1    A    
C3    H7    S    
C26   C27   A    
C7    H9    S    
C31   O8    A    
C30   H12   S    
C18   H1    S    
C10   C15   A    
C5    C6    A    
O7    Zn1   S    
C5    C17   A    
O8    Zn2   S    
C39   H20   S    
C34   C35   T    
C37   H14   S    
O2    Zn2   S    
C35   C36   S    
C8    C9    A    
C38   H17   S    
C22   C25   A    
C29   H2    S    
C18   C30   A    
C12   O3    A    
C21   C22   A    
C12   C32   S    
C25   C29   A    
C40   H23   S    
C39   H19   S    
C13   H6    S    
C24   N2    A    
C23   O6    A    
C4    C23   S    
O4    Zn2   S    
C25   C26   A    
O6    Zn2   S    
C2    C31   S    
C4    C16   A    
C37   H15   S    
C9    C14   A    
C27   C38   S    
C38   H18   S    
C33   C34   S    
C1    O1    A    
C6    C7    A    
C19   H3    S    
C9    C17   A    
C15   C40   S    
C5    H8    S    
C40   H24   S    
C22   C24   A    
O1    Zn1   S    
C16   C37   S    
C2    C36   T    
C6    H10   S    
C30   N1    A    
C24   C28   A    
C23   O5    A    
C14   H11   S    
C19   C20   A    
C1    C17   S    
N1    Zn1   S    
N2    Zn2   S    
C32   C33   T    
C31   O7    A    
C4    C15   A    
C11   C13   A    
C19   N2    A    
C21   H4    S    
C37   H13   S    
C1    O2    A    
C3    C11   A    
C10   C11   A    
C20   C21   A    
C8    C10   A    
C38   H16   S    
C27   C28   A    
C13   C14   A    
C12   O4    A    
C3    C16   A    
