data_mof_unit_22871.cif
_audit_creation_date              2012-12-10T18:22:16-0500
_audit_creation_method            fapswitch 2.2
_symmetry_space_group_name_H-M    P1
_symmetry_Int_Tables_number       1
_space_group_crystal_system       triclinic
_cell_length_a                    14.996962
_cell_length_b                    14.164498
_cell_length_c                    15.715333
_cell_angle_alpha                 89.647929
_cell_angle_beta                  87.759902
_cell_angle_gamma                 90.342104
_cell_volume                      3335.64224288

loop_
_atom_site_label
_atom_site_type_symbol
_atom_type_description
_atom_site_fract_x
_atom_site_fract_y
_atom_site_fract_z
_atom_type_partial_charge
C1    C     C_R   0.326832 0.499608 0.498792 0.927998
C2    C     C_3   0.572215 0.413430 0.951199 0.230110
C3    C     C_3   0.577716 0.430363 0.049465 -0.520663
C4    C     C_1   0.504829 0.497567 0.825468 -0.004588
C5    C     C_1   0.503021 0.501027 0.174046 -0.016428
C6    C     C_1   0.501612 0.500968 0.249451 -0.184556
C7    C     C_R   0.814340 0.422007 0.465457 -0.251887
C8    C     C_R   0.768783 0.500441 0.497580 -0.066399
C9    C     C_R   0.814490 0.578780 0.527417 -0.227609
C10   C     C_R   0.906851 0.578542 0.526293 0.029528
C11   C     C_R   0.953518 0.499174 0.493996 0.093451
C12   C     C_R   0.500321 0.500288 0.338410 0.913750
C13   C     C_R   0.906672 0.421107 0.463179 0.116338
C14   C     C_R   0.952859 0.656158 0.557366 -0.309422
C15   C     C_R   0.045240 0.655503 0.557242 0.640026
C16   C     C_R   0.092183 0.576963 0.525507 -0.007717
C17   C     C_R   0.046559 0.497974 0.492957 -0.125071
C18   C     C_R   0.093677 0.418290 0.459900 -0.016167
C19   C     C_R   0.045079 0.339893 0.427860 0.165401
C20   C     C_R   0.951955 0.343074 0.430495 -0.276763
C21   C     C_R   0.184083 0.576065 0.526590 -0.283800
C22   C     C_R   0.230970 0.498513 0.495469 -0.206552
C23   C     C_R   0.673105 0.500226 0.499559 0.878797
C24   C     C_R   0.187187 0.420665 0.461086 0.548282
C25   C     C_R   0.553927 0.798043 0.442178 -0.093897
C26   C     C_R   0.555028 0.203415 0.443131 -0.084514
C27   C     C_R   0.445450 0.798875 0.556849 0.243108
C28   C     C_R   0.445047 0.199709 0.556402 0.262101
C29   C     C_R   0.442871 0.899065 0.553449 0.047786
C30   C     C_R   0.442392 0.099547 0.552946 0.047394
C31   C     C_R   0.500243 0.949575 0.495570 0.013326
C32   C     C_R   0.500402 0.050505 0.495693 0.014469
C33   C     C_R   0.556011 0.899179 0.437846 -0.044560
C34   C     C_R   0.558872 0.102343 0.440434 -0.056518
C35   C     C_R   0.383241 0.950094 0.606444 -0.201910
C36   C     C_R   0.382683 0.047099 0.605860 -0.211878
C37   C     C_R   0.618263 0.052187 0.383725 0.146276
C38   C     C_R   0.611947 0.950774 0.377872 0.146161
C39   C     C_R   0.499534 0.499741 0.661571 0.889981
C40   C     C_3   0.526873 0.600277 0.047468 -0.442444
C41   C     C_3   0.411818 0.468097 0.052655 -0.448778
C42   C     C_3   0.406561 0.483418 0.955254 0.708848
C43   C     C_3   0.538487 0.598636 0.948410 0.761845
C44   C     C_1   0.501667 0.499007 0.750280 -0.181044
C45   C     C_3   0.504682 0.499890 0.082456 0.112439
C46   C     C_3   0.507394 0.496225 0.916975 -0.036767
H1    H     H_    0.219546 0.635462 0.552766 0.218769
H2    H     H_    0.914096 0.284159 0.406345 0.140740
H3    H     H_    0.595883 0.755918 0.400300 0.160587
H4    H     H_    0.594804 0.246691 0.399403 0.155230
H5    H     H_    0.335310 0.917144 0.650197 0.167900
H6    H     H_    0.334276 0.078978 0.649077 0.160153
H7    H     H_    0.471782 0.648986 0.066740 0.234351
H8    H     H_    0.358387 0.509587 0.086203 0.216066
H9    H     H_    0.399142 0.393244 0.071086 0.145222
H10   H     H_    0.587405 0.628280 0.077755 0.142352
H11   H     H_    0.643994 0.460078 0.065065 0.167712
H12   H     H_    0.571869 0.362914 0.086038 0.203087
H13   H     H_    0.777881 0.361992 0.441470 0.150511
H14   H     H_    0.778196 0.639168 0.552607 0.160119
H15   H     H_    0.917286 0.717118 0.582144 0.174764
N1    N     N_R   0.500070 0.750030 0.500040 -0.123210
N2    N     N_R   0.500070 0.249970 0.500040 -0.121496
O1    O     O_R   0.367860 0.580280 0.500020 -0.655021
O2    O     O_R   0.367860 0.419720 0.500020 -0.579445
O3    O     O_R   0.500020 0.580310 0.377140 -0.616899
O4    O     O_R   0.500020 0.419690 0.377140 -0.605302
O5    O     O_R   0.632160 0.580270 0.499980 -0.626988
O6    O     O_R   0.632160 0.419730 0.499980 -0.627297
O7    O     O_R   0.500010 0.580240 0.622850 -0.622262
O8    O     O_R   0.500010 0.419760 0.622850 -0.633557
Zn1   Zn    Zn3+2 0.500020 0.607200 0.499990 0.935081
Zn2   Zn    Zn3+2 0.500020 0.392800 0.499990 0.960782
F1    F     F_    0.482058 0.666256 0.915531 -0.609835
F2    F     F_    0.360471 0.567202 0.944615 -0.604815
F3    F     F_    0.088686 0.731552 0.588314 -0.680825
F4    F     F_    0.237329 0.349633 0.427613 -0.684775
C47   C     C_3   0.087350 0.251417 0.390462 -0.326537
C48   C     C_3   0.119436 0.267363 0.297945 -0.766357
H16   H     H_    0.153796 0.203114 0.273761 0.242153
H17   H     H_    0.061467 0.281484 0.257942 0.230031
H18   H     H_    0.166331 0.328064 0.291598 0.291562
H19   H     H_    0.141284 0.224670 0.430198 0.252416
H20   H     H_    0.038007 0.192444 0.390934 0.171233
C49   C     C_3   0.389183 0.747332 0.625563 -0.420679
C50   C     C_3   0.429142 0.756542 0.713464 -0.747492
H21   H     H_    0.499582 0.732719 0.711445 0.272069
H22   H     H_    0.427469 0.830455 0.736157 0.241699
H23   H     H_    0.390369 0.712033 0.760290 0.297195
H24   H     H_    0.319047 0.771691 0.626977 0.193604
H25   H     H_    0.380392 0.673027 0.612948 0.265513
C51   C     C_3   0.388416 0.249752 0.624585 -0.339097
C52   C     C_3   0.427425 0.239098 0.712746 -0.920587
H26   H     H_    0.497076 0.266115 0.711920 0.277270
H27   H     H_    0.427714 0.164462 0.734254 0.260311
H28   H     H_    0.386684 0.280060 0.759750 0.240858
H29   H     H_    0.380719 0.324336 0.612171 0.263903
H30   H     H_    0.318148 0.224929 0.625170 0.171431
C53   C     C_3   0.691153 0.106609 0.333459 -0.418474
C54   C     C_3   0.659795 0.138844 0.246684 -0.864026
H31   H     H_    0.642547 0.077314 0.207105 0.266743
H32   H     H_    0.600294 0.184725 0.254357 0.259824
H33   H     H_    0.713915 0.179641 0.212822 0.243147
H34   H     H_    0.714219 0.168600 0.369500 0.186390
H35   H     H_    0.753390 0.065238 0.326214 0.191706
C55   C     C_3   0.660948 0.897408 0.305844 -0.422663
C56   C     C_3   0.595983 0.861121 0.240565 -0.847781
H36   H     H_    0.545935 0.811519 0.269621 0.263092
H37   H     H_    0.560286 0.921250 0.211977 0.263742
H38   H     H_    0.633589 0.823486 0.188937 0.242704
H39   H     H_    0.710694 0.940450 0.269357 0.219541
H40   H     H_    0.700090 0.838417 0.331886 0.190905
C57   C     C_3   0.344939 0.409113 0.912384 -0.446547
C58   C     C_3   0.247370 0.414426 0.945014 -0.765863
H41   H     H_    0.241783 0.400997 0.014687 0.239964
H42   H     H_    0.218302 0.484379 0.930688 0.300325
H43   H     H_    0.207459 0.359820 0.912911 0.227939
H44   H     H_    0.345371 0.422456 0.842715 0.214625
H45   H     H_    0.364213 0.335276 0.921214 0.160328
C59   C     C_3   0.634235 0.632323 0.919517 -0.456162
C60   C     C_3   0.644206 0.740063 0.914812 -0.752623
H46   H     H_    0.604870 0.769462 0.862486 0.285662
H47   H     H_    0.621860 0.772497 0.976133 0.255260
H48   H     H_    0.715384 0.759085 0.901621 0.224851
H49   H     H_    0.683622 0.609423 0.965898 0.166401
H50   H     H_    0.652680 0.604607 0.855447 0.207578
C61   C     C_3   0.670881 0.412601 0.910880 -0.325837
C62   C     C_3   0.681884 0.395703 0.814590 -0.857860
H51   H     H_    0.632446 0.344493 0.791422 0.266010
H52   H     H_    0.676992 0.462963 0.778790 0.244041
H53   H     H_    0.749494 0.367224 0.799630 0.243396
H54   H     H_    0.709431 0.357148 0.943084 0.214817
H55   H     H_    0.710919 0.474410 0.926070 0.164866
C63   C     C_3   0.531545 0.311617 0.938117 -0.361262
C64   C     C_3   0.592852 0.226370 0.950869 -0.880278
H56   H     H_    0.642745 0.219560 0.897315 0.269482
H57   H     H_    0.627265 0.231119 0.011959 0.251238
H58   H     H_    0.552105 0.160576 0.952428 0.250139
H59   H     H_    0.476795 0.298922 0.985773 0.192836
H60   H     H_    0.505039 0.306088 0.873452 0.202147

loop_
_geom_bond_atom_site_label_1
_geom_bond_atom_site_label_2
_ccdc_geom_bond_type
C64   H58   S    
C1    O1    A    
C16   C21   A    
C27   C29   A    
C34   C37   A    
C41   C42   S    
C23   O6    A    
C35   C36   A    
C62   H51   S    
C58   H41   S    
C49   H25   S    
C51   H30   S    
C64   H56   S    
C55   H40   S    
C49   C50   S    
C2    C46   S    
C42   F2    S    
C52   H26   S    
C18   C24   A    
C26   H4    S    
C63   H60   S    
C5    C6    T    
C59   H50   S    
C55   C56   S    
C15   C16   A    
C8    C23   S    
O2    Zn2   S    
C18   C19   A    
C42   C46   S    
C27   C49   S    
C61   H54   S    
C41   H9    S    
C60   H48   S    
C57   H45   S    
C47   H19   S    
C26   C34   A    
C40   C43   S    
O3    Zn1   S    
C53   C54   S    
C16   C17   A    
C40   H10   S    
C1    O2    A    
C56   H36   S    
C31   C33   A    
O6    Zn2   S    
O4    Zn2   S    
C9    C10   A    
C36   H6    S    
C43   C59   S    
C2    C61   S    
C43   F1    S    
C15   F3    S    
C1    C22   S    
C52   H27   S    
C21   C22   A    
C56   H37   S    
C6    C12   S    
C7    H13   S    
C51   H29   S    
C55   H39   S    
C40   C45   S    
C53   H35   S    
C12   O4    A    
O7    Zn1   S    
C7    C8    A    
C10   C14   A    
C63   H59   S    
C48   H17   S    
C47   C48   S    
C8    C9    A    
C4    C46   S    
N2    Zn2   S    
C14   H15   S    
C12   O3    A    
C3    C45   S    
C54   H33   S    
C57   H44   S    
C32   C34   A    
C23   O5    A    
C38   C55   S    
C19   C47   S    
C26   N2    A    
C3    H12   S    
C37   C38   A    
C27   N1    A    
C42   C57   S    
C31   C32   A    
O5    Zn1   S    
C54   H32   S    
C17   C18   A    
N1    Zn1   S    
C28   C51   S    
C2    C63   S    
C60   H46   S    
C20   H2    S    
C3    H11   S    
C52   H28   S    
C35   H5    S    
C56   H38   S    
C22   C24   A    
C61   C62   S    
C62   H53   S    
C37   C53   S    
C59   C60   S    
O8    Zn2   S    
C57   C58   S    
C64   H57   S    
C11   C17   A    
C41   C45   S    
C13   C20   A    
C50   H21   S    
C61   H55   S    
C50   H23   S    
C62   H52   S    
C48   H18   S    
C58   H42   S    
C49   H24   S    
C39   C44   S    
C4    C44   T    
C29   C35   A    
C63   C64   S    
C33   C38   A    
C30   C36   A    
C9    H14   S    
C19   C20   A    
C28   C30   A    
C2    C3    S    
C29   C31   A    
C30   C32   A    
C11   C13   A    
C5    C45   S    
C51   C52   S    
C59   H49   S    
C39   O7    A    
C53   H34   S    
C50   H22   S    
C25   N1    A    
O1    Zn1   S    
C43   C46   S    
C25   H3    S    
C41   H8    S    
C60   H47   S    
C58   H43   S    
C10   C11   A    
C48   H16   S    
C28   N2    A    
C47   H20   S    
C24   F4    S    
C7    C13   A    
C40   H7    S    
C39   O8    A    
C14   C15   A    
C54   H31   S    
C25   C33   A    
C21   H1    S    
