data_mof_unit_49580.cif
_audit_creation_date              2012-12-10T19:42:06-0500
_audit_creation_method            fapswitch 2.2
_symmetry_space_group_name_H-M    P1
_symmetry_Int_Tables_number       1
_space_group_crystal_system       triclinic
_cell_length_a                    18.316884
_cell_length_b                    18.348276
_cell_length_c                    18.377596
_cell_angle_alpha                 120.13566
_cell_angle_beta                  90.241429
_cell_angle_gamma                 119.631409
_cell_volume                      4373.43121384

loop_
_atom_site_label
_atom_site_type_symbol
_atom_type_description
_atom_site_fract_x
_atom_site_fract_y
_atom_site_fract_z
_atom_type_partial_charge
C1    C     C_R   0.139963 0.780030 0.139653 0.504867
C2    C     C_R   0.802318 0.108496 0.804954 0.005134
C3    C     C_R   0.784405 0.056330 0.845022 -0.108485
C4    C     C_R   0.860179 0.220102 0.859957 0.513358
C5    C     C_R   0.735797 0.948476 0.793107 0.138586
C6    C     C_R   0.699672 0.892342 0.698671 0.051522
C7    C     C_R   0.714025 0.945764 0.660645 -0.012421
C8    C     C_3   0.755995 0.941691 0.590201 -0.257980
C9    C     C_3   0.810194 0.058092 0.646919 -0.259521
C10   C     C_R   0.792070 0.575898 0.241571 -0.027500
C11   C     C_R   0.800171 0.495331 0.190725 -0.018460
C12   C     C_R   0.819822 0.682577 0.754503 -0.079142
C13   C     C_R   0.746676 0.406762 0.189327 -0.123849
C14   C     C_R   0.688817 0.401785 0.239939 0.231459
C15   C     C_R   0.687596 0.490069 0.296401 0.005677
C16   C     C_R   0.139448 0.502940 0.859663 0.515297
C17   C     C_R   0.739216 0.573684 0.292495 0.002138
C18   C     C_3   0.769803 0.682145 0.332119 0.025926
C19   C     C_3   0.830437 0.684171 0.273932 -0.221521
C20   C     C_R   0.161846 0.947794 0.243345 0.001045
C21   C     C_R   0.196739 0.891347 0.201153 -0.001080
C22   C     C_R   0.289827 0.944072 0.226722 -0.158618
C23   C     C_R   0.785830 0.593454 0.752658 -0.019594
C24   C     C_R   0.345579 0.051804 0.284570 0.118509
C25   C     C_R   0.307020 0.108229 0.316473 0.020288
C26   C     C_R   0.215636 0.053273 0.303088 -0.004554
C27   C     C_3   0.143889 0.064570 0.283208 0.178704
C28   C     C_R   0.859926 0.499960 0.139624 0.514703
C29   C     C_3   0.085904 0.947739 0.212359 0.039567
C30   C     C_R   0.280255 0.585230 0.254164 0.030047
C31   C     C_R   0.194955 0.499651 0.195333 -0.008723
C32   C     C_R   0.162705 0.409286 0.190284 -0.138446
C33   C     C_R   0.215597 0.406523 0.243401 0.106111
C34   C     C_R   0.840748 0.592903 0.806502 -0.012567
C35   C     C_R   0.302353 0.496038 0.302789 0.054825
C36   C     C_R   0.331022 0.583065 0.305705 -0.050104
C37   C     C_3   0.410481 0.690528 0.348122 0.043425
C38   C     C_3   0.353414 0.694482 0.288776 0.312372
C39   C     C_R   0.284351 0.562179 0.837169 -0.079054
C40   C     C_R   0.139933 0.500674 0.140290 0.506299
C41   C     C_R   0.193396 0.511209 0.802611 -0.011938
C42   C     C_R   0.157627 0.469721 0.711311 0.115930
C43   C     C_R   0.215012 0.478435 0.659699 0.228133
C44   C     C_R   0.304256 0.513139 0.695022 -0.036475
C45   C     C_R   0.806849 0.503121 0.803844 0.070173
C46   C     C_R   0.337010 0.559620 0.786132 -0.032650
C47   C     C_3   0.417371 0.618055 0.865023 0.472251
C48   C     C_3   0.356162 0.624612 0.923072 0.043337
C49   C     C_R   0.637424 0.496976 0.357615 0.539575
C50   C     C_R   0.360112 0.503291 0.639908 0.547122
C51   C     C_R   0.642353 0.780016 0.640535 0.511723
C52   C     C_R   0.860787 0.500807 0.860025 0.520339
C53   C     C_R   0.360365 0.219709 0.362173 0.521896
C54   C     C_R   0.359755 0.498597 0.359275 0.532529
C55   C     C_R   0.639982 0.499945 0.639839 0.487024
C56   C     C_R   0.721230 0.413469 0.745058 0.118037
C57   C     C_R   0.929208 0.680766 0.858862 -0.157433
C58   C     C_R   0.961917 0.766925 0.858106 -0.083562
C59   C     C_R   0.907329 0.768787 0.806991 0.292868
C60   C     C_3   0.649054 0.320215 0.808524 -0.285179
C61   C     C_3   0.873809 0.740887 0.469426 -0.248948
C62   C     C_3   0.481247 0.123110 0.388483 -0.274275
C63   C     C_3   0.138906 0.954767 0.087538 -0.291193
C64   C     C_3   0.115400 0.286848 0.274105 -0.204239
C65   C     C_3   0.503461 0.861400 0.488565 -0.299429
C66   C     C_3   0.282974 0.782588 0.292317 -0.257376
C67   C     C_R   0.668876 0.414155 0.690655 -0.131127
C68   C     C_3   0.394627 0.624323 0.151429 -0.299848
C69   C     C_3   0.008908 0.313059 0.619196 -0.220204
C70   C     C_3   0.409837 0.777135 0.075839 -0.259289
C71   C     C_3   0.751038 0.949755 0.929036 -0.207978
C72   C     C_R   0.699442 0.503453 0.695791 0.018310
C73   C     C_R   0.764608 0.052041 0.712819 0.009069
H1    H     H_    0.707858 0.904657 0.525806 0.137028
H2    H     H_    0.161135 0.112449 0.257619 0.130879
H3    H     H_    0.024903 0.904380 0.224713 0.184627
H4    H     H_    0.097153 0.340161 0.144174 0.149374
H5    H     H_    0.470012 0.693762 0.331929 0.133716
H6    H     H_    0.030445 0.831982 0.896613 0.151009
H7    H     H_    0.342941 0.583187 0.954789 0.155358
H8    H     H_    0.779595 0.685266 0.713968 0.147633
H9    H     H_    0.602703 0.345280 0.645792 0.109567
H10   H     H_    0.813756 0.100737 0.916562 0.147025
H11   H     H_    0.797243 0.911740 0.584510 0.166540
H12   H     H_    0.882999 0.095719 0.673142 0.153101
H13   H     H_    0.645751 0.255310 0.677461 0.245800
H14   H     H_    0.589551 0.321374 0.800316 0.152748
H15   H     H_    0.698478 0.387184 0.876232 0.167551
H16   H     H_    0.628350 0.248886 0.802536 0.147555
H17   H     H_    0.622016 0.224871 0.303024 0.360814
H18   H     H_    0.847727 0.830018 0.450766 0.256731
H19   H     H_    0.904271 0.802462 0.542327 0.183299
H20   H     H_    0.928141 0.745679 0.441202 0.146152
H21   H     H_    0.833195 0.665998 0.460502 0.166853
H22   H     H_    0.458525 0.065730 0.254894 0.256945
H23   H     H_    0.791829 0.088298 0.616204 0.141776
H24   H     H_    0.457408 0.049995 0.380604 0.119279
H25   H     H_    0.466045 0.169649 0.445122 0.166392
H26   H     H_    0.554685 0.167558 0.404415 0.150605
H27   H     H_    0.000920 0.127795 0.400356 0.369702
H28   H     H_    0.013118 0.844193 0.074734 0.274444
H29   H     H_    0.118307 0.966409 0.039721 0.172519
H30   H     H_    0.154126 0.896669 0.052935 0.143051
H31   H     H_    0.200499 0.029448 0.141072 0.146858
H32   H     H_    0.162777 0.252059 0.168239 0.254396
H33   H     H_    0.052393 0.264819 0.235906 0.133192
H34   H     H_    0.749332 0.341031 0.148021 0.186347
H35   H     H_    0.138546 0.353444 0.344051 0.248026
H36   H     H_    0.102184 0.221059 0.274304 0.200764
H37   H     H_    0.429228 0.724253 0.476393 0.272351
H38   H     H_    0.508422 0.906453 0.559471 0.153479
H39   H     H_    0.495958 0.896432 0.456907 0.174602
H40   H     H_    0.565717 0.865387 0.486246 0.134112
H41   H     H_    0.306348 0.762820 0.389072 0.273243
H42   H     H_    0.289432 0.855330 0.340063 0.128646
H43   H     H_    0.211127 0.718678 0.261672 0.160459
H44   H     H_    0.310617 0.788991 0.240668 0.185999
H45   H     H_    0.715657 0.686956 0.312510 0.146997
H46   H     H_    0.450280 0.779012 0.251510 0.243355
H47   H     H_    0.430314 0.648260 0.110797 0.159100
H48   H     H_    0.326105 0.555245 0.106552 0.181339
H49   H     H_    0.430426 0.604346 0.178510 0.137968
H50   H     H_    0.039005 0.461186 0.709848 0.275317
H51   H     H_    0.940817 0.285143 0.586459 0.144676
H52   H     H_    0.005006 0.286357 0.662418 0.151173
H53   H     H_    0.034480 0.279192 0.566437 0.194565
H54   H     H_    0.286879 0.609834 0.596520 0.320854
H55   H     H_    0.524654 0.480600 0.789715 0.354103
H56   H     H_    0.810349 0.688778 0.220043 0.141244
H57   H     H_    0.449644 0.752793 0.798431 0.330433
H58   H     H_    0.326717 0.735084 0.965013 0.275385
H59   H     H_    0.357469 0.736444 0.097598 0.159079
H60   H     H_    0.430311 0.857821 0.112793 0.151373
H61   H     H_    0.469246 0.778631 0.091840 0.190143
H62   H     H_    0.075438 0.992128 0.814978 0.374870
H63   H     H_    0.753496 0.851424 0.805995 0.303038
H64   H     H_    0.823697 0.010626 0.963870 0.148444
H65   H     H_    0.732883 0.894201 0.945999 0.214155
H66   H     H_    0.712266 0.983187 0.952497 0.189315
H67   H     H_    0.903124 0.736645 0.311534 0.158586
H68   H     H_    0.319943 0.902397 0.199811 0.125057
H69   H     H_    0.974557 0.683037 0.899190 0.121630
N1    N     N_2   0.687445 0.322068 0.740324 -0.506145
N2    N     N_2   0.375029 0.726961 0.981175 -0.448372
N3    N     N_2   0.730137 0.896853 0.833248 -0.445367
N4    N     N_2   0.818390 0.754527 0.428062 -0.509067
N5    N     N_2   0.439476 0.101667 0.306791 -0.453081
N6    N     N_2   0.066816 0.919096 0.121187 -0.529598
N7    N     N_2   0.182795 0.312689 0.233517 -0.511623
N8    N     N_2   0.427819 0.755564 0.443351 -0.513037
N9    N     N_2   0.330966 0.767680 0.340110 -0.498448
N10   N     N_2   0.391797 0.707209 0.222936 -0.521546
N11   N     N_2   0.066233 0.424318 0.671449 -0.441542
O1    O     O_3   0.000000 0.500000 0.000000 -0.440160
O2    O     O_R   0.323450 0.268330 0.384170 -0.527104
O3    O     O_R   0.444860 0.560620 0.384150 -0.573048
O4    O     O_R   0.055050 0.731580 0.115780 -0.542470
O5    O     O_R   0.615780 0.439200 0.555040 -0.544095
O6    O     O_R   0.323420 0.439190 0.384160 -0.474574
O7    O     O_R   0.615760 0.560630 0.676470 -0.500882
O8    O     O_R   0.615740 0.731500 0.676460 -0.510727
O9    O     O_R   0.444900 0.268330 0.384170 -0.487208
O10   O     O_R   0.615750 0.560630 0.384150 -0.542532
O11   O     O_R   0.323430 0.439200 0.555040 -0.438892
O12   O     O_R   0.055090 0.439280 0.823480 -0.556316
O13   O     O_R   0.884220 0.268410 0.823490 -0.537474
O14   O     O_R   0.176520 0.560720 0.944920 -0.545255
O15   O     O_R   0.884200 0.439290 0.115800 -0.541545
O16   O     O_R   0.176530 0.560720 0.115800 -0.542552
O17   O     O_R   0.884180 0.560710 0.944910 -0.556329
O18   O     O_R   0.055100 0.439290 0.115810 -0.541014
O19   O     O_R   0.884190 0.439280 0.823480 -0.522909
O20   O     O_2   0.525125 0.255544 0.216369 -0.264027
O21   O     O_2   0.616977 0.198577 0.146150 -0.282910
O22   O     O_3   0.657875 0.295408 0.318149 -0.489117
O23   O     O_R   0.884180 0.560710 0.115790 -0.538841
O24   O     O_2   0.073543 0.028637 0.400436 -0.308303
O25   O     O_2   0.178947 0.208547 0.454616 -0.218473
O26   O     O_3   0.019432 0.106215 0.346925 -0.520065
O27   O     O_2   0.138898 0.350660 0.481694 -0.226233
O28   O     O_2   0.106687 0.479312 0.558670 -0.252435
O29   O     O_3   0.262193 0.539974 0.542285 -0.520923
O30   O     O_2   0.514851 0.594933 0.950695 -0.279173
O31   O     O_2   0.372061 0.438356 0.834752 -0.315948
O32   O     O_3   0.503999 0.519091 0.784602 -0.464376
O33   O     O_2   0.562995 0.811457 0.986801 -0.245154
O34   O     O_R   0.176500 0.731590 0.115790 -0.574427
O35   O     O_2   0.568191 0.723904 0.836447 -0.215162
O36   O     O_3   0.469177 0.792581 0.864435 -0.503687
O37   O     O_2   0.893846 0.853272 0.727826 -0.328914
O38   O     O_2   0.946621 0.957729 0.891636 -0.304082
O39   O     O_3   0.055359 0.928673 0.810690 -0.516440
O40   O     O_R   0.884220 0.268420 0.944930 -0.547401
O41   O     O_3   0.499960 0.499910 0.499960 -0.485671
O42   O     O_R   0.615770 0.439200 0.384160 -0.458835
O43   O     O_R   0.444870 0.560630 0.676470 -0.483676
O44   O     O_R   0.615730 0.731500 0.555020 -0.549990
S1    S     S_3+6 0.618519 0.283245 0.227043 0.034133
S2    S     S_3+6 0.104678 0.103307 0.375745 0.008783
S3    S     S_3+6 0.177415 0.459836 0.558068 0.036909
S4    S     S_3+6 0.452018 0.540066 0.860239 0.039202
S5    S     S_3+6 0.508517 0.739215 0.889273 0.087681
S6    S     S_3+6 0.949221 0.879400 0.808752 -0.022704
Zn1   Zn    Zn3+2 0.956630 0.413250 0.869870 0.932966
Zn2   Zn    Zn3+2 0.130130 0.586750 0.043370 0.904573
Zn3   Zn    Zn3+2 0.956630 0.413250 0.043380 0.946240
Zn4   Zn    Zn3+2 0.956610 0.586750 0.043370 0.924138
Zn5   Zn    Zn3+2 0.543330 0.586660 0.630080 1.022552
Zn6   Zn    Zn3+2 0.543320 0.586660 0.456570 0.929256
Zn7   Zn    Zn3+2 0.369830 0.413160 0.456580 1.048311
Zn8   Zn    Zn3+2 0.543350 0.413170 0.456590 1.006971

loop_
_geom_bond_atom_site_label_1
_geom_bond_atom_site_label_2
_ccdc_geom_bond_type
C19   H56   S    
O25   S2    D    
H28   N6    S    
C1    C21   S    
C16   O14   A    
C27   C29   S    
C41   C42   A    
C38   N9    S    
C35   C36   A    
O4    Zn4   S    
C37   N8    S    
C13   H34   S    
C52   O19   A    
C29   N6    S    
C60   H15   S    
C7    C8    S    
C71   H64   S    
C29   H3    S    
C60   H16   S    
C14   S1    S    
C12   C23   A    
C48   N2    S    
C26   C27   S    
O6    Zn7   S    
C66   H43   S    
C57   H69   S    
O27   S3    D    
O14   Zn2   S    
O23   Zn4   S    
C36   C37   S    
O28   S3    D    
O12   Zn1   S    
C25   C53   S    
C70   H59   S    
C18   C19   S    
C60   N1    S    
C54   O3    A    
C30   C31   A    
C61   H20   S    
O37   S6    D    
O41   Zn7   S    
O9    Zn8   S    
C10   C17   A    
H46   N10   S    
C31   C40   S    
C30   C38   S    
C67   C72   A    
O32   S4    S    
C65   N8    S    
O19   Zn1   S    
C65   H38   S    
C51   O44   A    
O33   S5    D    
C9    H12   S    
O41   Zn8   S    
C62   H25   S    
C12   C59   A    
C50   O43   A    
C55   O5    A    
C47   C48   S    
C45   C56   A    
O11   Zn7   S    
C19   H67   S    
C66   H44   S    
C70   H60   S    
O8    Zn5   S    
C43   S3    S    
O40   Zn3   S    
C6    C51   S    
C18   H45   S    
C55   C72   S    
C61   H19   S    
C32   H4    S    
C69   H52   S    
C13   C14   A    
C35   C54   S    
C56   N1    S    
O38   S6    D    
H41   N9    S    
C63   H29   S    
C27   H2    S    
C38   N10   S    
C40   O16   A    
C25   C26   A    
C60   H14   S    
C44   C46   A    
H13   N1    S    
C64   H35   S    
C71   H65   S    
C20   C29   S    
C1    O34   A    
O10   Zn6   S    
C4    O40   A    
O21   S1    D    
C5    N3    S    
C66   H42   S    
C50   O11   A    
H55   O32   S    
O30   S4    D    
C7    C73   A    
C42   N11   S    
O29   S3    S    
C24   C25   A    
C39   C41   A    
C52   O17   A    
C61   H21   S    
C8    C9    S    
C71   H66   S    
C49   O42   A    
C69   H51   S    
H37   N8    S    
C58   C59   A    
H17   O22   S    
C69   N11   S    
C47   S5    S    
O43   Zn5   S    
C2    C4    S    
C43   C44   A    
C65   H39   S    
O42   Zn8   S    
C37   C38   S    
C68   N10   S    
O7    Zn5   S    
C62   H24   S    
C31   C32   A    
C16   O12   A    
C23   C34   A    
O34   Zn2   S    
C47   S4    S    
C8    H1    S    
C17   C18   S    
H22   N5    S    
C34   C45   A    
O13   Zn1   S    
O18   Zn3   S    
C9    H23   S    
O1    Zn3   S    
C2    C73   A    
C58   H6    S    
C39   C46   A    
C54   O6    A    
C63   H30   S    
C55   O7    A    
C71   N3    S    
C69   H53   S    
C53   O2    A    
C64   H36   S    
C62   N5    S    
C3    H10   S    
O15   Zn3   S    
C42   C43   A    
C68   H49   S    
C3    C5    A    
C63   N6    S    
H32   N7    S    
H50   N11   S    
C10   C19   S    
C44   C50   S    
O5    Zn8   S    
C15   C17   A    
C46   C47   S    
O31   S4    D    
O3    Zn6   S    
C8    H11   S    
C65   H40   S    
C23   C72   A    
C9    C73   S    
O2    Zn7   S    
C28   O23   A    
O1    Zn4   S    
C63   H31   S    
C18   N4    S    
C24   N5    S    
C68   H48   S    
O1    Zn1   S    
H57   O36   S    
C27   S2    S    
C64   H33   S    
C6    C7    A    
O36   S5    S    
C56   C67   A    
O41   Zn5   S    
C37   H5    S    
H63   N3    S    
C70   N2    S    
C45   C52   S    
C30   C36   A    
C64   N7    S    
C32   C33   A    
C48   H7    S    
C1    O4    A    
C2    C3    A    
O20   S1    D    
C66   N9    S    
C20   C26   A    
C33   N7    S    
C68   H47   S    
O41   Zn6   S    
O16   Zn2   S    
C11   C13   A    
C57   C58   A    
C5    C6    A    
O26   S2    S    
C11   C28   S    
C34   C57   A    
C22   H68   S    
O35   S5    D    
C33   C35   A    
O39   S6    S    
C4    O13   A    
C12   H8    S    
C51   O8    A    
O22   S1    S    
C22   C24   A    
C40   O18   A    
C15   C49   S    
C53   O9    A    
H62   O39   S    
C49   O10   A    
O1    Zn2   S    
O44   Zn6   S    
C10   C11   A    
C28   O15   A    
C62   H26   S    
C59   S6    S    
O17   Zn4   S    
C20   C21   A    
C67   H9    S    
O24   S2    D    
C70   H61   S    
H54   O29   S    
C14   C15   A    
C61   N4    S    
C21   C22   A    
H27   O26   S    
C16   C41   S    
H18   N4    S    
H58   N2    S    
C39   C48   S    
