data_mof_unit_10400.cif
_audit_creation_date              2012-10-26T19:44:39-0400
_audit_creation_method            fapswitch 2.2
_symmetry_space_group_name_H-M    P1
_symmetry_Int_Tables_number       1
_space_group_crystal_system       triclinic
_cell_length_a                    19.359958
_cell_length_b                    11.725527
_cell_length_c                    10.460795
_cell_angle_alpha                 89.999742
_cell_angle_beta                  90.00043
_cell_angle_gamma                 89.999513
_cell_volume                      2374.66019856

loop_
_atom_site_label
_atom_site_type_symbol
_atom_type_description
_atom_site_fract_x
_atom_site_fract_y
_atom_site_fract_z
_atom_type_partial_charge
C1    C     C_R   0.499999 0.283299 0.500000 0.522560
C2    C     C_1   0.499995 0.940276 0.500000 -0.053732
C3    C     C_1   0.500000 0.500000 0.072042 0.120838
C4    C     C_1   0.500000 0.500000 0.927958 0.120838
C5    C     C_R   0.254097 0.450437 0.602821 0.220332
C6    C     C_R   0.745903 0.450450 0.397186 0.220343
C7    C     C_R   0.745876 0.549771 0.602803 0.220341
C8    C     C_R   0.254121 0.549743 0.397191 0.220326
C9    C     C_R   0.182072 0.454732 0.603902 -0.111452
C10   C     C_R   0.817928 0.454747 0.396104 -0.111519
C11   C     C_R   0.817904 0.545598 0.603874 -0.111519
C12   C     C_R   0.499999 0.716700 0.500000 0.522501
C13   C     C_R   0.182093 0.545585 0.396132 -0.111477
C14   C     C_R   0.145739 0.500192 0.500021 -0.063487
C15   C     C_R   0.854259 0.500200 0.499989 -0.063493
C16   C     C_R   0.290966 0.500059 0.500002 0.002083
C17   C     C_R   0.709033 0.500072 0.500000 0.002130
C18   C     C_3   0.310461 0.290547 0.674588 0.034487
C19   C     C_3   0.256392 0.201750 0.713376 -0.277450
C20   C     C_3   0.283129 0.080856 0.691680 -0.478267
C21   C     C_3   0.689633 0.290505 0.325358 0.034463
C22   C     C_3   0.743879 0.201867 0.286937 -0.277573
C23   C     C_R   0.930070 0.500236 0.499998 0.342485
C24   C     C_3   0.717176 0.080885 0.308144 -0.478193
C25   C     C_3   0.689476 0.709597 0.674623 0.034526
C26   C     C_3   0.743671 0.798373 0.712879 -0.277639
C27   C     C_3   0.716841 0.919286 0.691713 -0.478202
C28   C     C_3   0.310571 0.709516 0.325340 0.034535
C29   C     C_3   0.256502 0.798371 0.286713 -0.277543
C30   C     C_3   0.283347 0.919235 0.308155 -0.478259
C31   C     C_R   0.069928 0.500231 0.500015 0.342498
C32   C     C_R   0.367026 0.500008 0.500000 0.549332
C33   C     C_R   0.632973 0.500010 0.500000 0.549395
C34   C     C_1   0.499996 0.161941 0.500001 -0.039376
C35   C     C_1   0.499996 0.838059 0.499999 -0.039410
C36   C     C_1   0.499995 0.059724 0.500001 -0.053719
Cu1   Cu    Cu3+1 0.500000 0.500000 0.625300 1.007796
Cu2   Cu    Cu3+1 0.500000 0.500000 0.374700 1.007812
H1    H     H_    0.154571 0.418935 0.684688 0.158100
H2    H     H_    0.242543 0.018326 0.718336 0.157428
H3    H     H_    0.329600 0.064867 0.751349 0.154634
H4    H     H_    0.641594 0.273911 0.270278 0.172823
H5    H     H_    0.675779 0.279899 0.428307 0.108801
H6    H     H_    0.757302 0.212949 0.184375 0.183885
H7    H     H_    0.791385 0.214294 0.344851 0.160049
H8    H     H_    0.703370 0.068239 0.410168 0.146157
H9    H     H_    0.757910 0.018487 0.281855 0.157439
H10   H     H_    0.670924 0.064858 0.247912 0.154633
H11   H     H_    0.641456 0.726112 0.729789 0.172865
H12   H     H_    0.845431 0.418949 0.315321 0.158068
H13   H     H_    0.675553 0.720127 0.571695 0.108835
H14   H     H_    0.757186 0.787346 0.815408 0.183885
H15   H     H_    0.791144 0.786050 0.654840 0.160024
H16   H     H_    0.702908 0.931860 0.589736 0.146155
H17   H     H_    0.757549 0.981790 0.717819 0.157406
H18   H     H_    0.670641 0.935225 0.752111 0.154667
H19   H     H_    0.358679 0.725877 0.270385 0.172910
H20   H     H_    0.324356 0.720121 0.428323 0.108775
H21   H     H_    0.243214 0.787404 0.184073 0.183831
H22   H     H_    0.208895 0.786083 0.344380 0.160136
H23   H     H_    0.845388 0.581442 0.684655 0.158077
H24   H     H_    0.297030 0.931747 0.410259 0.146158
H25   H     H_    0.242744 0.981816 0.281727 0.157404
H26   H     H_    0.329707 0.935115 0.248162 0.154668
H27   H     H_    0.154609 0.581424 0.315349 0.158097
H28   H     H_    0.358608 0.274139 0.729409 0.172875
H29   H     H_    0.324158 0.279917 0.571568 0.108742
H30   H     H_    0.243256 0.212656 0.816090 0.183790
H31   H     H_    0.208710 0.214170 0.655955 0.160212
H32   H     H_    0.296602 0.068375 0.589477 0.146163
N1    N     N_1   0.500000 0.500000 0.186410 -0.179996
N2    N     N_1   0.500000 0.500000 0.813590 -0.179998
N3    N     N_R   0.034346 0.500535 0.388270 -0.224285
N4    N     N_R   0.965650 0.500432 0.611743 -0.224268
N5    N     N_R   0.965657 0.500045 0.388261 -0.224277
N6    N     N_R   0.034339 0.499937 0.611751 -0.224290
O1    O     O_R   0.500000 0.337200 0.605810 -0.500515
O2    O     O_3   0.712362 0.401871 0.293717 -0.545019
O3    O     O_3   0.712311 0.598294 0.706279 -0.545034
O4    O     O_3   0.287683 0.598238 0.293696 -0.545040
O5    O     O_R   0.500000 0.662800 0.394190 -0.500533
O6    O     O_R   0.500000 0.662800 0.605810 -0.500463
O7    O     O_R   0.500000 0.337200 0.394190 -0.500423
O8    O     O_R   0.400140 0.500000 0.605850 -0.463989
O9    O     O_R   0.599860 0.500000 0.394150 -0.463912
O10   O     O_R   0.599860 0.500000 0.605850 -0.463938
O11   O     O_R   0.400140 0.500000 0.394150 -0.463984
O12   O     O_3   0.287636 0.401848 0.706290 -0.545036

loop_
_geom_bond_atom_site_label_1
_geom_bond_atom_site_label_2
_ccdc_geom_bond_type
C2    C35   T    
C8    C13   A    
C30   H26   S    
Cu2   O7    S    
C1    O1    A    
C19   C20   S    
C14   C31   S    
C33   O10   A    
C20   H3    S    
C27   H16   S    
C13   H27   S    
C28   H19   S    
C7    C11   A    
C26   C27   S    
Cu1   Cu2   S    
N4    N6    A    
C21   C22   S    
C28   C29   S    
C10   C15   A    
C20   H2    S    
C27   H17   S    
C31   N3    A    
C9    H1    S    
C18   C19   S    
C33   O9    A    
C5    C16   A    
Cu2   N1    S    
C5    O12   S    
C11   C15   A    
C22   H6    S    
C29   H21   S    
C7    C17   A    
C21   O2    S    
Cu1   O8    S    
C15   C23   S    
C8    C16   A    
C21   H5    S    
C30   H25   S    
N3    N5    A    
C20   H32   S    
C17   C33   S    
C1    C34   S    
C32   O8    A    
Cu2   O9    S    
C24   H10   S    
Cu1   O10   S    
C27   H18   S    
C18   H29   S    
C32   O11   A    
Cu1   O1    S    
C18   O12   S    
C3    N1    T    
C9    C14   A    
C25   H13   S    
C5    C9    A    
C29   C30   S    
C26   H14   S    
C29   H22   S    
C12   O6    A    
C19   H30   S    
C12   C35   S    
C30   H24   S    
Cu2   O5    S    
C22   C24   S    
Cu1   O6    S    
C19   H31   S    
C16   C32   S    
C23   N4    A    
C3    C4    S    
C10   H12   S    
C26   H15   S    
C4    N2    T    
C7    O3    S    
C2    C36   S    
C6    C17   A    
C18   H28   S    
C25   O3    S    
C24   H9    S    
C23   N5    A    
C11   H23   S    
C6    C10   A    
C28   H20   S    
C1    O7    A    
Cu2   O11   S    
C24   H8    S    
C25   C26   S    
C31   N6    A    
C12   O5    A    
C34   C36   T    
C28   O4    S    
C25   H11   S    
C6    O2    S    
C21   H4    S    
C22   H7    S    
Cu1   N2    S    
C8    O4    S    
C13   C14   A    
