data_mof_unit_42776.cif
_audit_creation_date              2013-03-05T16:00:49-0500
_audit_creation_method            fapswitch 2.2
_symmetry_space_group_name_H-M    P1
_symmetry_Int_Tables_number       1
_space_group_crystal_system       triclinic
_cell_length_a                    14.763703
_cell_length_b                    14.927419
_cell_length_c                    15.902312
_cell_angle_alpha                 75.255154
_cell_angle_beta                  103.049818
_cell_angle_gamma                 116.104778
_cell_volume                      3017.22566296

loop_
_atom_site_label
_atom_site_type_symbol
_atom_site_description
_atom_site_fract_x
_atom_site_fract_y
_atom_site_fract_z
_atom_type_partial_charge
O1    O     O_R   0.977910 0.338120 0.529720 -0.592129
O2    O     O_R   0.839850 0.379180 0.491640 -0.574445
C1    C     C_R   0.879854 0.312167 0.515913 0.827581
O3    O     O_R   0.069060 0.479460 0.639610 -0.570194
O4    O     O_R   0.931000 0.520530 0.601530 -0.582251
C2    C     C_R   0.999938 0.499531 0.659491 0.797809
Cu1   Cu    Cu3+1 0.081750 0.475690 0.522550 1.049549
Cu2   Cu    Cu3+1 0.918250 0.524310 0.477450 1.048304
O5    O     O_R   0.160150 0.620820 0.508360 -0.551492
O6    O     O_R   0.022090 0.661880 0.470280 -0.550357
O7    O     O_R   0.069000 0.479470 0.398470 -0.530561
O8    O     O_R   0.930940 0.520540 0.360390 -0.535407
C3    C     C_R   0.120301 0.687584 0.487756 0.837801
C4    C     C_R   0.999911 0.500219 0.340535 0.854510
C5    C     C_3   0.029576 0.405045 0.980971 0.515826
C6    C     C_3   0.891813 0.482048 0.932967 0.087106
C7    C     C_3   0.889550 0.470727 0.033443 0.066029
H1    H     H_    0.890258 0.557275 0.901862 0.158190
H2    H     H_    0.863452 0.528604 0.038241 0.169216
C8    C     C_1   0.999768 0.500437 0.251104 0.014925
C9    C     C_3   0.997616 0.490819 0.918030 -0.156944
C10   C     C_3   0.046926 0.423637 0.078148 0.036393
C11   C     C_3   0.001156 0.499368 0.083884 -0.260672
C12   C     C_3   0.071004 0.608828 0.035401 0.457586
C13   C     C_3   0.078177 0.595398 0.941819 -0.595351
C14   C     C_1   0.000209 0.500323 0.175849 0.214027
C15   C     C_1   0.998341 0.494296 0.825087 0.168755
C16   C     C_1   0.999121 0.497270 0.749192 -0.047359
H3    H     H_    0.155227 0.600243 0.940285 0.239824
H4    H     H_    0.072010 0.658778 0.889661 0.254574
H5    H     H_    0.129491 0.465543 0.095032 0.191244
C17   C     C_R   0.812772 0.203652 0.535276 -0.126775
C18   C     C_R   0.189329 0.794527 0.490596 -0.074522
C19   C     C_R   0.789999 0.030160 0.599854 0.423043
C20   C     C_R   0.853324 0.132096 0.576065 -0.182104
C21   C     C_R   0.707687 0.172734 0.520793 -0.114680
C22   C     C_R   0.642020 0.073240 0.552723 0.058209
C23   C     C_R   0.682374 0.998083 0.584074 -0.073095
C24   C     C_R   0.536087 0.046578 0.548465 -0.033190
C25   C     C_R   0.468242 0.943585 0.553641 -0.028045
C26   C     C_R   0.508966 0.869619 0.583240 -0.173920
C27   C     C_R   0.613437 0.895091 0.598615 0.352996
C28   C     C_R   0.496012 0.118751 0.543612 0.287382
C29   C     C_R   0.391329 0.094256 0.520785 0.289432
C30   C     C_R   0.324464 0.994923 0.508718 -0.035160
C31   C     C_R   0.362095 0.918210 0.528701 0.059409
C32   C     C_R   0.220234 0.970188 0.478248 -0.052510
C33   C     C_R   0.153406 0.870952 0.469508 -0.129991
C34   C     C_R   0.292687 0.818949 0.519352 -0.133750
H6    H     H_    0.317342 0.758660 0.533258 0.197013
H7    H     H_    0.073648 0.854049 0.446896 0.198856
H8    H     H_    0.935000 0.155497 0.590753 0.202937
H9    H     H_    0.677194 0.227090 0.483544 0.204690
H10   H     H_    0.461479 0.789906 0.596531 0.191885
H11   H     H_    0.189582 0.027293 0.460386 0.204020
N1    N     N_R   0.795410 0.560790 0.443550 -0.229213
N2    N     N_R   0.204590 0.439170 0.556520 -0.259521
C35   C     C_R   0.696924 0.637603 0.336236 -0.254330
C36   C     C_R   0.787624 0.626432 0.367638 0.569965
C37   C     C_R   0.718812 0.513830 0.495126 0.005154
C38   C     C_R   0.626481 0.527495 0.468833 0.004877
C39   C     C_R   0.615326 0.585767 0.384776 0.064619
C40   C     C_R   0.543920 0.483662 0.520387 0.108725
C41   C     C_R   0.451624 0.496093 0.484474 0.133883
C42   C     C_R   0.439989 0.540228 0.395447 -0.061498
C43   C     C_R   0.521692 0.588973 0.348078 -0.101693
C44   C     C_R   0.549282 0.427407 0.605697 -0.097945
C45   C     C_R   0.463916 0.376713 0.650134 0.019599
C46   C     C_R   0.373841 0.391403 0.616675 -0.012718
C47   C     C_R   0.370942 0.459010 0.536742 -0.114490
C48   C     C_R   0.286849 0.341784 0.661200 0.259566
C49   C     C_R   0.201257 0.363650 0.626302 -0.018003
C50   C     C_R   0.289595 0.491205 0.514065 0.440994
H12   H     H_    0.510677 0.627127 0.281243 0.186319
H13   H     H_    0.133952 0.325351 0.659224 0.191378
H14   H     H_    0.470554 0.327548 0.711933 0.220750
H15   H     H_    0.689914 0.685769 0.273523 0.200354
H16   H     H_    0.729967 0.463728 0.554657 0.171875
H17   H     H_    0.367151 0.536433 0.360643 0.203439
H18   H     H_    0.617845 0.418246 0.638508 0.183521
N3    N     N_R   0.021328 0.330454 0.145097 0.180409
O9    O     O_R   0.094393 0.309897 0.196655 -0.262758
O10   O     O_R   0.928049 0.269949 0.157208 -0.216750
N4    N     N_R   0.123035 0.409011 0.956807 0.129959
O11   O     O_R   0.207072 0.426196 0.011054 -0.282314
O12   O     O_R   0.119029 0.383163 0.883317 -0.271788
N5    N     N_R   0.025802 0.681783 0.029056 0.140479
O13   O     O_R   0.022405 0.707491 0.100229 -0.254852
O14   O     O_R   0.994796 0.726458 0.954025 -0.295719
N6    N     N_R   0.645846 0.813718 0.618632 0.170741
O15   O     O_R   0.615893 0.741891 0.685574 -0.279572
O16   O     O_R   0.682426 0.798409 0.558992 -0.287836
N7    N     N_R   0.353353 0.170086 0.512722 0.142621
O17   O     O_R   0.286658 0.155374 0.561694 -0.327450
O18   O     O_R   0.390871 0.256900 0.461081 -0.317957
Cl1   Cl    Cl    0.852634 0.951149 0.657689 -0.415672
Cl2   Cl    Cl    0.933984 0.280236 0.969628 -0.302781
Cl3   Cl    Cl    0.570064 0.229465 0.589453 -0.590280
N8    N     N_R   0.306710 0.589702 0.461531 0.108328
O19   O     O_R   0.390971 0.666371 0.479606 -0.383917
O20   O     O_R   0.251704 0.599776 0.386401 -0.310420
Cl4   Cl    Cl    0.889432 0.697959 0.305893 -0.491186
N9    N     N_R   0.283671 0.270214 0.741433 0.149297
O21   O     O_R   0.202698 0.186374 0.752615 -0.245271
O22   O     O_R   0.350861 0.297485 0.809083 -0.261235
N10   N     N_R   0.799154 0.410460 0.888336 0.196751
O23   O     O_R   0.802221 0.354859 0.838844 -0.264794
O24   O     O_R   0.712390 0.413634 0.888095 -0.260292
N11   N     N_R   0.815042 0.373750 0.074902 0.209919
O25   O     O_R   0.782702 0.371185 0.145501 -0.303816
O26   O     O_R   0.773001 0.292737 0.039555 -0.156617
N12   N     N_R   0.176022 0.651916 0.081000 0.146966
O27   O     O_R   0.202485 0.614523 0.161185 -0.324910
O28   O     O_R   0.241176 0.737466 0.043982 -0.237106

loop_
_geom_bond_atom_site_label_1
_geom_bond_atom_site_label_2
_geom_bond_distance
_ccdc_geom_bond_type
C35   C39   1.393338 A    
N5    O13   1.301705 A    
N7    O17   1.301223 A    
C42   H17   1.076791 S    
C26   C27   1.394345 A    
C12   N12   1.481723 S    
C28   Cl3   1.766712 S    
Cu2   N1    2.038224 S    
N12   O28   1.301800 A    
N3    O9    1.301465 A    
Cu1   Cu2   2.713451 S    
C30   C31   1.419815 A    
Cu1   O7    1.927930 S    
C31   C34   1.405264 A    
C37   H16   1.077150 S    
C7    C11   1.580800 S    
N10   O24   1.301630 A    
C17   C21   1.391267 A    
C21   C22   1.405287 A    
C5    C10   1.583572 S    
C19   Cl1   1.765105 S    
C23   C27   1.414656 A    
N11   O26   1.300597 A    
O4    C2    1.301433 A    
O7    C4    1.301369 A    
N10   O23   1.300773 A    
C18   C34   1.396684 A    
C43   H12   1.084325 S    
C38   C40   1.436079 A    
C19   C20   1.395465 A    
C11   C14   1.469419 S    
N2    C50   1.375483 A    
C46   C48   1.416336 A    
O5    C3    1.307453 A    
C9    C13   1.567859 S    
C21   H9    1.080877 S    
C35   H15   1.084484 S    
C33   H7    1.083054 S    
C2    C16   1.420909 S    
C32   C33   1.394202 A    
C45   C46   1.406191 A    
C11   C12   1.600819 S    
C29   N7    1.436753 S    
C41   C47   1.431363 A    
C6    N10   1.475884 S    
C9    C15   1.467978 S    
N7    O18   1.300986 A    
C19   C23   1.424268 A    
C46   C47   1.412976 A    
C5    Cl2   1.799324 S    
C49   H13   1.082109 S    
N12   O27   1.301837 A    
N3    O10   1.298458 A    
C30   C32   1.411875 A    
C13   H3    1.113128 S    
C40   C44   1.407827 A    
C10   H5    1.102693 S    
C39   C43   1.390520 A    
C44   C45   1.396814 A    
C17   C20   1.398160 A    
C4    C8    1.420857 S    
N4    O11   1.303280 A    
O3    C2    1.301583 A    
C24   C25   1.411143 A    
C6    C7    1.569815 S    
C24   C28   1.419423 A    
O3    Cu1   1.929672 S    
C35   C36   1.386515 A    
N1    C37   1.368041 A    
C37   C38   1.420731 A    
O1    C1    1.303929 A    
C25   C31   1.424800 A    
C28   C29   1.403900 A    
C10   N3    1.475256 S    
C3    C18   1.474199 S    
C22   C23   1.425319 A    
N6    O16   1.301402 A    
N8    O19   1.301167 A    
Cu2   O8    1.929674 S    
C47   C50   1.423908 A    
C1    C17   1.473643 S    
N9    O22   1.301051 A    
C12   C13   1.583600 S    
Cu2   O6    1.941552 S    
C25   C26   1.412083 A    
N8    O20   1.298995 A    
O8    C4    1.301665 A    
C42   C43   1.382326 A    
N5    O14   1.301869 A    
C20   H8    1.083635 S    
C29   C30   1.407531 A    
C32   H11   1.081807 S    
C13   H4    1.110679 S    
C50   N8    1.437594 S    
C48   N9    1.435456 S    
O1    Cu1   1.941552 S    
C36   Cl4   1.756089 S    
O2    Cu2   1.935561 S    
C44   H18   1.078215 S    
N4    O12   1.302452 A    
O6    C3    1.307495 A    
C7    N11   1.476691 S    
O4    Cu2   1.927930 S    
C6    C9    1.576486 S    
C5    N4    1.486943 S    
C45   H14   1.080136 S    
N1    C36   1.365636 A    
C41   C42   1.408129 A    
O2    C1    1.311064 A    
C48   C49   1.401925 A    
C22   C24   1.423758 A    
N11   O25   1.301528 A    
N6    O15   1.301046 A    
C8    C14   1.198651 T    
C7    H2    1.113777 S    
N2    C49   1.357848 A    
C38   C39   1.416098 A    
C12   N5    1.481467 S    
C26   H10   1.075555 S    
C40   C41   1.426363 A    
Cu1   O5    1.935561 S    
C5    C9    1.590550 S    
C6    H1    1.114007 S    
C34   H6    1.068626 S    
N9    O21   1.301191 A    
C18   C33   1.397365 A    
C10   C11   1.579705 S    
C27   N6    1.432340 S    
Cu1   N2    2.038574 S    
C15   C16   1.198856 T    
