data_mof_unit_33164.cif
_audit_creation_date              2012-12-11T16:53:41-0500
_audit_creation_method            fapswitch 2.2
_symmetry_space_group_name_H-M    P1
_symmetry_Int_Tables_number       1
_space_group_crystal_system       triclinic
_cell_length_a                    26.226564
_cell_length_b                    7.156114
_cell_length_c                    24.031767
_cell_angle_alpha                 89.873154
_cell_angle_beta                  101.203172
_cell_angle_gamma                 90.163659
_cell_volume                      4424.31817099

loop_
_atom_site_label
_atom_site_type_symbol
_atom_type_description
_atom_site_fract_x
_atom_site_fract_y
_atom_site_fract_z
_atom_type_partial_charge
O1    O     O_R   0.297620 0.601080 0.203310 -0.545226
O2    O     O_R   0.702380 0.398920 0.796690 -0.538736
O3    O     O_R   0.202380 0.101080 0.296690 -0.544987
O4    O     O_R   0.797620 0.898920 0.703310 -0.540358
O5    O     O_R   0.192690 0.268060 0.187220 -0.527767
O6    O     O_R   0.807310 0.731940 0.812780 -0.522432
O7    O     O_R   0.307310 0.768060 0.312780 -0.527902
O8    O     O_R   0.692690 0.231940 0.687220 -0.523880
C1    C     C_R   0.174377 0.439791 0.172224 0.702192
C2    C     C_R   0.825493 0.560153 0.827938 0.694991
C3    C     C_R   0.325628 0.939889 0.327769 0.702047
C4    C     C_R   0.674531 0.060045 0.672031 0.691742
O9    O     O_R   0.296630 0.271160 0.196520 -0.539364
O10   O     O_R   0.703370 0.728840 0.803480 -0.543130
O11   O     O_R   0.203370 0.771160 0.303480 -0.539583
O12   O     O_R   0.796630 0.228840 0.696520 -0.537968
O13   O     O_R   0.307060 0.104040 0.306060 -0.529297
O14   O     O_R   0.692940 0.895960 0.693940 -0.535653
O15   O     O_R   0.192940 0.604040 0.193940 -0.529009
O16   O     O_R   0.807060 0.395960 0.806060 -0.532311
C5    C     C_R   0.313761 0.440875 0.185789 0.694962
C6    C     C_R   0.688642 0.558601 0.816949 0.695828
C7    C     C_R   0.186295 0.940237 0.314387 0.694485
C8    C     C_R   0.810481 0.059420 0.682400 0.690320
O17   O     O_3   0.253300 0.435560 0.285930 -0.371813
O18   O     O_3   0.746700 0.564440 0.714070 -0.372357
O19   O     O_3   0.246700 0.935560 0.214070 -0.371451
O20   O     O_3   0.753300 0.064440 0.785930 -0.373908
V1    V     V_3+5 0.249390 0.159480 0.243340 1.448312
V2    V     V_3+5 0.750610 0.840520 0.756660 1.441600
V3    V     V_3+5 0.250610 0.659480 0.256660 1.447949
V4    V     V_3+5 0.749390 0.340520 0.743340 1.449231
C9    C     C_R   0.841651 0.903848 0.599210 0.109792
C10   C     C_R   0.112831 0.109403 0.351601 0.113928
C11   C     C_R   0.647556 0.381903 0.891097 0.106832
C12   C     C_R   0.388113 0.611701 0.150431 0.113595
C13   C     C_R   0.881141 0.885498 0.567350 -0.059671
C14   C     C_R   0.078486 0.111358 0.390232 -0.040300
C15   C     C_R   0.609511 0.376975 0.925114 -0.072875
C16   C     C_R   0.422738 0.616429 0.112171 -0.040675
H1    H     H_    0.879576 0.771242 0.537537 0.148780
H2    H     H_    0.054094 0.230949 0.393143 0.145533
H3    H     H_    0.605191 0.253395 0.949992 0.136921
H4    H     H_    0.448140 0.734735 0.110695 0.144333
C17   C     C_R   0.921668 0.015906 0.571722 0.180970
C18   C     C_R   0.073872 0.958584 0.425386 0.181134
C19   C     C_R   0.577258 0.529860 0.928644 0.198482
C20   C     C_R   0.426019 0.468444 0.075174 0.182282
C21   C     C_R   0.923575 0.164280 0.610062 -0.042993
C22   C     C_R   0.105296 0.802027 0.423407 -0.056266
C23   C     C_R   0.582848 0.691456 0.897448 -0.044807
C24   C     C_R   0.393676 0.312839 0.075339 -0.053297
H5    H     H_    0.954146 0.268168 0.613610 0.161475
H6    H     H_    0.101967 0.681560 0.449848 0.154371
H7    H     H_    0.558497 0.811870 0.900069 0.147343
H8    H     H_    0.396065 0.196356 0.047261 0.154376
C25   C     C_R   0.886603 0.178387 0.644752 -0.194122
C26   C     C_R   0.141369 0.799351 0.387493 -0.187118
C27   C     C_R   0.619578 0.698674 0.862308 -0.203388
C28   C     C_R   0.357899 0.306349 0.111536 -0.188083
H9    H     H_    0.890353 0.290778 0.675416 0.141915
H10   H     H_    0.165585 0.676783 0.388047 0.150653
H11   H     H_    0.621944 0.824808 0.837941 0.133240
H12   H     H_    0.332981 0.184707 0.109819 0.151236
C29   C     C_R   0.845924 0.047406 0.640995 -0.081247
C30   C     C_R   0.146391 0.951448 0.351491 -0.100595
C31   C     C_R   0.652070 0.545054 0.857620 -0.063737
C32   C     C_R   0.353783 0.454453 0.149006 -0.100244
C33   C     C_R   0.014020 0.972608 0.558147 0.326456
C34   C     C_R   0.981557 0.985562 0.439545 0.326823
C35   C     C_R   0.554816 0.501080 0.025278 0.331309
C36   C     C_R   0.447879 0.496932 0.977982 0.332849
C37   C     C_R   0.050887 0.957752 0.522740 0.332466
C38   C     C_R   0.944983 0.006506 0.474907 0.330492
C39   C     C_R   0.518206 0.479236 0.060562 0.325433
C40   C     C_R   0.484575 0.515834 0.942537 0.327625
C41   C     C_R   0.034909 0.964020 0.463160 -0.255059
C42   C     C_R   0.960871 0.999247 0.534508 -0.250824
C43   C     C_R   0.464510 0.478044 0.037175 -0.258235
C44   C     C_R   0.538252 0.518765 0.966018 -0.257406
H13   H     H_    0.526648 0.741976 0.568190 0.200865
H14   H     H_    0.474447 0.256926 0.430466 0.197469
H15   H     H_    0.973306 0.242945 0.931595 0.200267
H16   H     H_    0.025699 0.755995 0.069607 0.197543
C45   C     C_R   0.471021 0.834316 0.495165 0.447045
C46   C     C_R   0.530108 0.164529 0.503468 0.445489
C47   C     C_R   0.028970 0.334762 0.004675 0.447468
C48   C     C_R   0.970006 0.664126 0.996548 0.446772
C49   C     C_R   0.455704 0.979584 0.455804 -0.046768
C50   C     C_R   0.545361 0.019391 0.542897 -0.046554
C51   C     C_R   0.044340 0.479475 0.044127 -0.046697
C52   C     C_R   0.954692 0.519526 0.957038 -0.046019
C53   C     C_R   0.485654 0.143969 0.460414 -0.186357
C54   C     C_R   0.515460 0.854900 0.538225 -0.183734
C55   C     C_R   0.014451 0.643448 0.039597 -0.185605
C56   C     C_R   0.984536 0.355458 0.961622 -0.183389
C57   C     C_1   0.409587 0.962639 0.410793 0.105105
C58   C     C_1   0.591226 0.036799 0.588206 0.103555
C59   C     C_1   0.090443 0.462389 0.089152 0.105905
C60   C     C_1   0.908817 0.537043 0.911746 0.106996
C61   C     C_1   0.629290 0.049294 0.626202 -0.126697
C62   C     C_1   0.371233 0.950438 0.373151 -0.126916
C63   C     C_1   0.870744 0.549562 0.873762 -0.130896
C64   C     C_1   0.128784 0.450165 0.126812 -0.126347
C65   C     C_3   0.795227 0.772640 0.585100 -0.406098
C66   C     C_3   0.766411 0.797617 0.523818 -0.619931
H17   H     H_    0.754313 0.945556 0.516002 0.242593
H18   H     H_    0.791157 0.756195 0.493355 0.258582
H19   H     H_    0.731092 0.708049 0.516099 0.232542
H20   H     H_    0.808777 0.625789 0.591772 0.193662
H21   H     H_    0.765992 0.796020 0.611769 0.203141
C67   C     C_3   0.112773 0.271725 0.310084 -0.364167
C68   C     C_3   0.066701 0.406348 0.303674 -0.699392
H22   H     H_    0.029374 0.328571 0.292913 0.271739
H23   H     H_    0.068075 0.488385 0.343067 0.225457
H24   H     H_    0.068712 0.506677 0.268823 0.220495
H25   H     H_    0.148894 0.355057 0.323229 0.199060
H26   H     H_    0.112070 0.213339 0.267115 0.189279
C69   C     C_3   0.682743 0.212238 0.893991 -0.371607
C70   C     C_3   0.738463 0.257433 0.923338 -0.591085
H27   H     H_    0.739161 0.303675 0.967577 0.246565
H28   H     H_    0.762842 0.130329 0.924507 0.221565
H29   H     H_    0.755624 0.369030 0.900701 0.196625
H30   H     H_    0.668891 0.097710 0.918730 0.180007
H31   H     H_    0.681340 0.151012 0.851469 0.200623
C71   C     C_3   0.388434 0.770694 0.192949 -0.364718
C72   C     C_3   0.434459 0.906524 0.199892 -0.700260
H32   H     H_    0.471823 0.829432 0.210197 0.268282
H33   H     H_    0.432903 0.991350 0.160858 0.228610
H34   H     H_    0.432501 0.004251 0.235261 0.220223
H35   H     H_    0.352416 0.854380 0.180312 0.200593
H36   H     H_    0.389085 0.708926 0.235566 0.188450
Cl1   Cl    Cl    0.034719 0.952822 0.632466 -0.475074
Cl2   Cl    Cl    0.959809 0.982107 0.365060 -0.498445
Cl3   Cl    Cl    0.621797 0.510791 0.055945 -0.478747
Cl4   Cl    Cl    0.380774 0.502314 0.948015 -0.457137
Cl5   Cl    Cl    0.117582 0.938343 0.553643 -0.457670
Cl6   Cl    Cl    0.879164 0.049551 0.443845 -0.502996
Cl7   Cl    Cl    0.540035 0.449345 0.134454 -0.498058
Cl8   Cl    Cl    0.462994 0.530737 0.868250 -0.468894
Cl9   Cl    Cl    0.435248 0.624725 0.491740 -0.576038
Cl10  Cl    Cl    0.565932 0.374011 0.506861 -0.601944
Cl11  Cl    Cl    0.064673 0.125741 0.007974 -0.575841
Cl12  Cl    Cl    0.934266 0.873073 0.993261 -0.594718

loop_
_geom_bond_atom_site_label_1
_geom_bond_atom_site_label_2
_ccdc_geom_bond_type
C26   H10   S    
C67   H26   S    
C65   H20   S    
O1    C5    A    
C71   C72   S    
C47   C51   A    
O19   V1    S    
O13   V1    S    
O3    C7    A    
O1    V3    S    
C36   C40   A    
O15   V3    S    
C10   C30   A    
C9    C29   A    
C69   H30   S    
O7    C3    A    
C38   Cl6   S    
C46   Cl10  S    
C22   H6    S    
C66   H18   S    
C20   C43   S    
O9    V1    S    
C2    C63   S    
C1    O15   A    
C14   H2    S    
C36   C43   A    
C35   Cl3   S    
C67   H25   S    
O4    C8    A    
C36   Cl4   S    
C66   H17   S    
C7    C30   S    
C52   C56   A    
C10   C67   S    
O2    V4    S    
O3    V1    S    
C34   C38   A    
C35   C44   A    
C24   C28   A    
C27   C31   A    
C11   C69   S    
C26   C30   A    
C48   C52   A    
C2    O16   A    
O2    C6    A    
C33   C37   A    
C17   C42   S    
O14   V2    S    
C11   C31   A    
C57   C62   T    
C70   H29   S    
C68   H24   S    
O11   C7    A    
C59   C64   T    
C65   H21   S    
C48   C55   A    
O12   C8    A    
H14   C53   S    
C34   C41   A    
C49   C53   A    
C33   C42   A    
C19   C44   S    
O10   V2    S    
C67   C68   S    
C70   H28   S    
C50   C54   A    
O5    V1    S    
C40   Cl8   S    
O7    V3    S    
O8    V4    S    
C12   C16   A    
C9    C65   S    
C46   C50   A    
C45   Cl9   S    
C45   C49   A    
O18   V4    S    
C19   C23   A    
C60   C63   T    
C9    C13   A    
C49   C57   S    
H16   C55   S    
C22   C26   A    
C11   C15   A    
C72   H33   S    
O5    C1    A    
C46   C53   A    
C18   C41   S    
C45   C54   A    
C17   C21   A    
O8    C4    A    
C47   C56   A    
O9    C5    A    
O11   V3    S    
C8    C29   S    
C69   H31   S    
O6    V2    S    
C5    C32   S    
C23   C27   A    
C13   C17   A    
C72   H32   S    
C70   H27   S    
C52   C60   S    
C15   C19   A    
C68   H22   S    
O16   V4    S    
C16   C20   A    
C3    O13   A    
C33   Cl1   S    
C10   C14   A    
O17   V3    S    
C12   C71   S    
C40   C44   A    
C25   C29   A    
O6    C2    A    
C21   C25   A    
C15   H3    S    
C69   C70   S    
C12   C32   A    
C25   H9    S    
O12   V4    S    
C58   C61   T    
C65   C66   S    
C18   C22   A    
C27   H11   S    
C28   H12   S    
C51   C59   S    
O10   C6    A    
O20   V2    S    
C72   H34   S    
C4    C61   S    
C39   Cl7   S    
C35   C39   A    
H13   C54   S    
C37   Cl5   S    
C71   H35   S    
C1    C64   S    
C21   H5    S    
H15   C56   S    
C48   Cl12  S    
C3    C62   S    
C23   H7    S    
C13   H1    S    
C6    C31   S    
C14   C18   A    
C71   H36   S    
C51   C55   A    
C16   H4    S    
C28   C32   A    
C38   C42   A    
C4    O14   A    
C34   Cl2   S    
C37   C41   A    
C47   Cl11  S    
C20   C24   A    
C39   C43   A    
C50   C58   S    
O4    V2    S    
C24   H8    S    
C68   H23   S    
C66   H19   S    
