data_mof_unit_65749.cif
_audit_creation_date              2012-10-26T18:40:33-0400
_audit_creation_method            fapswitch 2.2
_symmetry_space_group_name_H-M    P1
_symmetry_Int_Tables_number       1
_space_group_crystal_system       triclinic
_cell_length_a                    15.116038
_cell_length_b                    13.866527
_cell_length_c                    11.716348
_cell_angle_alpha                 90.000016
_cell_angle_beta                  90.157006
_cell_angle_gamma                 90.000012
_cell_volume                      2455.8187379

loop_
_atom_site_label
_atom_site_type_symbol
_atom_type_description
_atom_site_fract_x
_atom_site_fract_y
_atom_site_fract_z
_atom_type_partial_charge
C1    C     C_R   0.329877 0.499993 0.499944 0.558569
C2    C     C_R   0.500032 0.500003 0.716142 0.554681
C3    C     C_R   0.568976 0.107897 0.551382 -0.124590
C4    C     C_R   0.457253 0.892071 0.413278 -0.124041
C5    C     C_R   0.431024 0.107897 0.448618 -0.124590
C6    C     C_R   0.542747 0.892071 0.586722 -0.124041
C7    C     C_1   0.499971 0.500016 0.162246 -0.003317
C8    C     C_1   0.500029 0.500016 0.837754 -0.003317
C9    C     C_1   0.499987 0.500027 0.059851 -0.018481
C10   C     C_1   0.500013 0.500027 0.940149 -0.018481
C11   C     C_R   0.567347 0.209351 0.551181 0.063186
C12   C     C_R   0.670123 0.499993 0.500056 0.558568
C13   C     C_R   0.457498 0.790615 0.415362 0.061278
C14   C     C_R   0.432653 0.209351 0.448819 0.063185
C15   C     C_R   0.542502 0.790615 0.584638 0.061278
C16   C     C_R   0.095126 0.577266 0.548736 0.393225
C17   C     C_R   0.905034 0.422456 0.548744 0.394758
C18   C     C_R   0.904874 0.577266 0.451264 0.393225
C19   C     C_R   0.094966 0.422456 0.451256 0.394758
C20   C     C_R   0.187126 0.577667 0.547456 -0.102257
C21   C     C_R   0.813021 0.422169 0.547557 -0.103536
C22   C     C_R   0.812874 0.577667 0.452544 -0.102257
C23   C     C_R   0.233390 0.499953 0.499926 -0.107392
C24   C     C_R   0.186979 0.422169 0.452444 -0.103536
C25   C     C_R   0.766610 0.499953 0.500074 -0.107392
C26   C     C_R   0.048501 0.499839 0.500010 0.095632
C27   C     C_R   0.951499 0.499839 0.499991 0.095632
C28   C     C_R   0.500000 0.054662 0.500000 0.023641
C29   C     C_R   0.500000 0.945306 0.500000 0.027352
C30   C     C_R   0.499968 0.500003 0.283858 0.554681
Cu1   Cu    Cu3+1 0.500000 0.596430 0.500000 0.967771
Cu2   Cu    Cu3+1 0.500000 0.403570 0.500000 0.972838
F1    F     F_    0.051661 0.651468 0.599318 -0.565992
F2    F     F_    0.948672 0.348203 0.599279 -0.567001
F3    F     F_    0.948339 0.651468 0.400681 -0.565993
F4    F     F_    0.051328 0.348202 0.400722 -0.567001
H1    H     H_    0.624857 0.071957 0.590456 0.113095
H2    H     H_    0.778065 0.362074 0.585628 0.160404
H3    H     H_    0.777799 0.637796 0.414486 0.174284
H4    H     H_    0.221935 0.362074 0.414373 0.160404
H5    H     H_    0.424608 0.928011 0.342913 0.105888
H6    H     H_    0.375143 0.071956 0.409544 0.113095
H7    H     H_    0.575392 0.928012 0.657086 0.105888
H8    H     H_    0.620595 0.248528 0.591953 0.130984
H9    H     H_    0.423731 0.751353 0.348449 0.135700
H10   H     H_    0.379405 0.248528 0.408047 0.130984
H11   H     H_    0.576269 0.751353 0.651551 0.135699
H12   H     H_    0.222201 0.637796 0.585513 0.174284
N1    N     N_R   0.500000 0.258690 0.500000 -0.224924
N2    N     N_R   0.500000 0.741310 0.500000 -0.226612
O1    O     O_R   0.371460 0.581430 0.500010 -0.495892
O2    O     O_R   0.628540 0.418570 0.499990 -0.505831
O3    O     O_R   0.628540 0.581430 0.499990 -0.495892
O4    O     O_R   0.371460 0.418570 0.500010 -0.505831
O5    O     O_R   0.500010 0.581440 0.337200 -0.503601
O6    O     O_R   0.499990 0.418560 0.662800 -0.489786
O7    O     O_R   0.499990 0.581440 0.662800 -0.503601
O8    O     O_R   0.500010 0.418560 0.337200 -0.489786

loop_
_geom_bond_atom_site_label_1
_geom_bond_atom_site_label_2
_ccdc_geom_bond_type
C3    C28   A    
C17   F2    S    
C23   C24   A    
C11   N1    A    
C15   H11   S    
C16   F1    S    
C5    C28   A    
C30   O5    A    
C12   O2    A    
C4    C29   A    
C20   C23   A    
Cu2   O8    S    
C12   C25   S    
C1    O4    A    
Cu1   O7    S    
C19   C24   A    
C26   C27   S    
C2    O7    A    
C11   H8    S    
C14   H10   S    
C7    C30   S    
C2    O6    A    
Cu1   O3    S    
C13   H9    S    
C1    O1    A    
C5    C14   A    
C20   H12   S    
C22   H3    S    
C30   O8    A    
C9    C10   S    
Cu2   O4    S    
C16   C20   A    
C24   H4    S    
C1    C23   S    
C6    H7    S    
C16   C26   A    
C17   C21   A    
Cu2   N1    S    
C14   N1    A    
C3    C11   A    
C4    H5    S    
C21   H2    S    
Cu1   N2    S    
C13   N2    A    
C17   C27   A    
Cu2   O2    S    
C6    C29   A    
C3    H1    S    
C5    H6    S    
C8    C10   T    
C18   F3    S    
C15   N2    A    
C4    C13   A    
C7    C9    T    
C19   C26   A    
C21   C25   A    
C28   C29   S    
Cu1   O5    S    
C6    C15   A    
C18   C22   A    
C19   F4    S    
Cu2   O6    S    
Cu1   Cu2   S    
C2    C8    S    
C18   C27   A    
C12   O3    A    
Cu1   O1    S    
C22   C25   A    
