data_mof_unit_45663.cif
_audit_creation_date              2012-10-26T21:11:05-0400
_audit_creation_method            fapswitch 2.2
_symmetry_space_group_name_H-M    P1
_symmetry_Int_Tables_number       1
_space_group_crystal_system       triclinic
_cell_length_a                    10.895437
_cell_length_b                    10.891902
_cell_length_c                    13.116876
_cell_angle_alpha                 90.246571
_cell_angle_beta                  90.503126
_cell_angle_gamma                 90.360054
_cell_volume                      1556.50079378

loop_
_atom_site_label
_atom_site_type_symbol
_atom_type_description
_atom_site_fract_x
_atom_site_fract_y
_atom_site_fract_z
_atom_type_partial_charge
C1    C     C_R   0.505038 0.259616 0.499614 0.570322
C2    C     C_R   0.467168 0.888231 0.769990 -0.060462
C3    C     C_R   0.599986 0.119261 0.321675 -0.008070
C4    C     C_R   0.399919 0.880734 0.678280 -0.008067
C5    C     C_R   0.714640 0.182482 0.323406 0.279339
C6    C     C_R   0.285221 0.817592 0.676490 0.279313
C7    C     C_R   0.756246 0.238494 0.234114 -0.074688
C8    C     C_R   0.243503 0.761619 0.765763 -0.074748
C9    C     C_R   0.687191 0.232331 0.144084 -0.151226
C10   C     C_R   0.312501 0.767722 0.855825 -0.151263
C11   C     C_R   0.540133 0.933288 0.415619 -0.153920
C12   C     C_R   0.494964 0.740383 0.500386 0.570296
C13   C     C_R   0.459873 0.066708 0.584379 -0.153889
C14   C     C_R   0.494474 0.872859 0.501260 -0.008598
C15   C     C_R   0.505533 0.127139 0.498737 -0.008556
C16   C     C_R   0.259598 0.492511 0.499304 0.574887
C17   C     C_R   0.740403 0.507468 0.500696 0.574927
C18   C     C_R   0.452523 0.939723 0.586413 -0.050123
C19   C     C_R   0.547465 0.060274 0.413577 -0.050125
C20   C     C_1   0.500049 0.500066 0.173562 0.131565
C21   C     C_1   0.499951 0.499937 0.826438 0.131612
C22   C     C_1   0.500034 0.500045 0.050681 -0.053372
C23   C     C_R   0.873052 0.508338 0.501891 0.013010
C24   C     C_1   0.499967 0.499960 0.949318 -0.053300
C25   C     C_R   0.152219 0.467165 0.129762 0.268123
C26   C     C_R   0.847609 0.533053 0.870196 0.268130
C27   C     C_R   0.102720 0.504689 0.222958 -0.035158
C28   C     C_R   0.897135 0.495417 0.777041 -0.035146
C29   C     C_R   0.114597 0.431035 0.310119 -0.004284
C30   C     C_R   0.885401 0.569032 0.689846 -0.004321
C31   C     C_R   0.175030 0.317940 0.302965 -0.078943
C32   C     C_R   0.825091 0.682199 0.696924 -0.079008
C33   C     C_R   0.224171 0.279811 0.210177 -0.126523
C34   C     C_R   0.126948 0.491607 0.498111 0.013006
C35   C     C_R   0.775938 0.720445 0.789673 -0.126535
C36   C     C_R   0.213318 0.353803 0.123874 -0.085824
C37   C     C_R   0.786642 0.646492 0.876010 -0.085780
C38   C     C_R   0.932354 0.480563 0.410633 -0.114195
C39   C     C_R   0.067643 0.519365 0.589374 -0.114246
C40   C     C_R   0.941197 0.530053 0.592333 -0.029113
C41   C     C_R   0.058802 0.469900 0.407666 -0.029098
C42   C     C_R   0.574742 0.168433 0.141422 0.253757
C43   C     C_R   0.425003 0.831524 0.858540 0.253819
C44   C     C_R   0.532682 0.111702 0.229995 -0.060556
Cu1   Cu    Cu3+1 0.499990 0.499990 0.592680 1.003090
Cu2   Cu    Cu3+1 0.500010 0.500010 0.407320 1.003086
H1    H     H_    0.252242 0.322714 0.052683 0.130901
H2    H     H_    0.816708 0.740821 0.630751 0.121203
H3    H     H_    0.270026 0.192359 0.204941 0.136889
H4    H     H_    0.730190 0.807958 0.794849 0.136708
H5    H     H_    0.879642 0.463491 0.341514 0.135543
H6    H     H_    0.120352 0.536442 0.658495 0.135494
H7    H     H_    0.721758 0.276789 0.076388 0.137930
H8    H     H_    0.277849 0.723294 0.923504 0.137898
H9    H     H_    0.446251 0.062022 0.227658 0.131648
H10   H     H_    0.553632 0.937850 0.772371 0.131627
H11   H     H_    0.755502 0.139449 0.463984 0.327187
H12   H     H_    0.747705 0.677672 0.947169 0.130990
H13   H     H_    0.244550 0.860546 0.535853 0.327196
H14   H     H_    0.178783 0.503214 0.986852 0.319782
H15   H     H_    0.820882 0.497114 0.013103 0.319822
H16   H     H_    0.545951 0.205109 0.998565 0.329721
H17   H     H_    0.453655 0.794834 0.001413 0.329746
H18   H     H_    0.843638 0.286311 0.234147 0.138937
H19   H     H_    0.156069 0.713876 0.765687 0.138952
H20   H     H_    0.573202 0.881284 0.350798 0.139971
H21   H     H_    0.426797 0.118712 0.649197 0.139958
H22   H     H_    0.055212 0.591608 0.227564 0.133609
H23   H     H_    0.944542 0.408440 0.772492 0.133610
H24   H     H_    0.183524 0.259283 0.369108 0.121172
N1    N     N_1   0.500030 0.500030 0.268070 -0.176984
N2    N     N_1   0.499970 0.499970 0.731930 -0.176992
O1    O     O_R   0.499980 0.319630 0.578260 -0.503549
O2    O     O_3   0.210876 0.808918 0.590868 -0.706061
O3    O     O_3   0.139142 0.542646 0.046277 -0.696560
O4    O     O_3   0.860530 0.457602 0.953717 -0.696568
O5    O     O_3   0.504076 0.159875 0.053899 -0.685526
O6    O     O_3   0.495617 0.840018 0.946096 -0.685494
O7    O     O_R   0.500020 0.680370 0.421740 -0.503537
O8    O     O_R   0.500000 0.319650 0.421740 -0.488737
O9    O     O_R   0.500000 0.680350 0.578260 -0.488728
O10   O     O_R   0.319630 0.500000 0.578260 -0.498694
O11   O     O_R   0.680370 0.500000 0.421740 -0.498667
O12   O     O_R   0.319650 0.500020 0.421740 -0.486741
O13   O     O_R   0.680350 0.499980 0.578260 -0.486731
O14   O     O_3   0.789040 0.191199 0.408991 -0.706071

loop_
_geom_bond_atom_site_label_1
_geom_bond_atom_site_label_2
_ccdc_geom_bond_type
Cu2   O8    S    
C27   C29   A    
C14   C18   A    
H16   O5    S    
Cu1   O13   S    
C28   H23   S    
Cu1   Cu2   S    
C43   O6    S    
C15   C19   A    
C11   C19   A    
C9    C42   A    
C17   C23   S    
C13   C18   A    
C17   O13   A    
C35   C37   A    
Cu2   O7    S    
C11   C14   A    
C33   H3    S    
C23   C40   A    
C12   O7    A    
C16   O12   A    
C33   C36   A    
H11   O14   S    
C36   H1    S    
Cu1   O1    S    
C27   H22   S    
C16   C34   S    
C31   H24   S    
Cu1   O10   S    
C26   O4    S    
C31   C33   A    
C20   N1    T    
C3    C19   S    
C1    C15   S    
C37   H12   S    
C11   H20   S    
C4    C18   S    
C39   H6    S    
C8    H19   S    
Cu1   N2    S    
C32   H2    S    
C34   C41   A    
C42   C44   A    
C6    O2    S    
H15   O4    S    
C3    C44   A    
C21   N2    T    
C34   C39   A    
C32   C35   A    
C38   C41   A    
C4    C6    A    
C39   C40   A    
C5    C7    A    
C6    C8    A    
C38   H5    S    
C25   O3    S    
C2    C4    A    
C2    C43   A    
C35   H4    S    
C16   O10   A    
C30   C40   S    
H13   O2    S    
Cu2   N1    S    
Cu2   O12   S    
C5    O14   S    
C12   C14   S    
C13   C15   A    
C22   C24   T    
C9    H7    S    
C13   H21   S    
C7    C9    A    
C29   C41   S    
C10   C43   A    
Cu1   O9    S    
C20   C22   S    
C3    C5    A    
C26   C37   A    
C25   C27   A    
C23   C38   A    
H14   O3    S    
C26   C28   A    
C1    O1    A    
C28   C30   A    
C29   C31   A    
C2    H10   S    
C30   C32   A    
C44   H9    S    
C12   O9    A    
C10   H8    S    
C7    H18   S    
C25   C36   A    
Cu2   O11   S    
C42   O5    S    
C8    C10   A    
C21   C24   S    
C1    O8    A    
C17   O11   A    
H17   O6    S    
