data_mof_unit_63730.cif
_audit_creation_date              2013-03-05T16:23:51-0500
_audit_creation_method            fapswitch 2.2
_symmetry_space_group_name_H-M    P1
_symmetry_Int_Tables_number       1
_space_group_crystal_system       triclinic
_cell_length_a                    30.654905
_cell_length_b                    31.822385
_cell_length_c                    21.648184
_cell_angle_alpha                 90.460133
_cell_angle_beta                  135.009715
_cell_angle_gamma                 89.713583
_cell_volume                      14929.7080749

loop_
_atom_site_label
_atom_site_type_symbol
_atom_site_description
_atom_site_fract_x
_atom_site_fract_y
_atom_site_fract_z
_atom_type_partial_charge
O1    O     O_R   0.448310 0.000000 0.356640 -0.628604
O2    O     O_R   0.948310 0.500000 0.356640 -0.622127
O3    O     O_R   0.551720 1.000000 0.460130 -0.613010
O4    O     O_R   0.051720 0.500000 0.460130 -0.615868
C1    C     C_R   0.500158 0.999407 0.380160 0.858583
C2    C     C_R   0.000085 0.499978 0.379902 0.856274
O5    O     O_R   0.448310 0.938390 0.448250 -0.618777
O6    O     O_R   0.448310 0.061610 0.448250 -0.603529
O7    O     O_R   0.948310 0.438390 0.448250 -0.611725
O8    O     O_R   0.948310 0.561610 0.448250 -0.598703
O9    O     O_R   0.551720 0.938410 0.551740 -0.607167
O10   O     O_R   0.551720 0.061590 0.551740 -0.592464
O11   O     O_R   0.051720 0.438410 0.551740 -0.609645
O12   O     O_R   0.051720 0.561590 0.551740 -0.596324
C3    C     C_R   0.500008 0.918761 0.500013 0.878943
C4    C     C_R   0.500059 0.081231 0.499972 0.914372
C5    C     C_R   0.000006 0.418764 0.499986 0.878360
C6    C     C_R   0.000040 0.581236 0.500309 0.914561
Zn1   Zn    Zn3+2 0.430960 0.000000 0.430900 1.036873
Zn2   Zn    Zn3+2 0.930960 0.500000 0.430900 1.069117
Zn3   Zn    Zn3+2 0.569060 0.000000 0.569100 1.081399
Zn4   Zn    Zn3+2 0.069060 0.500000 0.569100 1.064103
O13   O     O_R   0.448310 0.000000 0.539870 -0.591232
O14   O     O_R   0.948310 0.500000 0.539870 -0.575901
O15   O     O_R   0.551720 0.000000 0.643360 -0.584159
O16   O     O_R   0.051720 0.500000 0.643360 -0.594022
C7    C     C_R   0.500164 0.000718 0.619856 0.926672
C8    C     C_R   0.000142 0.500777 0.619734 0.923368
C9    C     C_3   0.464042 0.735693 0.419360 -0.196397
C10   C     C_3   0.483022 0.263583 0.426871 -0.190508
C11   C     C_3   0.980094 0.235665 0.426389 -0.193984
C12   C     C_3   0.966264 0.763413 0.418616 -0.185770
C13   C     C_3   0.521712 0.763902 0.467237 -0.215388
C14   C     C_3   0.540277 0.235381 0.495926 -0.225688
C15   C     C_3   0.037885 0.264024 0.493070 -0.213749
C16   C     C_3   0.024573 0.735255 0.471436 -0.233312
H1    H     H_    0.539334 0.775594 0.440037 0.175886
H2    H     H_    0.572787 0.223132 0.493052 0.183212
H3    H     H_    0.068680 0.275808 0.486895 0.177528
H4    H     H_    0.045241 0.722887 0.448738 0.181272
H5    H     H_    0.433442 0.723256 0.351717 0.178359
H6    H     H_    0.467796 0.275460 0.366024 0.188253
H7    H     H_    0.962701 0.223192 0.364204 0.180712
H8    H     H_    0.938184 0.775145 0.351374 0.196546
C17   C     C_1   0.500079 0.874254 0.500282 -0.144952
C18   C     C_1   0.500220 0.125724 0.499899 -0.083698
C19   C     C_1   0.000053 0.374262 0.500310 -0.143439
C20   C     C_1   0.000074 0.625738 0.500756 -0.084007
C21   C     C_1   0.500256 0.625749 0.500964 -0.093053
C22   C     C_1   0.500630 0.374234 0.500009 -0.119400
C23   C     C_1   0.000299 0.125757 0.501031 -0.080494
C24   C     C_1   0.999616 0.874245 0.499048 -0.101248
C25   C     C_3   0.443271 0.763962 0.453421 -0.117105
C26   C     C_3   0.443825 0.235982 0.431472 -0.115714
C27   C     C_3   0.943084 0.263829 0.434873 -0.115531
C28   C     C_3   0.941941 0.735964 0.447943 -0.102406
C29   C     C_3   0.500965 0.791262 0.501535 0.124612
C30   C     C_3   0.501030 0.208703 0.500677 0.107970
C31   C     C_3   0.000836 0.291278 0.501724 0.121390
C32   C     C_3   0.000269 0.708727 0.500983 0.110220
C33   C     C_3   0.480609 0.736420 0.536271 -0.188156
C34   C     C_3   0.462436 0.264216 0.505822 -0.192341
C35   C     C_3   0.964294 0.236332 0.511008 -0.184911
C36   C     C_3   0.976027 0.764401 0.529605 -0.188069
C37   C     C_3   0.501224 0.708749 0.502075 0.069833
C38   C     C_3   0.501492 0.291219 0.501041 0.063488
C39   C     C_3   0.001152 0.208764 0.502344 0.066530
C40   C     C_3   0.000206 0.791240 0.500136 0.056414
C41   C     C_3   0.538354 0.764645 0.584644 -0.204752
C42   C     C_3   0.519596 0.236008 0.575203 -0.152899
C43   C     C_3   0.022025 0.264708 0.578052 -0.200594
C44   C     C_3   0.034376 0.736231 0.582889 -0.164413
C45   C     C_3   0.557508 0.736682 0.549009 0.352905
C46   C     C_3   0.557277 0.263287 0.568555 0.336216
C47   C     C_3   0.057486 0.236849 0.567551 0.343286
C48   C     C_3   0.057092 0.763348 0.551896 0.344633
C49   C     C_1   0.500401 0.836718 0.500791 -0.002775
C50   C     C_1   0.500509 0.163255 0.500124 0.044677
C51   C     C_1   0.000320 0.336729 0.500872 0.000589
C52   C     C_1   0.000103 0.663272 0.500975 0.040879
C53   C     C_1   0.500631 0.663276 0.501537 0.044277
C54   C     C_1   0.501020 0.336701 0.500368 0.039894
C55   C     C_1   0.000618 0.163287 0.501658 0.046953
C56   C     C_1   0.999705 0.836717 0.499238 0.054482
H9    H     H_    0.569449 0.776943 0.652468 0.184986
H10   H     H_    0.535352 0.224223 0.636464 0.214823
H11   H     H_    0.039987 0.277048 0.640662 0.189060
H12   H     H_    0.062908 0.724627 0.650343 0.202573
H13   H     H_    0.463558 0.724578 0.564175 0.182173
H14   H     H_    0.430403 0.276612 0.509498 0.186062
H15   H     H_    0.933997 0.224400 0.517982 0.184084
H16   H     H_    0.955915 0.776923 0.553023 0.187286
H17   H     H_    0.395873 0.776085 0.413750 0.164774
H18   H     H_    0.396751 0.223842 0.374605 0.173184
H19   H     H_    0.895620 0.275831 0.379816 0.168525
H20   H     H_    0.894176 0.723785 0.404861 0.178969
C57   C     C_R   0.477174 0.033838 0.260187 0.101961
C58   C     C_R   0.047904 0.481878 0.329187 0.154288
C59   C     C_R   0.501727 0.999833 0.316103 -0.075412
C60   C     C_R   0.001053 0.502131 0.314974 -0.097848
C61   C     C_R   0.535397 0.969109 0.317645 -0.193071
C62   C     C_R   0.957810 0.526731 0.240160 -0.191580
H21   H     H_    0.558534 0.944029 0.365188 0.163262
H22   H     H_    0.923371 0.544800 0.230555 0.171467
C63   C     C_R   0.535713 0.969330 0.253662 -0.155513
C64   C     C_R   0.958001 0.526885 0.176035 -0.161653
H23   H     H_    0.559073 0.944354 0.252102 0.182957
H24   H     H_    0.923584 0.544961 0.117068 0.165553
C65   C     C_R   0.503860 0.001027 0.190352 -0.086838
C66   C     C_R   0.000107 0.501401 0.186095 -0.062086
C67   C     C_R   0.478574 0.034608 0.198155 0.156219
C68   C     C_R   0.046995 0.481107 0.264858 0.168895
C69   C     C_3   0.415339 0.053092 0.131414 -0.394696
C70   C     C_3   0.067808 0.436454 0.282456 -0.437269
C71   C     C_3   0.414033 0.052269 0.200141 -0.500212
C72   C     C_3   0.068987 0.437274 0.353782 -0.492795
H25   H     H_    0.381326 0.031310 0.075715 0.218903
H26   H     H_    0.415963 0.085481 0.113219 0.256469
H27   H     H_    0.114403 0.433382 0.308107 0.231977
H28   H     H_    0.032082 0.415013 0.227218 0.231197
H29   H     H_    0.379237 0.030108 0.184188 0.228309
H30   H     H_    0.414117 0.084117 0.221696 0.219771
H31   H     H_    0.116277 0.434683 0.420612 0.230502
H32   H     H_    0.034049 0.416271 0.340132 0.207353
C73   C     C_R   0.525961 0.032222 0.744474 0.015471
C74   C     C_R   0.006103 0.537048 0.723707 0.001069
C75   C     C_R   0.501198 0.999167 0.685959 -0.089176
C76   C     C_R   0.001491 0.499883 0.685997 -0.087319
C77   C     C_R   0.480555 0.963134 0.695206 -0.233300
C78   C     C_R   0.007898 0.461477 0.722190 -0.217443
H33   H     H_    0.463975 0.936466 0.651860 0.175905
H34   H     H_    0.009711 0.432517 0.697307 0.173082
C79   C     C_R   0.478075 0.962291 0.757197 0.326910
C80   C     C_R   0.010854 0.460224 0.789526 0.331095
C81   C     C_R   0.496488 0.998701 0.809639 -0.123631
C82   C     C_R   0.005592 0.498577 0.818485 -0.118101
C83   C     C_R   0.521195 0.032708 0.802392 -0.004845
C84   C     C_R   0.005157 0.536422 0.785644 0.005006
C85   C     C_3   0.516869 0.080035 0.802622 -0.345886
C86   C     C_3   0.971794 0.578035 0.757823 -0.329367
C87   C     C_3   0.521939 0.079336 0.735754 0.343674
C88   C     C_3   0.973523 0.578639 0.687443 0.352265
O17   O     O_R   0.408300 0.500000 0.356580 -0.604204
O18   O     O_R   0.908300 0.000000 0.356580 -0.592380
O19   O     O_R   0.408400 0.500000 0.460120 -0.611789
O20   O     O_R   0.908400 0.000000 0.460120 -0.612336
C89   C     C_R   0.380093 0.501795 0.380129 0.974074
C90   C     C_R   0.880130 0.001403 0.380089 0.933482
O21   O     O_R   0.499900 0.561630 0.448170 -0.611634
O22   O     O_R   0.499900 0.438370 0.448170 -0.611841
O23   O     O_R   0.999900 0.061630 0.448170 -0.611692
O24   O     O_R   0.999900 0.938370 0.448170 -0.603208
O25   O     O_R   0.500000 0.561620 0.551710 -0.599276
O26   O     O_R   0.500000 0.438380 0.551710 -0.603322
O27   O     O_R   0.000000 0.061620 0.551710 -0.597980
O28   O     O_R   0.000000 0.938380 0.551710 -0.614156
C91   C     C_R   0.500007 0.581264 0.500224 0.918569
C92   C     C_R   0.500140 0.418731 0.499919 0.924245
C93   C     C_R   0.000096 0.081266 0.500313 0.934585
C94   C     C_R   0.999754 0.918734 0.499537 0.892665
Zn5   Zn    Zn3+2 0.499870 0.500000 0.430790 1.057063
Zn6   Zn    Zn3+2 0.999870 0.000000 0.430790 1.062421
Zn7   Zn    Zn3+2 0.500010 0.500000 0.569060 1.050065
Zn8   Zn    Zn3+2 0.000010 1.000000 0.569060 1.045417
O29   O     O_R   0.591480 0.500000 0.539730 -0.610863
O30   O     O_R   0.091480 0.000000 0.539730 -0.619122
O31   O     O_R   0.591580 0.500000 0.643270 -0.621832
O32   O     O_R   0.091580 0.000000 0.643270 -0.617074
C95   C     C_R   0.619941 0.499921 0.619854 0.887081
C96   C     C_R   0.119749 0.999764 0.619833 0.894011
O33   O     O_R   0.591630 0.965220 0.091680 -0.586517
O34   O     O_R   0.591630 0.034780 0.091680 -0.586026
O35   O     O_R   0.091630 0.465220 0.091680 -0.585294
O36   O     O_R   0.091630 0.534780 0.091680 -0.582445
C97   C     C_R   0.620126 0.000040 0.122654 0.986122
C98   C     C_R   0.120080 0.500039 0.121258 0.984075
O37   O     O_R   0.500040 0.965230 0.091630 -0.637819
O38   O     O_R   0.500040 0.034770 0.091630 -0.577115
O39   O     O_R   0.000040 0.465230 0.091630 -0.609622
O40   O     O_R   0.000040 0.534770 0.091630 -0.611142
C99   C     C_R   0.500003 0.000201 0.120462 0.887899
C100  C     C_R   0.999214 0.500219 0.119463 0.929625
Zn9   Zn    Zn3+2 0.500030 0.953570 0.000010 1.120289
Zn10  Zn    Zn3+2 0.500030 0.046430 0.000010 1.134433
Zn11  Zn    Zn3+2 0.000030 0.453570 0.000010 1.161238
Zn12  Zn    Zn3+2 0.000030 0.546430 0.000010 1.075068
O41   O     O_R   0.408450 0.965250 0.908360 -0.616178
O42   O     O_R   0.408450 0.034750 0.908360 -0.575169
O43   O     O_R   0.908450 0.465250 0.908360 -0.579665
O44   O     O_R   0.908450 0.534750 0.908360 -0.641153
O45   O     O_R   0.500040 0.965230 0.908410 -0.572907
O46   O     O_R   0.500040 0.034770 0.908410 -0.621907
O47   O     O_R   0.000040 0.465230 0.908410 -0.586017
O48   O     O_R   0.000040 0.534770 0.908410 -0.616067
C101  C     C_R   0.379422 0.000133 0.881335 0.904882
C102  C     C_R   0.879711 0.499975 0.882365 0.937364
C103  C     C_R   0.497198 0.999717 0.876720 0.992442
C104  C     C_R   0.001081 0.499629 0.880419 0.978572
C105  C     C_R   0.280914 0.480216 0.240453 -0.022719
C106  C     C_R   0.780954 0.976420 0.245774 -0.052386
C107  C     C_R   0.314451 0.504784 0.314969 -0.121945
C108  C     C_R   0.814650 0.004650 0.314693 -0.121156
C109  C     C_R   0.282198 0.529655 0.327057 -0.170972
C110  C     C_R   0.782820 0.033294 0.322188 -0.158349
C111  C     C_R   0.717501 0.031320 0.259652 0.235917
C112  C     C_R   0.216909 0.527354 0.263736 0.240301
C113  C     C_R   0.685740 0.000522 0.192243 -0.174820
C114  C     C_R   0.185493 0.500515 0.190219 -0.166126
C115  C     C_R   0.719574 0.972965 0.190035 0.003108
C116  C     C_R   0.219328 0.477302 0.182006 -0.027600
C117  C     C_3   0.715443 0.935894 0.142439 0.396966
C118  C     C_3   0.214902 0.447451 0.123469 0.390802
C119  C     C_3   0.287046 0.450161 0.192866 -0.334233
C120  C     C_3   0.787322 0.939826 0.208224 -0.334870
C121  C     C_R   0.718505 0.525535 0.680798 0.120993
C122  C     C_R   0.217315 0.963231 0.709794 0.095561
C123  C     C_R   0.685594 0.498017 0.684832 -0.137561
C124  C     C_R   0.185071 0.000301 0.686659 -0.122328
C125  C     C_R   0.716419 0.468364 0.751607 -0.239839
C126  C     C_R   0.215397 0.036170 0.738743 -0.254262
H35   H     H_    0.690290 0.446292 0.752971 0.204425
H36   H     H_    0.189098 0.063884 0.725181 0.197876
C127  C     C_R   0.279717 0.036778 0.806828 0.300596
C128  C     C_R   0.780818 0.468834 0.819456 0.296795
C129  C     C_R   0.313061 0.000349 0.821444 -0.237170
C130  C     C_R   0.813565 0.499536 0.818245 -0.213523
C131  C     C_R   0.280609 0.963389 0.775750 0.088602
C132  C     C_R   0.781841 0.526675 0.747500 0.053116
C133  C     C_3   0.285674 0.934129 0.726700 -0.346313
C134  C     C_3   0.782974 0.573691 0.747358 -0.390441
C135  C     C_3   0.713268 0.572253 0.672859 -0.428991
C136  C     C_3   0.215729 0.933684 0.654441 -0.469665
H37   H     H_    0.305966 0.903324 0.759760 0.237568
H38   H     H_    0.306553 0.949478 0.706732 0.242296
H39   H     H_    0.805359 0.586182 0.727623 0.236543
H40   H     H_    0.799723 0.587804 0.808224 0.221695
H41   H     H_    0.695542 0.583008 0.609721 0.234697
H42   H     H_    0.689471 0.585979 0.689996 0.217813
H43   H     H_    0.195443 0.902771 0.646458 0.247167
H44   H     H_    0.196437 0.948225 0.592757 0.225262
N1    N     N_R   0.452760 0.925732 0.760884 0.228591
O49   O     O_R   0.406928 0.929555 0.753352 -0.407323
O50   O     O_R   0.467189 0.888489 0.754749 -0.334240
N2    N     N_R   0.016297 0.419944 0.823775 0.226797
O51   O     O_R   0.064354 0.411585 0.905587 -0.273267
O52   O     O_R   0.980709 0.389189 0.770377 -0.347834
C137  C     C_2   0.571774 0.098633 0.891864 0.985871
O53   O     O_2   0.578709 0.136761 0.901043 -0.520776
O54   O     O_R   0.614189 0.072429 0.963850 -0.733459
H45   H     H_    0.648311 0.088696 0.019566 0.363740
C138  C     C_2   0.455686 0.096693 0.765773 1.005831
O55   O     O_2   0.446696 0.134623 0.758474 -0.526231
O56   O     O_R   0.408972 0.069208 0.737659 -0.783087
H46   H     H_    0.370662 0.084481 0.714177 0.363832
C139  C     C_2   0.011317 0.611052 0.829535 0.983483
O57   O     O_2   0.992789 0.647247 0.815324 -0.532191
O58   O     O_R   0.068900 0.600341 0.911718 -0.733334
H47   H     H_    0.090514 0.625138 0.953595 0.358062
C140  C     C_2   0.907234 0.575047 0.720355 0.969927
O59   O     O_2   0.875539 0.606710 0.692937 -0.549844
O60   O     O_R   0.882649 0.536177 0.712855 -0.802154
H48   H     H_    0.837952 0.538092 0.681426 0.348069
N3    N     N_R   0.578786 0.098202 0.768053 0.213880
O61   O     O_R   0.620135 0.075110 0.781834 -0.338061
O62   O     O_R   0.586337 0.138767 0.777455 -0.280241
N4    N     N_R   0.466337 0.093472 0.646848 0.191520
O63   O     O_R   0.468326 0.126650 0.614167 -0.339053
O64   O     O_R   0.414127 0.073561 0.600195 -0.365160
N5    N     N_R   0.012752 0.611759 0.700375 0.205249
O65   O     O_R   0.994908 0.650777 0.684776 -0.304945
O66   O     O_R   0.062740 0.602280 0.720035 -0.370865
N6    N     N_R   0.913116 0.575622 0.595717 0.206446
O67   O     O_R   0.876327 0.544016 0.568922 -0.354760
O68   O     O_R   0.897531 0.603016 0.538624 -0.312159
C141  C     C_2   0.315500 0.558160 0.403745 1.011362
O69   O     O_2   0.356631 0.580966 0.425846 -0.635320
O70   O     O_R   0.299505 0.559082 0.450291 -0.733279
H49   H     H_    0.325315 0.579809 0.500855 0.354905
C142  C     C_2   0.816784 0.064922 0.393986 1.006351
O71   O     O_2   0.858928 0.085064 0.413286 -0.644149
O72   O     O_R   0.800377 0.071766 0.439282 -0.727869
H50   H     H_    0.826765 0.094099 0.486450 0.355330
N7    N     N_R   0.683848 0.060107 0.264735 0.238697
O73   O     O_R   0.645367 0.046023 0.267282 -0.373149
O74   O     O_R   0.690527 0.100457 0.264784 -0.334308
N8    N     N_R   0.182803 0.552329 0.273345 0.236825
O75   O     O_R   0.143882 0.534573 0.271747 -0.400020
O76   O     O_R   0.189232 0.592982 0.281130 -0.334537
N9    N     N_R   0.680510 0.944776 0.050768 0.197353
O77   O     O_R   0.651731 0.980300 0.014925 -0.377972
O78   O     O_R   0.677163 0.916563 0.003713 -0.277437
N10   N     N_R   0.694419 0.897058 0.151137 0.226702
O79   O     O_R   0.697367 0.861522 0.124098 -0.293591
O80   O     O_R   0.675244 0.897171 0.188926 -0.337168
N11   N     N_R   0.182845 0.465487 0.037872 0.208177
O81   O     O_R   0.153528 0.501065 0.013000 -0.389719
O82   O     O_R   0.183961 0.445960 0.985963 -0.272218
N12   N     N_R   0.190669 0.405797 0.115417 0.224641
O83   O     O_R   0.188521 0.376154 0.071578 -0.242241
O84   O     O_R   0.175050 0.397054 0.156303 -0.353365
C143  C     C_2   0.312671 0.470527 0.160660 0.988174
O85   O     O_2   0.325205 0.508029 0.172606 -0.575189
O86   O     O_R   0.320656 0.446230 0.115163 -0.705836
H51   H     H_    0.337454 0.463139 0.096220 0.358069
C144  C     C_2   0.320876 0.410183 0.243948 0.961043
O87   O     O_2   0.325767 0.381689 0.210922 -0.521970
O88   O     O_R   0.345424 0.405364 0.327816 -0.807900
H52   H     H_    0.365294 0.376861 0.353641 0.340832
C145  C     C_2   0.809385 0.952421 0.166384 1.011825
O89   O     O_2   0.824669 0.988672 0.171030 -0.575187
O90   O     O_R   0.811348 0.922209 0.121145 -0.700196
H53   H     H_    0.826379 0.934138 0.095600 0.358846
C146  C     C_2   0.824846 0.904578 0.274349 0.944728
O91   O     O_2   0.858947 0.882946 0.276390 -0.583055
O92   O     O_R   0.820572 0.896849 0.333479 -0.757773
H54   H     H_    0.847953 0.872801 0.374428 0.345931
N13   N     N_R   0.309540 0.074524 0.857936 0.231465
O93   O     O_R   0.350517 0.072775 0.942707 -0.409461
O94   O     O_R   0.288067 0.111021 0.820387 -0.312659
N14   N     N_R   0.811332 0.440558 0.891539 0.224477
O95   O     O_R   0.855909 0.453985 0.971475 -0.405270
O96   O     O_R   0.788547 0.403323 0.878288 -0.317380
N15   N     N_R   0.620555 0.722381 0.601765 0.216707
O97   O     O_R   0.664445 0.749768 0.638341 -0.342514
O98   O     O_R   0.633433 0.682490 0.612687 -0.392128
N16   N     N_R   0.619897 0.277564 0.644227 0.222963
O99   O     O_R   0.663345 0.250161 0.696872 -0.315716
O100  O     O_R   0.632820 0.317450 0.659757 -0.349889
N17   N     N_R   0.120627 0.222734 0.640778 0.221150
O101  O     O_R   0.164537 0.250248 0.691594 -0.325205
O102  O     O_R   0.133571 0.182881 0.655887 -0.352845
N18   N     N_R   0.120664 0.777662 0.609266 0.217835
O103  O     O_R   0.165007 0.750285 0.649673 -0.342560
O104  O     O_R   0.133562 0.817551 0.620494 -0.396051

loop_
_geom_bond_atom_site_label_1
_geom_bond_atom_site_label_2
_geom_bond_distance
_ccdc_geom_bond_type
C139  O58   1.399653 S    
C27   C31   1.537140 S    
C107  C109  1.423826 A    
C97   C113  1.424557 S    
C85   C137  1.519142 S    
C143  O85   1.223844 D    
C11   C39   1.539106 S    
O33   Zn9   2.019183 S    
O26   C92   1.282018 A    
C32   C44   1.537894 S    
C9    C13   1.553897 S    
N2    O51   1.300353 A    
C34   C42   1.554154 S    
N3    O62   1.301366 A    
C121  C132  1.374906 A    
C133  H38   1.110386 S    
C24   C56   1.194263 T    
C44   H12   1.110234 S    
O9    C3    1.282836 A    
O10   C4    1.282798 A    
O8    Zn2   1.995959 S    
N6    O67   1.302529 A    
C42   C46   1.534862 S    
C134  H40   1.112356 S    
N16   O99   1.300208 A    
C57   C71   1.490718 S    
O22   C92   1.282624 A    
C82   C104  1.442022 S    
O34   C97   1.268298 A    
O5    C3    1.283303 A    
C47   N17   1.457375 S    
O6    C4    1.283124 A    
C111  N7    1.437022 S    
C78   C80   1.395950 A    
O40   C100  1.266919 A    
C35   C39   1.539037 S    
C45   N15   1.457470 S    
O29   C95   1.276451 A    
N15   O97   1.300193 A    
Zn8   O32   2.020372 S    
C34   C38   1.539304 S    
C30   C42   1.538003 S    
Zn12  O44   2.018929 S    
Zn1   O13   2.018194 S    
C117  N10   1.470199 S    
C38   C54   1.447449 S    
O86   H51   1.013821 S    
C89   C107  1.425946 S    
C67   C69   1.493945 S    
C84   C86   1.513370 S    
C77   C79   1.397266 A    
C13   C45   1.534802 S    
C59   C61   1.401427 A    
C35   C43   1.554243 S    
O5    Zn1   1.996664 S    
N5    O66   1.302024 A    
N12   O83   1.301034 A    
C23   C55   1.194257 T    
C61   H21   1.083657 S    
C81   C83   1.395855 A    
O22   Zn5   1.999820 S    
C140  O60   1.399049 S    
C81   C103  1.436977 S    
C106  C115  1.340535 A    
C98   C114  1.419717 S    
N10   O80   1.301856 A    
N8    O76   1.301127 A    
O43   C102  1.270026 A    
O8    C6    1.282817 A    
C142  O72   1.398195 S    
C33   C37   1.538990 S    
C118  C119  1.567098 S    
C106  C108  1.381264 A    
C35   H15   1.110131 S    
C73   C75   1.383397 A    
C115  C117  1.505590 S    
O17   Zn5   2.020373 S    
Zn5   O29   2.020026 S    
C2    C60   1.428894 S    
C69   C71   1.516820 S    
C24   C94   1.415709 S    
C39   C55   1.447225 S    
C71   H29   1.112162 S    
C72   H31   1.111577 S    
C10   C14   1.554117 S    
C68   C70   1.492382 S    
C90   C108  1.422996 S    
N11   O82   1.301149 A    
C22   C92   1.416030 S    
C63   H23   1.083388 S    
O35   Zn11  2.019183 S    
O54   H45   1.013778 S    
C11   H7    1.110120 S    
O25   Zn7   1.999458 S    
C12   C16   1.553999 S    
C122  C124  1.384571 A    
C133  C136  1.516692 S    
C65   C67   1.394776 A    
O60   H48   1.012551 S    
C14   C30   1.538001 S    
C146  O92   1.399556 S    
C38   C46   1.523487 S    
N4    O64   1.302526 A    
N1    O49   1.299979 A    
C125  C128  1.397643 A    
C25   C33   1.551313 S    
C73   C87   1.506154 S    
C144  O88   1.398916 S    
C27   C35   1.551327 S    
C106  C120  1.503980 S    
C28   C36   1.551421 S    
O14   C8    1.276117 A    
C70   H27   1.111625 S    
O70   H49   1.013827 S    
N17   O102  1.300331 A    
C21   C91   1.415575 S    
C145  O90   1.398121 S    
O6    Zn1   1.995959 S    
C58   C68   1.373053 A    
C101  C129  1.445235 S    
O27   C93   1.282451 A    
O28   C94   1.281885 A    
N18   O103  1.300195 A    
C119  C144  1.517938 S    
O19   Zn7   2.020026 S    
C110  C142  1.486356 S    
O20   Zn8   2.020026 S    
O9    Zn3   1.995293 S    
N15   O98   1.300376 A    
O23   C93   1.282112 A    
C75   C77   1.394808 A    
O4    Zn4   2.018365 S    
C124  C126  1.394911 A    
N9    O77   1.301595 A    
C86   C139  1.519216 S    
C80   N2    1.434840 S    
O40   Zn12  2.020529 S    
C69   H25   1.112199 S    
C131  C133  1.494811 S    
O30   C96   1.277767 A    
C116  C118  1.505120 S    
C9    C37   1.539068 S    
C39   C47   1.523390 S    
C41   H9    1.110158 S    
C79   C81   1.424419 A    
C65   C99   1.431853 S    
Zn3   O15   2.018816 S    
C32   C52   1.446516 S    
C74   C76   1.381334 A    
C9    H5    1.110121 S    
C105  C119  1.505865 S    
Zn12  O48   2.014672 S    
C5    C19   1.416212 S    
C6    C20   1.416093 S    
C70   C72   1.518753 S    
C127  C129  1.423133 A    
Zn11  O43   2.019629 S    
C40   C48   1.523490 S    
O11   C5    1.282838 A    
C87   N4    1.475797 S    
C128  N14   1.438477 S    
C85   C87   1.561339 S    
O48   C104  1.278608 A    
C64   H24   1.083652 S    
O37   C99   1.271958 A    
O32   C96   1.273852 A    
C129  C131  1.397356 A    
N2    O52   1.301144 A    
C133  H37   1.111553 S    
C66   C68   1.390020 A    
C8    C76   1.406033 S    
C117  C120  1.568553 S    
C110  C111  1.418361 A    
N6    O68   1.301408 A    
C87   N3    1.471850 S    
N7    O73   1.301196 A    
C113  C115  1.381086 A    
C17   C49   1.194552 T    
C126  C127  1.396352 A    
C140  O59   1.222987 D    
C95   C123  1.424326 S    
C48   N18   1.457424 S    
C141  O69   1.222978 D    
C132  C134  1.496820 S    
C138  O55   1.223099 D    
C83   C85   1.511497 S    
C108  C110  1.421934 A    
C135  H42   1.112477 S    
O1    C1    1.280996 A    
C86   C88   1.561806 S    
C118  N12   1.470446 S    
C26   C30   1.537165 S    
C57   C67   1.373969 A    
C112  C114  1.417131 A    
O47   C104  1.266804 A    
C15   C31   1.538051 S    
C21   C53   1.194189 T    
N13   O94   1.301400 A    
C63   C65   1.403112 A    
Zn6   O30   2.020026 S    
C7    C75   1.410018 S    
C1    C59   1.421319 S    
O42   C101  1.269128 A    
C136  H43   1.111632 S    
C142  O71   1.222676 D    
Zn10  O46   2.014672 S    
C41   C45   1.534967 S    
C44   C48   1.534871 S    
O39   C100  1.270394 A    
O18   Zn6   2.020373 S    
C137  O54   1.399459 S    
O92   H54   1.013907 S    
N5    O65   1.301379 A    
N12   O84   1.301840 A    
O19   C89   1.276934 A    
O20   C90   1.277429 A    
C143  O86   1.398131 S    
C109  C112  1.417530 A    
O1    Zn1   2.019065 S    
C127  N13   1.435845 S    
O2    Zn2   2.019065 S    
O88   H52   1.013552 S    
C40   C56   1.447316 S    
C29   C49   1.446631 S    
O31   C95   1.279127 A    
C31   C51   1.446512 S    
N11   O81   1.301764 A    
C18   C50   1.194333 T    
C25   C29   1.537142 S    
C26   C34   1.551235 S    
C73   C83   1.361020 A    
O37   Zn9   2.014671 S    
C74   C88   1.503309 S    
C13   H1    1.110157 S    
C28   C32   1.537288 S    
C128  C130  1.417879 A    
N14   O96   1.301371 A    
C78   H34   1.084616 S    
Zn9   O41   2.019629 S    
C10   C26   1.551279 S    
O7    Zn2   1.996664 S    
C37   C53   1.447121 S    
O23   Zn6   1.993890 S    
C134  H39   1.109734 S    
O46   C103  1.275399 A    
C14   C46   1.534768 S    
C43   H11   1.110166 S    
O4    C2    1.278053 A    
C58   C60   1.393431 A    
C11   C15   1.553891 S    
O15   C7    1.272636 A    
C36   H16   1.110114 S    
C4    C18   1.415930 S    
C36   C40   1.539367 S    
C22   C54   1.194400 T    
C28   H20   1.110094 S    
C72   H32   1.112389 S    
O3    C1    1.274795 A    
C76   C78   1.393386 A    
O39   Zn11  2.014671 S    
C105  C116  1.339720 A    
C117  N9    1.471401 S    
C88   N5    1.472100 S    
O12   Zn4   1.995999 S    
C146  O91   1.223352 D    
O56   H46   1.013739 S    
O11   Zn4   1.995293 S    
O25   C91   1.282410 A    
C134  C135  1.514748 S    
O36   C98   1.266753 A    
O38   C99   1.269544 A    
C30   C50   1.446279 S    
C66   C100  1.423458 S    
C144  O87   1.222992 D    
Zn4   O16   2.018816 S    
C105  C107  1.382897 A    
C10   H6    1.110153 S    
C11   C27   1.551133 S    
O21   C91   1.282074 A    
C12   C28   1.551440 S    
O24   Zn6   1.999820 S    
C46   N16   1.457284 S    
O90   H53   1.013796 S    
O24   C94   1.282667 A    
C86   C140  1.521103 S    
N7    O74   1.301146 A    
N17   O101  1.300199 A    
O12   C6    1.283235 A    
C15   H3    1.110168 S    
C19   C51   1.194471 T    
O18   C90   1.275762 A    
C126  H36   1.084509 S    
C145  O89   1.223652 D    
O17   C89   1.278038 A    
C15   C47   1.534758 S    
C121  C135  1.492702 S    
N10   O79   1.301071 A    
C141  O70   1.398179 S    
N18   O104  1.300323 A    
O58   H47   1.013733 S    
C121  C123  1.388152 A    
N8    O75   1.300782 A    
C138  O56   1.399029 S    
C37   C45   1.523363 S    
C96   C124  1.416125 S    
C16   C48   1.534540 S    
C79   N1    1.435329 S    
Zn2   O14   2.018194 S    
O13   C7    1.277531 A    
O44   C102  1.271185 A    
C12   C40   1.538844 S    
C71   H30   1.111597 S    
O2    C2    1.281467 A    
C57   C59   1.388151 A    
C33   H13   1.110114 S    
C61   C63   1.392060 A    
C102  C130  1.434352 S    
C122  C131  1.372885 A    
C25   H17   1.110097 S    
O26   Zn7   1.993539 S    
C16   H4    1.110167 S    
C120  C146  1.521271 S    
C27   H19   1.110095 S    
C80   C82   1.427372 A    
C109  C141  1.486247 S    
O72   H50   1.013848 S    
O33   C97   1.268762 A    
O10   Zn3   1.995999 S    
Zn10  O42   2.018929 S    
N1    O50   1.301238 A    
Zn7   O31   2.020372 S    
C125  H35   1.084076 S    
O34   Zn10  2.019881 S    
C58   C72   1.494044 S    
C60   C62   1.402270 A    
C12   H8    1.110166 S    
C70   H28   1.112149 S    
C62   H22   1.083401 S    
C10   C38   1.538997 S    
O7    C5    1.283219 A    
C130  C132  1.394021 A    
O3    Zn3   2.018365 S    
C3    C17   1.416359 S    
C139  O57   1.223059 D    
C42   H10   1.110327 S    
C82   C84   1.398633 A    
C64   C66   1.402090 A    
O35   C98   1.267562 A    
C33   C41   1.554229 S    
C74   C84   1.361788 A    
C13   C29   1.538112 S    
O41   C101  1.276940 A    
C14   H2    1.110158 S    
C112  N8    1.436891 S    
C85   C138  1.521717 S    
O45   C103  1.268561 A    
Zn11  O47   2.020530 S    
C16   C32   1.538153 S    
Zn9   O45   2.020530 S    
C120  C145  1.521009 S    
N16   O100  1.300311 A    
C137  O53   1.223009 D    
O27   Zn8   1.999458 S    
C123  C125  1.397810 A    
O16   C8    1.272050 A    
C135  H41   1.111623 S    
N14   O95   1.301396 A    
C20   C52   1.194411 T    
N3    O61   1.301920 A    
C119  C143  1.519906 S    
C118  N11   1.471269 S    
O36   Zn12  2.019881 S    
C43   C47   1.534925 S    
C9    C25   1.551142 S    
C34   H14   1.110122 S    
C23   C93   1.415764 S    
N9    O78   1.300991 A    
C62   C64   1.392393 A    
C36   C44   1.554268 S    
N13   O93   1.299637 A    
C88   N6    1.476139 S    
C26   H18   1.110098 S    
N4    O63   1.301015 A    
C69   H26   1.111422 S    
O21   Zn5   1.993890 S    
O28   Zn8   1.993539 S    
C114  C116  1.379911 A    
C136  H44   1.112278 S    
C122  C136  1.490734 S    
C29   C41   1.538222 S    
C111  C113  1.419455 A    
O38   Zn10  2.020529 S    
C31   C43   1.538161 S    
C77   H33   1.084440 S    
