data_mof_unit_27853.cif
_audit_creation_date              2012-12-10T16:50:07-0500
_audit_creation_method            fapswitch 2.2
_symmetry_space_group_name_H-M    P1
_symmetry_Int_Tables_number       1
_space_group_crystal_system       triclinic
_cell_length_a                    23.473012
_cell_length_b                    8.678993
_cell_length_c                    7.460885
_cell_angle_alpha                 103.186577
_cell_angle_beta                  94.452909
_cell_angle_gamma                 92.713334
_cell_volume                      1472.08611762

loop_
_atom_site_label
_atom_site_type_symbol
_atom_type_description
_atom_site_fract_x
_atom_site_fract_y
_atom_site_fract_z
_atom_type_partial_charge
C1    C     C_R   0.498255 0.199629 0.453041 0.858043
C2    C     C_R   0.501745 0.800371 0.546959 0.858036
C3    C     C_R   0.233668 0.480534 0.344229 -0.159048
C4    C     C_R   0.766336 0.519663 0.655801 -0.158998
C5    C     C_R   0.292891 0.481126 0.340969 -0.166608
C6    C     C_R   0.707113 0.519054 0.659056 -0.166622
C7    C     C_R   0.328382 0.499108 0.506114 -0.136441
C8    C     C_R   0.671618 0.500907 0.493888 -0.136432
C9    C     C_R   0.303488 0.516399 0.674481 -0.256750
C10   C     C_R   0.696509 0.483472 0.325502 -0.256745
C11   C     C_R   0.244129 0.516111 0.677428 0.674296
C12   C     C_R   0.755869 0.483772 0.322559 0.674288
C13   C     C_R   0.209196 0.498169 0.512095 0.227169
C14   C     C_R   0.790805 0.501878 0.487914 0.227148
C15   C     C_2   0.497447 0.031517 0.426818 -0.324106
C16   C     C_2   0.502553 0.968482 0.573181 -0.324102
C17   C     C_R   0.390962 0.499554 0.501984 0.817672
C18   C     C_R   0.609038 0.500449 0.498016 0.817671
C19   C     C_R   0.883682 0.642933 0.527253 0.579714
C20   C     C_R   0.116320 0.357115 0.472761 0.579817
C21   C     C_R   0.876473 0.359328 0.449443 0.605593
C22   C     C_R   0.123529 0.640720 0.550566 0.605491
C23   C     C_R   0.936201 0.355738 0.453899 -0.028174
C24   C     C_R   0.063801 0.644311 0.546111 -0.028153
C25   C     C_R   0.969907 0.500306 0.496754 -0.011907
C26   C     C_R   0.030094 0.499743 0.503258 -0.011905
C27   C     C_R   0.943567 0.645433 0.533354 -0.022189
C28   C     C_R   0.056434 0.354616 0.466660 -0.022209
C29   C     C_R   0.962898 0.211744 0.417773 -0.151437
C30   C     C_R   0.037104 0.788305 0.582238 -0.151444
C31   C     C_R   0.022426 0.211185 0.424108 -0.163893
C32   C     C_R   0.977576 0.788864 0.575905 -0.163897
Cu1   Cu    Cu3+1 0.506340 0.517380 0.684380 1.121828
Cu2   Cu    Cu3+1 0.493660 0.482620 0.315620 1.121828
H1    H     H_    0.937914 0.099128 0.384484 0.196327
H2    H     H_    0.062087 0.900920 0.615526 0.196334
H3    H     H_    0.041654 0.098155 0.395230 0.187339
H4    H     H_    0.958347 0.901894 0.604784 0.187344
H5    H     H_    0.206677 0.466833 0.216370 0.212625
H6    H     H_    0.793330 0.533490 0.783678 0.212563
H7    H     H_    0.310784 0.467529 0.209174 0.207331
H8    H     H_    0.689222 0.532770 0.790867 0.207330
H9    H     H_    0.329823 0.530254 0.803667 0.202571
H10   H     H_    0.670171 0.469486 0.196298 0.202549
H11   H     H_    0.492662 0.959339 0.286039 0.203445
H12   H     H_    0.507338 0.040661 0.713960 0.203445
N1    N     N_R   0.851674 0.501386 0.486313 -0.451989
N2    N     N_R   0.148327 0.498663 0.513698 -0.451987
N3    N     N_2   0.484110 0.456420 0.038520 0.228022
N4    N     N_2   0.515890 0.543580 0.961480 0.228025
O1    O     O_R   0.504120 0.286130 0.619770 -0.548455
O2    O     O_R   0.495880 0.713870 0.380230 -0.548459
O3    O     O_R   0.493410 0.256770 0.308360 -0.573934
O4    O     O_R   0.506590 0.743230 0.691640 -0.573936
O5    O     O_R   0.423230 0.514630 0.655730 -0.550179
O6    O     O_R   0.576770 0.485370 0.344270 -0.550175
O7    O     O_R   0.412530 0.485280 0.344320 -0.576517
O8    O     O_R   0.587470 0.514720 0.655680 -0.576516
O9    O     O_2   0.857561 0.780490 0.562176 -0.497888
O10   O     O_2   0.142441 0.219559 0.437837 -0.497868
O11   O     O_2   0.843389 0.222305 0.409958 -0.487016
O12   O     O_2   0.156613 0.777743 0.590051 -0.487045
F1    F     F_    0.220542 0.532949 0.840600 -0.658581
F2    F     F_    0.779452 0.466790 0.159366 -0.658524
F3    F     F_    0.443955 0.359319 0.926008 -0.556864
F4    F     F_    0.556045 0.640681 0.073992 -0.556857

loop_
_geom_bond_atom_site_label_1
_geom_bond_atom_site_label_2
_ccdc_geom_bond_type
C22   O12   S    
Cu1   O5    S    
C13   N2    S    
C22   N2    A    
C30   H2    S    
C5    H7    S    
Cu2   O6    S    
Cu1   O8    S    
C1    C15   S    
C32   H4    S    
Cu1   O1    S    
C19   C27   A    
C6    H8    S    
C29   H1    S    
C21   O11   S    
C3    C13   A    
C18   O6    A    
C4    H6    S    
C7    C9    A    
C21   C23   A    
Cu1   Cu2   S    
C25   C26   A    
C3    H5    S    
C29   C31   A    
Cu1   N4    S    
C21   N1    A    
C30   C32   A    
N4    F4    S    
C20   N2    A    
C2    O2    A    
Cu2   O7    S    
C10   C12   A    
C8    C10   A    
C26   C28   A    
C24   C26   A    
C11   F1    S    
C9    C11   A    
C4    C14   A    
C12   F2    S    
C22   C24   A    
C20   O10   S    
C9    H9    S    
C24   C30   A    
C25   C27   A    
C15   H11   S    
C10   H10   S    
C15   C16   D    
C23   C29   A    
C12   C14   A    
C11   C13   A    
C23   C25   A    
C2    C16   S    
C1    O3    A    
Cu2   O3    S    
C4    C6    A    
N3    N4    D    
C2    O4    A    
C19   N1    A    
C16   H12   S    
Cu1   O4    S    
C5    C7    A    
C17   O5    A    
Cu2   N3    S    
C6    C8    A    
C1    O1    A    
C20   C28   A    
C19   O9    S    
C27   C32   A    
N3    F3    S    
C14   N1    S    
Cu2   O2    S    
C18   O8    A    
C28   C31   A    
C8    C18   S    
C31   H3    S    
C17   O7    A    
C3    C5    A    
C7    C17   S    
