data_mof_unit_62558.cif
_audit_creation_date              2012-12-10T17:53:26-0500
_audit_creation_method            fapswitch 2.2
_symmetry_space_group_name_H-M    P1
_symmetry_Int_Tables_number       1
_space_group_crystal_system       triclinic
_cell_length_a                    44.734313
_cell_length_b                    39.043101
_cell_length_c                    21.712972
_cell_angle_alpha                 90.072499
_cell_angle_beta                  60.74008
_cell_angle_gamma                 90.02897
_cell_volume                      33084.5572563

loop_
_atom_site_label
_atom_site_type_symbol
_atom_type_description
_atom_site_fract_x
_atom_site_fract_y
_atom_site_fract_z
_atom_type_partial_charge
C1    C     C_R   0.066210 0.499993 0.434316 0.793079
C2    C     C_R   0.975851 0.478806 0.243821 0.004300
C3    C     C_R   0.232705 0.002835 0.822291 -0.176349
C4    C     C_R   0.286002 0.500366 0.215529 0.098059
C5    C     C_R   0.713997 0.500385 0.784469 0.098055
C6    C     C_R   0.786002 0.000367 0.215511 0.098051
C7    C     C_R   0.214366 0.000565 0.785014 0.100194
C8    C     C_R   0.158027 0.469366 0.337660 -0.178022
C9    C     C_R   0.841976 0.469387 0.662272 -0.177904
C10   C     C_R   0.658027 0.969368 0.337612 -0.177978
C11   C     C_R   0.342101 0.973706 0.685763 -0.173851
C12   C     C_R   0.122291 0.469265 0.372941 -0.198468
C13   C     C_R   0.522739 0.977614 0.757582 0.001484
C14   C     C_R   0.877712 0.469282 0.626995 -0.198363
C15   C     C_R   0.622291 0.969267 0.372900 -0.198410
C16   C     C_R   0.377872 0.973256 0.649213 -0.203974
C17   C     C_R   0.103966 0.500024 0.397809 -0.028296
C18   C     C_R   0.896033 0.500034 0.602212 -0.028430
C19   C     C_R   0.603966 0.000024 0.397788 -0.028433
C20   C     C_R   0.396192 0.999964 0.602728 -0.027032
C21   C     C_R   0.122058 0.530849 0.387238 -0.185617
C22   C     C_R   0.877937 0.530857 0.612875 -0.185927
C23   C     C_R   0.622059 0.030849 0.387221 -0.185338
C24   C     C_R   0.475884 0.978768 0.243781 0.004013
C25   C     C_R   0.378250 0.026861 0.592520 -0.196656
C26   C     C_R   0.157797 0.530960 0.351540 -0.191672
C27   C     C_R   0.842198 0.530973 0.648572 -0.191696
C28   C     C_R   0.657798 0.030960 0.351516 -0.191585
C29   C     C_R   0.342475 0.026842 0.627742 -0.180784
C30   C     C_R   0.176078 0.500223 0.326414 0.104915
C31   C     C_R   0.823920 0.500241 0.673604 0.105001
C32   C     C_R   0.676079 0.000223 0.326377 0.104937
C33   C     C_R   0.324249 0.000384 0.674860 0.097499
C34   C     C_R   0.000003 0.433769 0.999997 0.779296
C35   C     C_R   0.023377 0.479910 0.692726 -0.239942
C36   C     C_R   0.500000 0.933766 0.000080 0.781782
C37   C     C_R   0.948946 0.573879 0.733653 -0.117302
C38   C     C_R   0.051310 0.573614 0.266464 -0.117132
C39   C     C_R   0.452393 0.078969 0.742924 -0.134882
C40   C     C_R   0.551205 0.073690 0.266556 -0.117339
C41   C     C_R   0.000068 0.499232 0.880941 0.795841
C42   C     C_R   0.999932 0.499214 0.119057 0.795842
C43   C     C_R   0.500067 0.999308 0.880982 0.797102
C44   C     C_R   0.499933 0.999214 0.119055 0.795719
C45   C     C_R   0.999999 0.566199 0.999993 0.786980
C46   C     C_R   0.976607 0.479894 0.307212 -0.240127
C47   C     C_R   0.499999 0.066199 0.999980 0.786175
C48   C     C_R   0.499998 0.433717 0.999968 0.791487
C49   C     C_R   0.000002 0.933718 0.999965 0.790288
C50   C     C_R   0.433794 0.500000 0.066290 0.790398
C51   C     C_R   0.566206 0.500000 0.933710 0.790470
C52   C     C_R   0.933794 0.000000 0.066289 0.790386
C53   C     C_R   0.066163 0.999990 0.933764 0.787206
C54   C     C_R   0.499980 0.566120 0.000058 0.789704
C55   C     C_R   0.000002 0.066121 0.000030 0.788465
C56   C     C_R   0.501247 0.622227 0.054633 -0.186644
C57   C     C_R   0.521741 0.978472 0.694484 -0.237553
C58   C     C_R   0.498541 0.622205 0.945916 -0.186725
C59   C     C_R   0.000896 0.122240 0.054964 -0.185455
C60   C     C_R   0.999128 0.122201 0.945241 -0.188398
C61   C     C_R   0.501236 0.657983 0.054696 -0.171852
C62   C     C_R   0.498494 0.657954 0.946043 -0.171980
C63   C     C_R   0.000916 0.157994 0.054968 -0.171825
C64   C     C_R   0.999130 0.157952 0.945289 -0.172193
C65   C     C_R   0.499875 0.676208 0.000387 0.124857
C66   C     C_R   0.000032 0.176211 0.000137 0.124779
C67   C     C_R   0.499926 0.603961 0.000204 -0.033139
C68   C     C_R   0.476634 0.979858 0.307177 -0.240932
C69   C     C_R   0.000008 0.103964 0.000086 -0.033123
C70   C     C_R   0.480254 0.732396 0.063093 -0.222802
C71   C     C_R   0.519706 0.732187 0.937382 -0.222190
C72   C     C_R   0.979880 0.232327 0.062765 -0.222466
C73   C     C_R   0.020232 0.232249 0.937501 -0.222559
C74   C     C_R   0.947051 0.538169 0.741698 0.112065
C75   C     C_R   0.053111 0.537901 0.258314 0.111926
C76   C     C_R   0.450407 0.043213 0.738951 0.121299
C77   C     C_R   0.553052 0.037978 0.258371 0.112120
C78   C     C_R   0.979970 0.268193 0.063598 0.003763
C79   C     C_R   0.999127 0.499934 0.686476 -0.068551
C80   C     C_R   0.020138 0.268111 0.936623 0.003767
C81   C     C_R   0.480389 0.768269 0.063732 0.003788
C82   C     C_R   0.519614 0.768039 0.936359 0.003359
C83   C     C_R   0.000049 0.286360 0.000096 -0.016145
C84   C     C_R   0.500027 0.786360 0.999928 -0.016101
C85   C     C_R   0.499960 0.714144 0.000316 0.061283
C86   C     C_R   0.000052 0.214145 0.000140 0.061570
C87   C     C_R   0.029509 0.342193 0.987910 -0.167419
C88   C     C_R   0.970554 0.342146 0.012175 -0.167561
C89   C     C_R   0.529504 0.842162 0.987810 -0.171188
C90   C     C_R   0.000922 0.499831 0.313482 -0.068436
C91   C     C_R   0.470594 0.842149 0.011789 -0.167464
C92   C     C_R   0.029447 0.377916 0.988309 -0.215970
C93   C     C_R   0.970593 0.377870 0.011721 -0.216235
C94   C     C_R   0.529410 0.877891 0.988543 -0.214794
C95   C     C_R   0.470616 0.877875 0.011551 -0.218070
C96   C     C_R   0.000013 0.396064 0.000010 -0.038450
C97   C     C_R   0.499997 0.896057 0.000141 -0.038980
C98   C     C_R   0.000037 0.324181 0.000061 0.119652
C99   C     C_R   0.500063 0.824172 0.999692 0.120946
C100  C     C_R   0.499150 0.377723 0.944940 -0.185034
C101  C     C_R   0.498780 0.999989 0.686934 -0.071139
C102  C     C_R   0.500838 0.377745 0.054798 -0.184989
C103  C     C_R   0.999095 0.877718 0.945015 -0.183715
C104  C     C_R   0.000925 0.877752 0.054723 -0.186681
C105  C     C_R   0.499116 0.342000 0.944936 -0.171906
C106  C     C_R   0.500876 0.342024 0.054685 -0.171977
C107  C     C_R   0.999065 0.841995 0.945019 -0.171726
C108  C     C_R   0.000967 0.842031 0.054618 -0.172080
C109  C     C_R   0.500000 0.323831 0.999778 0.107085
C110  C     C_R   0.000021 0.823832 0.999792 0.107150
C111  C     C_R   0.917903 0.520679 0.750007 -0.159912
C112  C     C_R   0.933790 0.499996 0.565691 0.793062
C113  C     C_R   0.500918 0.999832 0.313482 -0.068927
C114  C     C_R   0.082227 0.520322 0.249887 -0.160221
C115  C     C_R   0.422924 0.028582 0.734182 -0.139936
C116  C     C_R   0.582187 0.020439 0.249943 -0.160141
C117  C     C_R   0.499995 0.395948 0.999898 -0.032591
C118  C     C_R   0.000008 0.895949 0.999895 -0.032407
C119  C     C_R   0.478302 0.267787 0.981694 -0.177909
C120  C     C_R   0.521735 0.267832 0.017708 -0.177952
C121  C     C_R   0.978269 0.767786 0.981869 -0.177848
C122  C     C_R   0.021797 0.767835 0.017621 -0.177806
C123  C     C_R   0.978230 0.732066 0.981979 -0.178112
C124  C     C_R   0.974891 0.519116 0.744246 -0.003767
C125  C     C_R   0.021826 0.732116 0.017541 -0.178158
C126  C     C_R   0.478267 0.232066 0.981785 -0.178419
C127  C     C_R   0.521769 0.232113 0.017607 -0.178228
C128  C     C_R   0.000023 0.713910 0.999774 0.098660
C129  C     C_R   0.500016 0.213909 0.999700 0.098666
C130  C     C_R   0.500015 0.285991 0.999715 0.098436
C131  C     C_R   0.000033 0.785992 0.999747 0.098516
C132  C     C_R   0.031014 0.657884 0.971172 -0.172547
C133  C     C_R   0.969005 0.657897 0.028515 -0.172612
C134  C     C_R   0.531007 0.157885 0.971201 -0.172804
C135  C     C_R   0.025212 0.518937 0.255744 -0.003722
C136  C     C_R   0.469004 0.157895 0.028328 -0.172972
C137  C     C_R   0.031017 0.622163 0.971157 -0.186165
C138  C     C_R   0.968989 0.622175 0.028662 -0.186238
C139  C     C_R   0.531013 0.122164 0.971203 -0.186372
C140  C     C_R   0.468989 0.122173 0.028495 -0.187111
C141  C     C_R   1.000000 0.603960 0.999945 -0.032543
C142  C     C_R   0.499999 0.103960 0.999902 -0.032484
C143  C     C_R   0.000013 0.676071 0.999814 0.106596
C144  C     C_R   0.500009 0.176070 0.999730 0.106691
C145  C     C_R   0.890796 0.538810 0.750776 -0.128330
C146  C     C_R   0.476187 0.021139 0.743200 -0.000694
C147  C     C_R   0.109396 0.538370 0.249100 -0.128157
C148  C     C_R   0.397711 0.049540 0.733627 -0.124748
C149  C     C_R   0.609329 0.038523 0.249190 -0.128458
C150  C     C_R   0.892921 0.574350 0.741956 -0.113243
C151  C     C_R   0.107367 0.573915 0.258019 -0.113150
C152  C     C_R   0.400057 0.085125 0.736699 -0.109748
C153  C     C_R   0.607254 0.074065 0.258147 -0.113201
C154  C     C_R   0.975690 0.518313 0.807485 -0.231054
C155  C     C_R   0.024394 0.518160 0.192524 -0.231050
C156  C     C_R   0.477117 0.020263 0.806361 -0.234370
C157  C     C_R   0.525180 0.018976 0.255774 -0.003622
C158  C     C_R   0.524363 0.018199 0.192552 -0.231212
C159  C     C_R   0.959433 0.286066 0.131844 0.115118
C160  C     C_R   0.923688 0.282075 0.169500 -0.165758
C161  C     C_R   0.904297 0.299028 0.233841 -0.145436
C162  C     C_R   0.920470 0.319768 0.261275 -0.112842
C163  C     C_R   0.956070 0.323577 0.224443 -0.147020
C164  C     C_R   0.975529 0.306850 0.159895 -0.135937
C165  C     C_R   0.040673 0.285890 0.868352 0.115177
C166  C     C_R   0.076424 0.281924 0.830751 -0.165771
C167  C     C_R   0.095814 0.298782 0.766377 -0.145644
C168  C     C_R   0.084249 0.459813 0.716049 -0.139752
C169  C     C_R   0.079634 0.319397 0.738853 -0.113016
C170  C     C_R   0.044030 0.323179 0.775632 -0.147095
C171  C     C_R   0.024572 0.306550 0.840217 -0.136202
C172  C     C_R   0.460285 0.786239 0.132013 0.115501
C173  C     C_R   0.424540 0.782384 0.170540 -0.165563
C174  C     C_R   0.405550 0.799445 0.234898 -0.145785
C175  C     C_R   0.422125 0.820161 0.261474 -0.111925
C176  C     C_R   0.457728 0.823843 0.223758 -0.146977
C177  C     C_R   0.476787 0.807000 0.159198 -0.136009
C178  C     C_R   0.539441 0.785691 0.867751 0.116416
C179  C     C_R   0.915631 0.460121 0.283869 -0.139741
C180  C     C_R   0.575223 0.782243 0.829162 -0.165002
C181  C     C_R   0.593891 0.798644 0.764005 -0.147505
C182  C     C_R   0.576943 0.818237 0.736676 -0.111308
C183  C     C_R   0.541299 0.821516 0.774512 -0.146897
C184  C     C_R   0.522569 0.805402 0.839946 -0.140466
C185  C     C_R   0.582083 0.956736 0.719253 -0.136898
C186  C     C_R   0.415700 0.959986 0.283728 -0.139811
C187  C     C_R   0.107643 0.437002 0.718856 -0.147243
C188  C     C_R   0.566210 0.999993 0.434310 0.793579
C189  C     C_R   0.892138 0.437405 0.281096 -0.147147
C190  C     C_R   0.604591 0.933041 0.722913 -0.148967
C191  C     C_R   0.392254 0.937221 0.280913 -0.146580
C192  C     C_R   0.095916 0.409517 0.766017 -0.120588
C193  C     C_R   0.903745 0.409835 0.234009 -0.120910
C194  C     C_R   0.591781 0.905621 0.770092 -0.116445
C195  C     C_R   0.403919 0.909650 0.233831 -0.120564
C196  C     C_R   0.060799 0.404850 0.810485 -0.118735
C197  C     C_R   0.938843 0.404991 0.189574 -0.118566
C198  C     C_R   0.556469 0.901915 0.813714 -0.117355
C199  C     C_R   0.433846 0.999983 0.565728 0.784079
C200  C     C_R   0.439027 0.904854 0.189441 -0.118327
C201  C     C_R   0.037307 0.427709 0.808274 -0.130144
C202  C     C_R   0.962434 0.427757 0.191746 -0.129850
C203  C     C_R   0.533866 0.925710 0.810803 -0.138777
C204  C     C_R   0.462573 0.927671 0.191652 -0.130080
C205  C     C_R   0.999445 0.500006 0.619387 0.805220
C206  C     C_R   0.000569 0.499970 0.380601 0.805306
C207  C     C_R   0.499286 0.000024 0.619582 0.797791
C208  C     C_R   0.500565 0.999970 0.380604 0.804007
C209  C     C_R   0.048910 0.455434 0.761085 0.125315
C210  C     C_R   0.000132 0.498514 0.813837 -0.078888
C211  C     C_R   0.950951 0.455562 0.238869 0.125345
C212  C     C_R   0.546568 0.953323 0.763519 0.123950
C213  C     C_R   0.451032 0.955476 0.238774 0.125847
C214  C     C_R   0.377735 0.504197 0.067530 -0.184899
C215  C     C_R   0.622264 0.504221 0.932486 -0.184919
C216  C     C_R   0.877737 0.004203 0.067524 -0.184858
C217  C     C_R   0.122041 0.985595 0.926758 -0.183995
C218  C     C_R   0.341983 0.504425 0.103687 -0.171872
C219  C     C_R   0.658015 0.504456 0.896328 -0.171887
C220  C     C_R   0.841986 0.004431 0.103676 -0.171901
C221  C     C_R   0.999876 0.498465 0.186154 -0.079051
C222  C     C_R   0.157814 0.985382 0.890557 -0.167616
C223  C     C_R   0.323847 0.500343 0.177286 0.106219
C224  C     C_R   0.676153 0.500359 0.822713 0.106227
C225  C     C_R   0.823847 0.000344 0.177274 0.106219
C226  C     C_R   0.176215 0.000419 0.823280 0.106543
C227  C     C_R   0.342065 0.496167 0.214160 -0.171787
C228  C     C_R   0.657936 0.496163 0.785824 -0.171822
C229  C     C_R   0.842063 0.996164 0.214151 -0.171796
C230  C     C_R   0.157794 0.015276 0.792918 -0.167752
C231  C     C_R   0.377808 0.496159 0.178101 -0.184462
C232  C     C_R   0.500122 0.998775 0.813967 -0.074621
C233  C     C_R   0.622193 0.496149 0.821883 -0.184476
C234  C     C_R   0.877806 0.996155 0.178097 -0.184487
C235  C     C_R   0.122021 0.014740 0.828481 -0.184092
C236  C     C_R   0.395998 0.500109 0.104407 -0.032194
C237  C     C_R   0.604001 0.500113 0.895593 -0.032203
C238  C     C_R   0.895998 0.000110 0.104404 -0.032210
C239  C     C_R   0.103879 0.000091 0.895835 -0.026482
C240  C     C_R   0.267871 0.475893 0.268126 -0.178966
C241  C     C_R   0.732136 0.475899 0.731788 -0.178980
C242  C     C_R   0.767870 0.975890 0.268095 -0.178980
C243  C     C_R   0.499877 0.998465 0.186150 -0.079043
C244  C     C_R   0.232856 0.998368 0.710807 -0.178713
C245  C     C_R   0.232132 0.475807 0.304073 -0.178035
C246  C     C_R   0.767876 0.475813 0.695846 -0.178093
C247  C     C_R   0.732130 0.975802 0.304034 -0.177972
C248  C     C_R   0.268628 0.998778 0.674962 -0.175411
C249  C     C_R   0.213909 0.500335 0.288377 0.100680
C250  C     C_R   0.786090 0.500356 0.711630 0.100652
C251  C     C_R   0.713909 0.000335 0.288344 0.100683
C252  C     C_R   0.286586 0.000575 0.712609 0.094100
C253  C     C_R   0.921999 0.591868 0.733291 -0.140864
C254  C     C_R   0.024108 0.478791 0.756134 0.004315
C255  C     C_R   0.078320 0.591520 0.266808 -0.140946
C256  C     C_R   0.427399 0.099834 0.741270 -0.142485
C257  C     C_R   0.578187 0.091632 0.266937 -0.140574
C258  C     C_R   0.232026 0.524895 0.235979 -0.181572
C259  C     C_R   0.767965 0.524931 0.764109 -0.181582
C260  C     C_R   0.732028 0.024899 0.235958 -0.181607
C261  C     C_R   0.268478 0.002432 0.786410 -0.181039
C262  C     C_R   0.267775 0.524836 0.199683 -0.176906
C263  C     C_R   0.732216 0.524871 0.800401 -0.176969
C264  C     C_R   0.767777 0.024841 0.199669 -0.176929
Cu1   Cu    Cu3+1 0.000000 0.534200 0.500000 0.951932
Cu2   Cu    Cu3+1 0.500010 0.499910 0.938190 0.932235
Cu3   Cu    Cu3+1 0.999990 0.999910 0.061810 0.933280
Cu4   Cu    Cu3+1 0.000010 0.999910 0.938190 0.933315
Cu5   Cu    Cu3+1 0.500000 0.034200 0.500000 0.956595
Cu6   Cu    Cu3+1 0.000000 0.465780 0.500000 0.932645
Cu7   Cu    Cu3+1 0.500000 0.965780 0.500000 0.933785
Cu8   Cu    Cu3+1 0.965790 0.499970 0.034190 0.948689
Cu9   Cu    Cu3+1 0.034210 0.499970 0.965810 0.948780
Cu10  Cu    Cu3+1 0.465790 0.999970 0.034190 0.947976
Cu11  Cu    Cu3+1 0.534210 0.999970 0.965810 0.948181
Cu12  Cu    Cu3+1 0.499990 0.499910 0.061810 0.932232
H1    H     H_    0.872006 0.588302 0.742011 0.117830
H2    H     H_    0.947756 0.383345 0.154040 0.159539
H3    H     H_    0.001300 0.828622 0.097910 0.125782
H4    H     H_    0.461080 0.281189 0.968263 0.127003
H5    H     H_    0.538955 0.281268 0.031154 0.127049
H6    H     H_    0.961013 0.781186 0.968533 0.127024
H7    H     H_    0.039055 0.781272 0.030955 0.126788
H8    H     H_    0.961409 0.718625 0.967434 0.126600
H9    H     H_    0.038640 0.718718 0.032107 0.126540
H10   H     H_    0.461485 0.218627 0.967132 0.126360
H11   H     H_    0.538548 0.218713 0.032267 0.126599
H12   H     H_    0.055290 0.671301 0.947965 0.126608
H13   H     H_    0.546610 0.880340 0.849157 0.162494
H14   H     H_    0.944735 0.671328 0.051676 0.126489
H15   H     H_    0.555282 0.171304 0.948073 0.126514
H16   H     H_    0.444734 0.171325 0.051398 0.126406
H17   H     H_    0.055333 0.608840 0.948522 0.151416
H18   H     H_    0.944669 0.608861 0.051340 0.151343
H19   H     H_    0.555327 0.108842 0.948661 0.151365
H20   H     H_    0.444673 0.108857 0.051093 0.151187
H21   H     H_    0.916039 0.493132 0.756712 0.123329
H22   H     H_    0.084017 0.492772 0.243099 0.123436
H23   H     H_    0.420782 0.001025 0.731969 0.108157
H24   H     H_    0.447984 0.883204 0.153917 0.159879
H25   H     H_    0.584013 0.992890 0.243127 0.123413
H26   H     H_    0.868166 0.525290 0.758083 0.144863
H27   H     H_    0.131998 0.524782 0.241712 0.144903
H28   H     H_    0.376216 0.038224 0.731288 0.145754
H29   H     H_    0.631948 0.024965 0.241796 0.144888
H30   H     H_    0.957068 0.533147 0.852059 0.154384
H31   H     H_    0.043057 0.532943 0.147984 0.154503
H32   H     H_    0.459752 0.036423 0.849940 0.150595
H33   H     H_    0.543003 0.033011 0.148035 0.154464
H34   H     H_    0.041596 0.464813 0.648106 0.145087
H35   H     H_    0.010136 0.423566 0.842566 0.104246
H36   H     H_    0.958341 0.464860 0.351814 0.144980
H37   H     H_    0.538950 0.962206 0.650933 0.147850
H38   H     H_    0.458390 0.964796 0.351753 0.145962
H39   H     H_    0.093628 0.480879 0.678913 0.123802
H40   H     H_    0.906344 0.481250 0.320957 0.123784
H41   H     H_    0.592277 0.977726 0.682049 0.123853
H42   H     H_    0.406370 0.981114 0.320817 0.122231
H43   H     H_    0.134849 0.440520 0.684180 0.125747
H44   H     H_    0.864946 0.441061 0.315746 0.125737
H45   H     H_    0.631944 0.935810 0.688848 0.125350
H46   H     H_    0.989588 0.423476 0.157486 0.104317
H47   H     H_    0.365054 0.940839 0.315529 0.125274
H48   H     H_    0.910866 0.266120 0.148701 0.124227
H49   H     H_    0.876726 0.296089 0.262437 0.124658
H50   H     H_    0.905422 0.332925 0.311007 0.127164
H51   H     H_    0.968566 0.339659 0.245718 0.132991
H52   H     H_    0.003103 0.309948 0.131967 0.124730
H53   H     H_    0.089250 0.266062 0.851616 0.124295
H54   H     H_    0.123388 0.295863 0.737821 0.124583
H55   H     H_    0.094681 0.332479 0.689093 0.127033
H56   H     H_    0.031529 0.339164 0.754287 0.132960
H57   H     H_    0.506531 0.922352 0.844525 0.106927
H58   H     H_    0.996994 0.309627 0.868107 0.124634
H59   H     H_    0.411409 0.766451 0.150407 0.124282
H60   H     H_    0.377977 0.796610 0.264171 0.125089
H61   H     H_    0.407386 0.833404 0.311217 0.128471
H62   H     H_    0.470536 0.839911 0.244364 0.133130
H63   H     H_    0.504369 0.809991 0.130591 0.124641
H64   H     H_    0.588616 0.767072 0.849769 0.124086
H65   H     H_    0.621493 0.796122 0.734640 0.124664
H66   H     H_    0.591427 0.830935 0.686267 0.126902
H67   H     H_    0.528206 0.836728 0.753338 0.132835
H68   H     H_    0.489736 0.923428 0.157429 0.104226
H69   H     H_    0.494951 0.808060 0.868669 0.124427
H70   H     H_    0.391038 0.507306 0.010733 0.150394
H71   H     H_    0.608959 0.507342 0.989295 0.150376
H72   H     H_    0.891042 0.007315 0.010728 0.150411
H73   H     H_    0.128329 0.587802 0.257951 0.117872
H74   H     H_    0.108564 0.973828 0.978437 0.143748
H75   H     H_    0.328486 0.507344 0.074018 0.126398
H76   H     H_    0.671512 0.507390 0.926007 0.126382
H77   H     H_    0.828490 0.007353 0.074005 0.126387
H78   H     H_    0.170965 0.972984 0.915075 0.122574
H79   H     H_    0.328639 0.493324 0.271028 0.126511
H80   H     H_    0.671363 0.493307 0.728945 0.126484
H81   H     H_    0.828635 0.993316 0.271018 0.126517
H82   H     H_    0.170925 0.027785 0.742035 0.122502
H83   H     H_    0.391162 0.492967 0.207986 0.150602
H84   H     H_    0.380580 0.101283 0.735972 0.121356
H85   H     H_    0.608840 0.492942 0.791987 0.150581
H86   H     H_    0.891158 0.992960 0.207984 0.150597
H87   H     H_    0.108523 0.026399 0.803880 0.143922
H88   H     H_    0.281362 0.456585 0.280857 0.127491
H89   H     H_    0.718652 0.456579 0.718989 0.127502
H90   H     H_    0.781360 0.956579 0.280822 0.127503
H91   H     H_    0.219782 0.995823 0.680261 0.124416
H92   H     H_    0.218710 0.456779 0.344662 0.126985
H93   H     H_    0.781303 0.456773 0.655194 0.126992
H94   H     H_    0.718708 0.956771 0.344614 0.127000
H95   H     H_    0.628195 0.087981 0.258107 0.117905
H96   H     H_    0.282344 0.997062 0.617877 0.130707
H97   H     H_    0.218515 0.543880 0.222546 0.123623
H98   H     H_    0.781469 0.543929 0.777608 0.123637
H99   H     H_    0.718519 0.043888 0.222530 0.123621
H100  H     H_    0.282080 0.004108 0.816109 0.129029
H101  H     H_    0.923566 0.619400 0.726719 0.121099
H102  H     H_    0.076826 0.619054 0.273460 0.121050
H103  H     H_    0.429100 0.127394 0.744017 0.123939
H104  H     H_    0.576658 0.119165 0.273618 0.121183
H105  H     H_    0.281196 0.544137 0.159731 0.127200
H106  H     H_    0.114009 0.391702 0.767798 0.125132
H107  H     H_    0.718788 0.544183 0.840420 0.127187
H108  H     H_    0.781200 0.044145 0.159727 0.127191
H109  H     H_    0.219508 0.005352 0.879178 0.124506
H110  H     H_    0.171585 0.445377 0.318152 0.128058
H111  H     H_    0.828420 0.445402 0.681708 0.128019
H112  H     H_    0.671585 0.945379 0.318093 0.128000
H113  H     H_    0.328311 0.953094 0.721976 0.133005
H114  H     H_    0.109051 0.445124 0.380208 0.152008
H115  H     H_    0.890954 0.445141 0.619656 0.152001
H116  H     H_    0.609050 0.945126 0.380162 0.151944
H117  H     H_    0.885576 0.392092 0.232261 0.124943
H118  H     H_    0.391224 0.952411 0.658250 0.145453
H119  H     H_    0.108626 0.554943 0.406082 0.154930
H120  H     H_    0.891366 0.554947 0.594102 0.154970
H121  H     H_    0.608627 0.054942 0.406078 0.155124
H122  H     H_    0.391900 0.047677 0.556797 0.146867
H123  H     H_    0.171165 0.555037 0.344128 0.128416
H124  H     H_    0.828826 0.555048 0.656053 0.128395
H125  H     H_    0.671166 0.055036 0.344112 0.128448
H126  H     H_    0.328977 0.047648 0.619004 0.132216
H127  H     H_    0.502442 0.608926 0.097107 0.151610
H128  H     H_    0.609176 0.887097 0.772490 0.126353
H129  H     H_    0.497363 0.608892 0.903374 0.151672
H130  H     H_    0.001699 0.108948 0.097871 0.152228
H131  H     H_    0.998316 0.108882 0.902309 0.151303
H132  H     H_    0.502761 0.671389 0.096766 0.127486
H133  H     H_    0.496954 0.671334 0.904024 0.127506
H134  H     H_    0.002068 0.171409 0.097443 0.127765
H135  H     H_    0.997985 0.171333 0.902834 0.127417
H136  H     H_    0.464761 0.718684 0.111956 0.137052
H137  H     H_    0.535141 0.718320 0.888626 0.137337
H138  H     H_    0.964075 0.218557 0.111389 0.136995
H139  H     H_    0.385785 0.891867 0.232056 0.124854
H140  H     H_    0.036038 0.218420 0.888890 0.136731
H141  H     H_    0.052413 0.328533 0.978630 0.129874
H142  H     H_    0.947659 0.328449 0.021475 0.129777
H143  H     H_    0.552389 0.828481 0.978579 0.129628
H144  H     H_    0.447715 0.828460 0.020963 0.129278
H145  H     H_    0.971235 0.587678 0.727591 0.121399
H146  H     H_    0.029048 0.587481 0.272614 0.121356
H147  H     H_    0.473298 0.090619 0.747155 0.123036
H148  H     H_    0.528927 0.087527 0.272709 0.121097
H149  H     H_    0.052429 0.391329 0.979304 0.153365
H150  H     H_    0.051790 0.383271 0.846087 0.159541
H151  H     H_    0.947604 0.391246 0.020706 0.153267
H152  H     H_    0.552363 0.891293 0.979743 0.153934
H153  H     H_    0.447647 0.891264 0.020450 0.153388
H154  H     H_    0.498560 0.391028 0.901818 0.150769
H155  H     H_    0.501426 0.391066 0.097967 0.150822
H156  H     H_    0.998446 0.891020 0.901952 0.151266
H157  H     H_    0.001569 0.891077 0.097828 0.150320
H158  H     H_    0.498840 0.328565 0.901548 0.125927
H159  H     H_    0.501153 0.328610 0.098031 0.125940
H160  H     H_    0.998735 0.828556 0.901693 0.126151
O1    O     O_R   0.049900 0.528880 0.450120 -0.582736
O2    O     O_R   0.549920 0.499990 0.002300 -0.588751
O3    O     O_R   0.950080 0.999990 0.997700 -0.588726
O4    O     O_R   0.049920 0.999990 0.002300 -0.586041
O5    O     O_R   0.500010 0.549830 0.052300 -0.588492
O6    O     O_R   0.499990 0.549830 0.947700 -0.588477
O7    O     O_R   0.000010 0.049830 0.052300 -0.587033
O8    O     O_R   0.999990 0.049830 0.947700 -0.590341
O9    O     O_R   0.049890 0.471100 0.450130 -0.594557
O10   O     O_R   0.950110 0.471100 0.549870 -0.594525
O11   O     O_R   0.549890 0.971100 0.450130 -0.594461
O12   O     O_R   0.950100 0.528880 0.549880 -0.582716
O13   O     O_R   0.450110 0.971100 0.549870 -0.590122
O14   O     O_R   0.000000 0.528880 0.590180 -0.579269
O15   O     O_R   0.000000 0.528880 0.409820 -0.579337
O16   O     O_R   0.500000 0.028880 0.590180 -0.574933
O17   O     O_R   0.500000 0.028880 0.409820 -0.580252
O18   O     O_R   0.999980 0.471100 0.590190 -0.588764
O19   O     O_R   0.000020 0.471100 0.409810 -0.588765
O20   O     O_R   0.499980 0.971100 0.590190 -0.590703
O21   O     O_R   0.500020 0.971100 0.409810 -0.587776
O22   O     O_R   0.971100 0.450060 0.028870 -0.583453
O23   O     O_R   0.549900 0.028880 0.450120 -0.582239
O24   O     O_R   0.028900 0.450060 0.971130 -0.583425
O25   O     O_R   0.471100 0.950060 0.028870 -0.583933
O26   O     O_R   0.528900 0.950060 0.971130 -0.582639
O27   O     O_R   0.971100 0.499970 0.938700 -0.591504
O28   O     O_R   0.028900 0.499970 0.061300 -0.591494
O29   O     O_R   0.471100 0.999970 0.938700 -0.590964
O30   O     O_R   0.528900 0.999970 0.061300 -0.591583
O31   O     O_R   0.028870 0.499990 0.880960 -0.571551
O32   O     O_R   0.971130 0.499990 0.119040 -0.571586
O33   O     O_R   0.528870 0.999990 0.880960 -0.572143
O34   O     O_R   0.450100 0.028880 0.549880 -0.579686
O35   O     O_R   0.471130 0.999990 0.119040 -0.571914
O36   O     O_R   0.971110 0.549880 0.028880 -0.590531
O37   O     O_R   0.028890 0.549880 0.971120 -0.590514
O38   O     O_R   0.471110 0.049880 0.028880 -0.590831
O39   O     O_R   0.528890 0.049880 0.971120 -0.590693
O40   O     O_R   0.499980 0.450010 0.052100 -0.589059
O41   O     O_R   0.500020 0.450010 0.947900 -0.589050
O42   O     O_R   0.999980 0.950010 0.052100 -0.590871
O43   O     O_R   0.000020 0.950010 0.947900 -0.587596
O44   O     O_R   0.450080 0.499920 0.102080 -0.588404
O45   O     O_R   0.549920 0.499920 0.897920 -0.588379
O46   O     O_R   0.950080 0.999920 0.102080 -0.588426
O47   O     O_R   0.049920 0.999920 0.897920 -0.585634
O48   O     O_R   0.450080 0.499990 0.997700 -0.588775

loop_
_geom_bond_atom_site_label_1
_geom_bond_atom_site_label_2
_ccdc_geom_bond_type
C172  C177  A    
C21   C26   A    
C157  C158  A    
C104  H157  S    
C104  C108  A    
C92   H149  S    
C260  C264  A    
Cu8   O27   S    
C153  C257  A    
C27   H124  S    
C185  C190  A    
C55   O8    A    
Cu6   O18   S    
C89   C99   A    
Cu10  O25   S    
C200  H24   S    
C34   C96   S    
C259  C263  A    
C8    H110  S    
C139  C142  A    
Cu4   O8    S    
C29   C33   A    
C119  C130  A    
C115  H23   S    
Cu10  Cu11  S    
C59   H130  S    
C89   C94   A    
Cu8   O36   S    
C233  C237  A    
C182  C183  A    
C93   H151  S    
C181  H65   S    
C101  C207  S    
Cu12  O5    S    
C57   H37   S    
C207  O16   A    
C245  H92   S    
Cu8   Cu9   S    
C3    C261  A    
Cu2   O45   S    
C205  O14   A    
C36   C97   S    
C42   C221  S    
C122  H7    S    
C62   H133  S    
C136  C140  A    
C71   C82   A    
C56   H127  S    
C149  H29   S    
C76   C146  S    
C218  H75   S    
C168  C187  A    
Cu12  O40   S    
C13   C212  S    
C80   C83   A    
C224  C228  A    
C61   H132  S    
C44   O30   A    
C36   O25   A    
C154  H30   S    
C25   C29   A    
C125  H9    S    
C206  O19   A    
C112  O10   A    
C113  C208  S    
C127  H11   S    
C28   C32   A    
Cu10  O29   S    
C134  H15   S    
C167  H54   S    
C46   H36   S    
C152  C256  A    
Cu1   O14   S    
C94   C97   A    
C219  H76   S    
C115  C148  A    
C2    C221  A    
C17   C21   A    
C231  C236  A    
C64   C66   A    
C19   C23   A    
C183  C184  A    
C19   C188  S    
C44   O35   A    
C45   O37   A    
C72   C86   A    
C175  C176  A    
C52   O3    A    
C161  H49   S    
C16   C20   A    
C51   O2    A    
C82   C178  S    
C110  C131  S    
C64   H135  S    
C59   C69   A    
C251  C260  A    
C70   H136  S    
C120  H5    S    
C155  H31   S    
C82   C84   A    
C22   C27   A    
Cu5   Cu7   S    
C214  C218  A    
C240  C245  A    
C201  H35   S    
C107  C110  A    
C22   H120  S    
C180  H64   S    
C45   O36   A    
Cu12  O2    S    
C182  H66   S    
C168  C209  A    
C140  C142  A    
Cu9   O31   S    
C138  C141  A    
C51   O45   A    
C95   C97   A    
C59   C63   A    
C58   H129  S    
C60   C64   A    
C216  C238  A    
C154  C210  A    
C226  C230  A    
C49   O43   A    
C47   O38   A    
C121  C123  A    
C119  C126  A    
C61   C65   A    
C58   C67   A    
C4    C262  A    
C5    C263  A    
C40   C77   A    
C103  C107  A    
C100  C117  A    
C113  C157  A    
C248  C252  A    
C165  C171  A    
C227  C231  A    
C185  H41   S    
C112  O12   A    
C187  H43   S    
Cu10  O35   S    
C249  C258  A    
C120  C127  A    
C218  C223  A    
C167  C169  A    
C129  C144  S    
C174  H60   S    
C2    C211  S    
Cu3   O7    S    
C114  C147  A    
C175  H61   S    
C183  H67   S    
C223  C227  A    
C13   C57   A    
C170  C171  A    
C43   O33   A    
C198  H13   S    
C229  C234  A    
C48   O40   A    
C38   H146  S    
C174  C175  A    
C149  C153  A    
Cu2   O41   S    
C219  C224  A    
Cu6   O9    S    
C164  H52   S    
C63   H134  S    
C83   C98   S    
C215  C237  A    
Cu1   O12   S    
C188  O23   A    
C145  C150  A    
C246  H93   S    
C200  C204  A    
C242  H90   S    
C255  H102  S    
C90   C206  S    
Cu2   O48   S    
C258  C262  A    
Cu3   O42   S    
C201  C209  A    
C116  C149  A    
C247  H94   S    
C222  H78   S    
C68   H38   S    
C205  O18   A    
C11   C33   A    
C54   O6    A    
C134  C139  A    
C168  H39   S    
Cu4   O47   S    
C207  O20   A    
C79   C205  S    
C89   H143  S    
C227  H79   S    
Cu5   O23   S    
C12   C17   A    
Cu9   O24   S    
C147  C151  A    
C127  C129  A    
Cu4   O43   S    
C107  H160  S    
C35   C254  A    
C199  O34   A    
C156  C232  A    
C50   O48   A    
C179  C189  A    
C105  H158  S    
C8    C12   A    
Cu12  O44   S    
C197  C202  A    
C23   C28   A    
C50   C236  S    
C244  H91   S    
C50   O44   A    
C228  C233  A    
C55   C69   S    
C102  C117  A    
C188  O11   A    
C41   C210  S    
C220  H77   S    
C26   C30   A    
C206  O15   A    
C126  H10   S    
C155  C221  A    
Cu11  O39   S    
C48   O41   A    
C208  O17   A    
C250  C259  A    
C29   H126  S    
C33   C252  S    
Cu9   O37   S    
C248  H96   S    
C245  C249  A    
C234  H86   S    
C94   H152  S    
C18   C22   A    
C138  H18   S    
C214  C236  A    
C148  C152  A    
C262  H105  S    
C66   C86   S    
C189  H44   S    
C6    C264  A    
Cu3   Cu4   S    
C48   C117  S    
C55   O7    A    
C4    C223  S    
C57   C101  A    
C79   C124  A    
C1    C17   S    
C30   C249  S    
C122  C125  A    
C253  H101  S    
C150  H1    S    
C173  H59   S    
C202  C211  A    
C13   C232  A    
C90   C135  A    
C203  H57   S    
C148  H28   S    
C60   C69   A    
C35   C79   A    
C184  H69   S    
C108  C110  A    
C9    H111  S    
Cu11  O26   S    
C191  C195  A    
C134  C144  A    
C189  C193  A    
C5    C224  S    
C14   H115  S    
C1    O1    A    
C159  C164  A    
C6    C242  A    
C91   C99   A    
C196  C201  A    
C70   C85   A    
C47   O39   A    
C88   C98   A    
C106  C109  A    
C58   C62   A    
C74   C124  S    
C37   C74   A    
C122  C131  A    
C170  H56   S    
C53   C239  S    
C161  C162  A    
C72   H138  S    
C36   O26   A    
C181  C182  A    
C172  C173  A    
C15   C19   A    
C32   C251  S    
Cu5   O17   S    
C192  C196  A    
C87   H141  S    
C18   C112  S    
C3    C7    A    
C123  H8    S    
C214  H70   S    
C75   C135  S    
Cu4   O3    S    
C20   C25   A    
C186  C213  A    
C106  H159  S    
C76   C115  A    
C234  C238  A    
C186  C191  A    
Cu7   O11   S    
C179  H40   S    
C3    H109  S    
C78   C83   A    
C16   H118  S    
Cu2   Cu12  S    
Cu5   O16   S    
C7    C244  A    
C186  H42   S    
C108  H3    S    
C217  C239  A    
C68   C113  A    
C87   C98   A    
C132  C143  A    
C38   C255  A    
C95   H153  S    
C63   C66   A    
C133  C138  A    
C87   C92   A    
C53   O47   A    
C171  H58   S    
C45   C141  S    
Cu8   O22   S    
C103  H156  S    
Cu7   O21   S    
C258  H97   S    
C104  C118  A    
C39   H147  S    
C43   O29   A    
C40   H148  S    
C241  C246  A    
C41   O31   A    
C151  H73   S    
C136  H16   S    
C119  H4    S    
C150  C253  A    
C39   C256  A    
C240  H88   S    
C27   C31   A    
C225  C229  A    
C244  C248  A    
C9    C14   A    
C259  H98   S    
C215  C219  A    
C209  C254  S    
C216  C220  A    
C11   C16   A    
C162  H50   S    
C159  C160  A    
C4    C240  A    
C230  C235  A    
C42   O28   A    
C73   H140  S    
C247  C251  A    
C158  H33   S    
C191  H47   S    
C103  C118  A    
C80   C165  S    
C74   C111  A    
C180  C181  A    
C162  C163  A    
Cu6   O19   S    
C217  C222  A    
C137  C141  A    
C195  H139  S    
C43   C232  S    
C84   C99   S    
C235  C239  A    
Cu9   O28   S    
C34   O24   A    
C178  C180  A    
C40   C257  A    
Cu1   O15   S    
C46   C90   A    
C169  H55   S    
C126  C129  A    
C8    C30   A    
C133  H14   S    
C132  C137  A    
C257  H104  S    
C136  C144  A    
C139  H19   S    
Cu7   O20   S    
C121  C131  A    
C105  C109  A    
C116  H25   S    
Cu3   O46   S    
C192  H106  S    
C158  C243  A    
C71   H137  S    
C128  C143  S    
C199  O13   A    
C24   C68   A    
Cu6   O10   S    
C216  H72   S    
C78   C159  S    
C198  C203  A    
C114  H22   S    
C222  C226  A    
C56   C61   A    
C190  H45   S    
C263  H107  S    
C102  H155  S    
C28   H125  S    
C41   O27   A    
C6    C225  S    
C165  C166  A    
Cu8   O32   S    
C124  C154  A    
Cu11  O30   S    
C169  C170  A    
C14   C18   A    
C194  H128  S    
C163  C164  A    
C92   C96   A    
Cu1   Cu6   S    
C193  H117  S    
C177  H63   S    
C42   O32   A    
C194  C198  A    
C173  C174  A    
C2    C46   A    
C156  H32   S    
C47   C142  S    
C100  C105  A    
C120  C130  A    
C52   O46   A    
C176  H62   S    
C10   C15   A    
C111  C145  A    
C100  H154  S    
C49   O42   A    
C91   H144  S    
C21   H119  S    
C26   H123  S    
C147  H27   S    
C179  C211  A    
C135  C155  A    
C24   C243  A    
C81   C172  S    
C228  H80   S    
C70   C81   A    
C235  H87   S    
C210  C254  A    
C71   C85   A    
C264  H108  S    
C25   H122  S    
C111  H21   S    
C166  H53   S    
C125  C128  A    
C72   C78   A    
C260  H99   S    
C215  H71   S    
C77   C116  A    
C241  H89   S    
C34   O22   A    
C88   H142  S    
C38   C75   A    
C153  H95   S    
C10   H112  S    
C101  C146  A    
C133  C143  A    
C261  H100  S    
C217  H74   S    
C230  H82   S    
C190  C194  A    
C23   H121  S    
C54   C67   S    
C91   C95   A    
C204  C213  A    
C31   C250  S    
Cu11  O33   S    
C1    O9    A    
Cu5   O34   S    
C202  H46   S    
C20   C199  S    
C24   C213  S    
C204  H68   S    
C49   C118  S    
C160  H48   S    
C185  C212  A    
C163  H51   S    
C51   C237  S    
C75   C114  A    
C39   C76   A    
C252  C261  A    
C197  H2    S    
C176  C177  A    
C93   C96   A    
C166  C167  A    
C203  C212  A    
C121  H6    S    
Cu10  O38   S    
C81   C84   A    
C145  H26   S    
C151  C255  A    
C195  C200  A    
C246  C250  A    
C88   C93   A    
C62   C65   A    
C233  H85   S    
Cu3   O4    S    
C208  O21   A    
C152  H84   S    
C54   O5    A    
C140  H20   S    
C37   H145  S    
C65   C85   S    
C7    C226  S    
C52   C238  S    
C56   C67   A    
C37   C253  A    
C242  C247  A    
C160  C161  A    
C137  H17   S    
C11   H113  S    
C12   H114  S    
C35   H34   S    
C123  C128  A    
C132  H12   S    
C193  C197  A    
Cu2   O6    S    
C73   C80   A    
C187  C192  A    
C220  C225  A    
C102  C106  A    
C231  H83   S    
C73   C86   A    
C256  H103  S    
Cu1   O1    S    
C9    C31   A    
Cu7   O13   S    
C10   C32   A    
C146  C156  A    
C53   O4    A    
C109  C130  S    
C229  H81   S    
C15   H116  S    
C5    C241  A    
C196  H150  S    
C60   H131  S    
C178  C184  A    
C44   C243  S    
C77   C157  S    
