data_mof_unit_65261.cif
_audit_creation_date              2012-10-26T17:21:39-0400
_audit_creation_method            fapswitch 2.2
_symmetry_space_group_name_H-M    P1
_symmetry_Int_Tables_number       1
_space_group_crystal_system       triclinic
_cell_length_a                    21.727139
_cell_length_b                    21.727456
_cell_length_c                    38.782391
_cell_angle_alpha                 90.020262
_cell_angle_beta                  89.995744
_cell_angle_gamma                 90.001089
_cell_volume                      18308.2137418

loop_
_atom_site_label
_atom_site_type_symbol
_atom_type_description
_atom_site_fract_x
_atom_site_fract_y
_atom_site_fract_z
_atom_type_partial_charge
C1    C     C_R   0.499999 0.881542 0.000005 0.535530
C2    C     C_R   0.313207 0.500028 1.000000 -0.020182
C3    C     C_R   0.783279 0.507997 0.031544 -0.008552
C4    C     C_R   0.491029 0.216711 0.968524 -0.008592
C5    C     C_R   0.216718 0.508175 0.968464 -0.008649
C6    C     C_R   0.508985 0.783250 0.968541 -0.008604
C7    C     C_R   0.783291 0.491825 0.968457 -0.008644
C8    C     C_R   0.994389 0.283350 0.531728 -0.008783
C9    C     C_R   0.716726 0.991024 0.531467 -0.008600
C10   C     C_R   0.009425 0.716763 0.531414 -0.008524
C11   C     C_R   0.283266 0.008994 0.531466 -0.008600
C12   C     C_R   0.990405 0.716718 0.468577 -0.008756
C13   C     C_R   0.500008 0.313217 0.999990 -0.020089
C14   C     C_R   0.716735 0.008982 0.468536 -0.008614
C15   C     C_R   0.004885 0.283288 0.468275 -0.009090
C16   C     C_R   0.283274 0.991002 0.468531 -0.008589
C17   C     C_R   0.491247 0.718874 0.030928 -0.115121
C18   C     C_R   0.281126 0.492151 0.030990 -0.115162
C19   C     C_R   0.508766 0.281163 0.030908 -0.115103
C20   C     C_R   0.718866 0.507846 0.030989 -0.115166
C21   C     C_R   0.491253 0.281126 0.969072 -0.115118
C22   C     C_R   0.281133 0.507960 0.969012 -0.115137
C23   C     C_R   0.508766 0.718837 0.969091 -0.115090
C24   C     C_R   0.686793 0.499973 0.999996 -0.020188
C25   C     C_R   0.718875 0.492043 0.969005 -0.115147
C26   C     C_R   0.994603 0.218932 0.531187 -0.115198
C27   C     C_R   0.781140 0.991244 0.530918 -0.115021
C28   C     C_R   0.009217 0.781174 0.530861 -0.115104
C29   C     C_R   0.218851 0.008772 0.530917 -0.115184
C30   C     C_R   0.990688 0.781135 0.469119 -0.115141
C31   C     C_R   0.781149 0.008761 0.469085 -0.115232
C32   C     C_R   0.004931 0.218882 0.468843 -0.115278
C33   C     C_R   0.218859 0.991224 0.469080 -0.115005
C34   C     C_3   0.603133 0.944516 0.820998 -0.268829
C35   C     C_R   0.999887 0.186816 0.500019 -0.020309
C36   C     C_3   0.652625 0.912290 0.842477 -0.457872
C37   C     C_3   0.056304 0.602546 0.820989 -0.268919
C38   C     C_3   0.088799 0.651884 0.842468 -0.457804
C39   C     C_3   0.396882 0.055578 0.821040 -0.268845
C40   C     C_3   0.347382 0.087776 0.842543 -0.457891
C41   C     C_3   0.943768 0.397123 0.821033 -0.268929
C42   C     C_3   0.911219 0.347870 0.842532 -0.457812
C43   C     C_3   0.603115 0.055486 0.178997 -0.268827
C44   C     C_3   0.652605 0.087722 0.157516 -0.457944
C45   C     C_3   0.057926 0.398541 0.178941 -0.267811
C46   C     C_R   0.813217 0.000002 0.500002 -0.020086
C47   C     C_3   0.092653 0.350729 0.157464 -0.458759
C48   C     C_3   0.396855 0.944430 0.178964 -0.268851
C49   C     C_3   0.347359 0.912227 0.157463 -0.457895
C50   C     C_3   0.941788 0.602359 0.178670 -0.268034
C51   C     C_3   0.906829 0.649802 0.157076 -0.458583
C52   C     C_3   0.107915 0.451296 0.323405 -0.273475
C53   C     C_3   0.107016 0.381135 0.325040 -0.443026
C54   C     C_3   0.555527 0.103072 0.321025 -0.268784
C55   C     C_3   0.587756 0.152568 0.342518 -0.458057
C56   C     C_3   0.894890 0.551759 0.320862 -0.270156
C57   C     C_R   0.999981 0.813223 0.499988 -0.020055
C58   C     C_3   0.843427 0.580791 0.342325 -0.457233
C59   C     C_3   0.444473 0.896813 0.321014 -0.268817
C60   C     C_3   0.412266 0.847322 0.342504 -0.457964
C61   C     C_3   0.102812 0.556065 0.678995 -0.268902
C62   C     C_3   0.152239 0.588393 0.657513 -0.457859
C63   C     C_3   0.555541 0.896928 0.678968 -0.268835
C64   C     C_3   0.587767 0.847435 0.657470 -0.457873
C65   C     C_3   0.897797 0.442769 0.678967 -0.268876
C66   C     C_3   0.849000 0.409514 0.657468 -0.457747
C67   C     C_3   0.444487 0.103184 0.678992 -0.268817
C68   C     C_R   0.186783 0.999999 0.499998 -0.020071
C69   C     C_3   0.412268 0.152668 0.657507 -0.457912
C70   C     C_3   0.481850 0.819818 0.064791 -0.267767
C71   C     C_3   0.474096 0.782106 0.097792 -0.458635
C72   C     C_3   0.180197 0.483867 0.064939 -0.267786
C73   C     C_3   0.217928 0.477388 0.098024 -0.458970
C74   C     C_3   0.518158 0.180266 0.064773 -0.267760
C75   C     C_3   0.525926 0.218022 0.097772 -0.458661
C76   C     C_3   0.819786 0.516118 0.064943 -0.267799
C77   C     C_3   0.782045 0.522570 0.098032 -0.459045
C78   C     C_3   0.481861 0.180181 0.935210 -0.267791
C79   C     C_R   0.500000 0.814873 0.000008 0.035037
C80   C     C_3   0.474114 0.217893 0.902209 -0.458592
C81   C     C_3   0.180200 0.516539 0.935089 -0.267872
C82   C     C_3   0.217926 0.523791 0.902049 -0.458603
C83   C     C_3   0.518159 0.819735 0.935225 -0.267791
C84   C     C_3   0.525930 0.781979 0.902226 -0.458590
C85   C     C_3   0.819818 0.483457 0.935080 -0.267879
C86   C     C_3   0.782103 0.476185 0.902038 -0.458597
C87   C     C_3   0.988566 0.319937 0.565257 -0.267975
C88   C     C_3   0.982832 0.282283 0.598407 -0.458498
C89   C     C_3   0.680213 0.981856 0.564780 -0.267799
C90   C     C_R   0.185117 0.500029 0.000000 0.035140
C91   C     C_3   0.717942 0.974108 0.597780 -0.458562
C92   C     C_3   0.019022 0.680292 0.564696 -0.267771
C93   C     C_3   0.026888 0.718061 0.597684 -0.458683
C94   C     C_3   0.319768 0.018183 0.564782 -0.267769
C95   C     C_3   0.282029 0.025960 0.597782 -0.458643
C96   C     C_3   0.980553 0.680187 0.435323 -0.267723
C97   C     C_3   0.971803 0.717892 0.402398 -0.458136
C98   C     C_3   0.680233 0.018152 0.435222 -0.267750
C99   C     C_3   0.717973 0.025908 0.402223 -0.458715
C100  C     C_3   0.009680 0.319773 0.434678 -0.267052
C101  C     C_R   0.500003 0.185127 0.999992 0.035034
C102  C     C_3   0.012350 0.281994 0.401433 -0.459329
C103  C     C_3   0.319787 0.981813 0.435216 -0.267787
C104  C     C_3   0.282057 0.974035 0.402215 -0.458582
C105  C     C_R   0.118454 0.500004 0.999999 0.535414
C106  C     C_R   0.814883 0.499971 0.999997 0.035151
C107  C     C_R   0.999881 0.314906 0.500009 0.035264
C108  C     C_R   0.685127 0.000002 0.500001 0.035030
C109  C     C_R   0.999974 0.685133 0.499992 0.034977
C110  C     C_R   0.314873 0.999998 0.499999 0.035042
C111  C     C_R   0.380568 0.500005 0.000000 0.555432
C112  C     C_R   0.500003 0.380572 0.999995 0.555420
C113  C     C_R   0.619432 0.499996 0.999998 0.555424
C114  C     C_R   0.500002 0.619428 0.000005 0.555423
C115  C     C_R   0.880572 0.000000 0.500001 0.555412
C116  C     C_R   0.500001 0.118458 0.999995 0.535529
C117  C     C_R   0.999998 0.880574 0.499995 0.555344
C118  C     C_R   0.119428 0.999999 0.499999 0.555463
C119  C     C_R   0.999982 0.119440 0.500007 0.555532
C120  C     C_R   0.500002 0.000002 0.933590 0.528405
C121  C     C_R   0.999997 0.499989 0.933590 0.528242
C122  C     C_R   0.499998 0.999999 0.066410 0.528404
C123  C     C_R   0.999967 0.500015 0.066398 0.528263
C124  C     C_R   0.000016 0.500130 0.433588 0.529657
C125  C     C_R   0.500002 0.999991 0.433590 0.528409
C126  C     C_R   0.000006 0.499978 0.566409 0.528252
C127  C     C_R   0.881546 0.499996 0.999997 0.535370
C128  C     C_R   0.500002 0.000009 0.566410 0.528409
C129  C     C_R   0.549687 0.974941 0.877416 -0.117200
C130  C     C_R   0.025429 0.549431 0.877415 -0.117220
C131  C     C_R   0.450325 0.025108 0.877435 -0.117216
C132  C     C_R   0.974573 0.450419 0.877436 -0.117200
C133  C     C_R   0.549674 0.025061 0.122582 -0.117202
C134  C     C_R   0.025899 0.451001 0.122581 -0.117352
C135  C     C_R   0.450308 0.974899 0.122567 -0.117229
C136  C     C_R   0.973792 0.549326 0.122461 -0.117181
C137  C     C_R   0.051112 0.478457 0.377388 -0.125890
C138  C     C_R   0.999984 0.381555 0.500005 0.535315
C139  C     C_R   0.525085 0.049645 0.377428 -0.117191
C140  C     C_R   0.949434 0.523647 0.377372 -0.118451
C141  C     C_R   0.474924 0.950280 0.377423 -0.117231
C142  C     C_R   0.049536 0.525353 0.622574 -0.117217
C143  C     C_R   0.525092 0.950355 0.622569 -0.117211
C144  C     C_R   0.950692 0.474172 0.622567 -0.117269
C145  C     C_R   0.474932 0.049719 0.622580 -0.117207
C146  C     C_R   0.550320 0.973828 0.841116 0.006196
C147  C     C_R   0.026598 0.549986 0.841114 0.006205
C148  C     C_R   0.449694 0.026251 0.841136 0.006183
C149  C     C_R   0.618457 0.000000 0.500000 0.535539
C150  C     C_R   0.973451 0.449746 0.841135 0.006207
C151  C     C_R   0.550303 0.026175 0.158882 0.006202
C152  C     C_R   0.027175 0.450598 0.158878 0.005934
C153  C     C_R   0.449672 0.973756 0.158866 0.006171
C154  C     C_R   0.972543 0.550100 0.158749 0.006062
C155  C     C_R   0.051993 0.478221 0.341267 0.009159
C156  C     C_R   0.526210 0.050265 0.341128 0.006210
C157  C     C_R   0.949010 0.525139 0.341033 0.003461
C158  C     C_R   0.473792 0.949635 0.341124 0.006186
C159  C     C_R   0.050233 0.526349 0.658876 0.006214
C160  C     C_R   0.999997 0.618460 0.499994 0.535524
C161  C     C_R   0.526221 0.949735 0.658868 0.006186
C162  C     C_R   0.950179 0.472847 0.658866 0.006148
C163  C     C_R   0.473804 0.050364 0.658880 0.006192
C164  C     C_R   0.500008 0.000047 0.822978 0.039825
C165  C     C_R   0.000041 0.499834 0.822978 0.039848
C166  C     C_R   0.499986 0.999957 0.177022 0.039810
C167  C     C_R   0.999903 0.500464 0.177000 0.039136
C168  C     C_R   0.000699 0.501683 0.322907 0.049339
C169  C     C_R   0.499997 0.999945 0.322978 0.039806
C170  C     C_R   0.000202 0.499601 0.677019 0.039787
C171  C     C_R   0.381543 0.999999 0.499999 0.535542
C172  C     C_R   0.500012 0.000054 0.677022 0.039820
C173  C     C_R   0.500005 0.000016 0.895544 -0.026787
C174  C     C_R   0.999994 0.499951 0.895544 -0.026697
C175  C     C_R   0.499993 0.999987 0.104456 -0.026793
C176  C     C_R   0.999872 0.500093 0.104422 -0.026392
C177  C     C_R   0.000137 0.500656 0.395548 -0.024836
C178  C     C_R   0.500005 0.999970 0.395544 -0.026791
C179  C     C_R   0.000055 0.499868 0.604453 -0.026677
C180  C     C_R   0.500009 0.000029 0.604456 -0.026788
C181  C     C_R   0.500004 0.000061 0.715092 0.312038
C182  C     C_R   0.500006 0.686783 0.000010 -0.020086
C183  C     C_R   0.000163 0.499648 0.715090 0.311893
C184  C     C_R   0.499985 0.999938 0.284908 0.312044
C185  C     C_R   0.000578 0.501290 0.284919 0.316767
C186  C     C_R   0.000097 0.500774 0.215108 0.312592
C187  C     C_R   0.499981 0.999945 0.215092 0.312046
C188  C     C_R   0.000080 0.499763 0.784907 0.311885
C189  C     C_R   0.500005 0.000055 0.784908 0.312035
C190  C     C_R   0.491022 0.783289 0.031476 -0.008589
C191  C     C_R   0.216712 0.491997 0.031544 -0.008569
C192  C     C_R   0.508986 0.216751 0.031458 -0.008604
Cu1   Cu    Cu3+1 0.438290 0.000000 0.000000 0.905901
Cu2   Cu    Cu3+1 0.500000 0.500000 0.965880 0.910877
Cu3   Cu    Cu3+1 1.000000 0.000000 0.534120 0.910824
Cu4   Cu    Cu3+1 1.000000 1.000000 0.465880 0.910650
Cu5   Cu    Cu3+1 0.000000 0.438290 0.000000 0.906151
Cu6   Cu    Cu3+1 0.561710 0.000000 0.000000 0.905883
Cu7   Cu    Cu3+1 1.000000 0.561710 0.000000 0.906190
Cu8   Cu    Cu3+1 0.938290 0.500000 0.500000 0.905165
Cu9   Cu    Cu3+1 0.500000 0.938290 0.500000 0.905769
Cu10  Cu    Cu3+1 0.061710 0.500000 0.500000 0.906472
Cu11  Cu    Cu3+1 0.500000 0.061710 0.500000 0.905883
Cu12  Cu    Cu3+1 0.500000 0.500000 0.034120 0.910618
H1    H     H_    0.587233 0.955471 0.892062 0.132597
H2    H     H_    0.544549 0.087200 0.392083 0.132603
H3    H     H_    0.608862 0.812913 0.674960 0.143851
H4    H     H_    0.590324 0.916397 0.696946 0.156183
H5    H     H_    0.519426 0.874007 0.694654 0.170818
H6    H     H_    0.824101 0.442626 0.640700 0.152279
H7    H     H_    0.870464 0.372742 0.641594 0.148158
H8    H     H_    0.814896 0.387729 0.674956 0.143778
H9    H     H_    0.917783 0.408421 0.697020 0.156291
H10   H     H_    0.874216 0.478579 0.694578 0.170419
H11   H     H_    0.445907 0.176881 0.640747 0.152376
H12   H     H_    0.375071 0.131998 0.641626 0.147345
H13   H     H_    0.910845 0.541068 0.391984 0.133607
H14   H     H_    0.391178 0.187203 0.675006 0.143789
H15   H     H_    0.409701 0.083728 0.696968 0.156155
H16   H     H_    0.480603 0.126110 0.694682 0.170815
H17   H     H_    0.432311 0.752798 0.096179 0.148577
H18   H     H_    0.515435 0.753212 0.102455 0.154633
H19   H     H_    0.468580 0.813820 0.120051 0.145777
H20   H     H_    0.522155 0.850644 0.068502 0.156962
H21   H     H_    0.440364 0.849312 0.061960 0.158362
H22   H     H_    0.247198 0.435524 0.096918 0.148450
H23   H     H_    0.246861 0.518876 0.102183 0.154605
H24   H     H_    0.455463 0.912737 0.392075 0.132586
H25   H     H_    0.186231 0.472801 0.120348 0.145547
H26   H     H_    0.149280 0.524220 0.068222 0.157582
H27   H     H_    0.150792 0.442227 0.062535 0.157431
H28   H     H_    0.567713 0.247326 0.096150 0.148557
H29   H     H_    0.484591 0.246925 0.102443 0.154617
H30   H     H_    0.531450 0.186338 0.120031 0.145717
H31   H     H_    0.477849 0.149452 0.068491 0.156947
H32   H     H_    0.559639 0.150762 0.061938 0.158394
H33   H     H_    0.752777 0.564437 0.096954 0.148452
H34   H     H_    0.753109 0.481080 0.102163 0.154552
H35   H     H_    0.086855 0.545247 0.607919 0.132306
H36   H     H_    0.813735 0.527134 0.120359 0.145553
H37   H     H_    0.850710 0.475771 0.068204 0.157544
H38   H     H_    0.849182 0.557766 0.062561 0.157308
H39   H     H_    0.432329 0.247200 0.903822 0.148613
H40   H     H_    0.515454 0.246788 0.897545 0.154675
H41   H     H_    0.468602 0.186179 0.879950 0.145799
H42   H     H_    0.522165 0.149356 0.931498 0.156962
H43   H     H_    0.440374 0.150687 0.938042 0.158365
H44   H     H_    0.247183 0.565635 0.903455 0.148719
H45   H     H_    0.246873 0.482412 0.897591 0.154464
H46   H     H_    0.544552 0.912801 0.607912 0.132610
H47   H     H_    0.186218 0.528903 0.879765 0.146065
H48   H     H_    0.149512 0.476062 0.931622 0.157329
H49   H     H_    0.150563 0.557981 0.937665 0.157878
H50   H     H_    0.567716 0.752676 0.903845 0.148630
H51   H     H_    0.484595 0.753075 0.897558 0.154664
H52   H     H_    0.531454 0.813664 0.879967 0.145754
H53   H     H_    0.477851 0.850547 0.931510 0.156955
H54   H     H_    0.559640 0.849240 0.938058 0.158397
H55   H     H_    0.752847 0.434339 0.903434 0.148721
H56   H     H_    0.753155 0.517559 0.897589 0.154466
H57   H     H_    0.913317 0.454385 0.607907 0.132382
H58   H     H_    0.813817 0.471061 0.879753 0.146086
H59   H     H_    0.850500 0.523938 0.931624 0.157346
H60   H     H_    0.849462 0.442021 0.937644 0.157835
H61   H     H_    0.940831 0.253170 0.597671 0.148967
H62   H     H_    0.024314 0.253196 0.602213 0.153756
H63   H     H_    0.978929 0.314043 0.620756 0.147063
H64   H     H_    0.029567 0.350177 0.567920 0.158538
H65   H     H_    0.947317 0.350036 0.563504 0.156371
H66   H     H_    0.747248 0.932323 0.596160 0.148663
H67   H     H_    0.746841 0.015447 0.602450 0.154747
H68   H     H_    0.455469 0.087262 0.607931 0.132596
H69   H     H_    0.686239 0.968597 0.620039 0.145777
H70   H     H_    0.649390 0.022160 0.568500 0.156970
H71   H     H_    0.650717 0.940370 0.561942 0.158386
H72   H     H_    0.068643 0.747400 0.596009 0.148548
H73   H     H_    0.985546 0.746929 0.602404 0.154845
H74   H     H_    0.032517 0.686389 0.619938 0.145494
H75   H     H_    0.978854 0.649334 0.568518 0.156831
H76   H     H_    0.060582 0.650937 0.561747 0.158497
H77   H     H_    0.252724 0.067745 0.596166 0.148508
H78   H     H_    0.253128 0.984627 0.602447 0.154617
H79   H     H_    0.484338 0.693060 0.054411 0.140838
H80   H     H_    0.313725 0.031491 0.620042 0.145762
H81   H     H_    0.350587 0.977879 0.568495 0.156942
H82   H     H_    0.349270 0.059664 0.561951 0.158382
H83   H     H_    0.930090 0.747224 0.404417 0.148871
H84   H     H_    0.013006 0.746766 0.397332 0.154412
H85   H     H_    0.965561 0.686168 0.380201 0.146351
H86   H     H_    0.020864 0.649498 0.431292 0.156244
H87   H     H_    0.939235 0.650557 0.438463 0.159408
H88   H     H_    0.747280 0.067693 0.403847 0.148348
H89   H     H_    0.746872 0.984571 0.397551 0.154624
H90   H     H_    0.306940 0.485897 0.054532 0.141000
H91   H     H_    0.686277 0.031424 0.379965 0.145740
H92   H     H_    0.649412 0.977847 0.431501 0.156935
H93   H     H_    0.650735 0.059636 0.438062 0.158359
H94   H     H_    0.054328 0.252834 0.400984 0.148343
H95   H     H_    0.970534 0.252955 0.398828 0.154039
H96   H     H_    0.014161 0.313652 0.378984 0.145256
H97   H     H_    0.969187 0.350861 0.432747 0.159380
H98   H     H_    0.051624 0.349008 0.435706 0.156219
H99   H     H_    0.252751 0.932250 0.403831 0.148632
H100  H     H_    0.253158 0.015368 0.397551 0.154740
H101  H     H_    0.515676 0.307003 0.054391 0.140879
H102  H     H_    0.313760 0.968505 0.379956 0.145762
H103  H     H_    0.350607 0.022117 0.431503 0.157001
H104  H     H_    0.349286 0.940332 0.438048 0.158350
H105  H     H_    0.045143 0.586864 0.892063 0.132397
H106  H     H_    0.693046 0.514100 0.054534 0.141009
H107  H     H_    0.484346 0.306939 0.945590 0.140861
H108  H     H_    0.306952 0.514204 0.945469 0.141010
H109  H     H_    0.515677 0.692998 0.945608 0.140906
H110  H     H_    0.693062 0.485802 0.945459 0.141001
H111  H     H_    0.990504 0.193160 0.554887 0.141215
H112  H     H_    0.806964 0.984336 0.554400 0.140940
H113  H     H_    0.016525 0.807021 0.554304 0.140855
H114  H     H_    0.193022 0.015694 0.554400 0.140804
H115  H     H_    0.983400 0.806953 0.445674 0.140790
H116  H     H_    0.412778 0.044567 0.892095 0.132606
H117  H     H_    0.806979 0.015670 0.445604 0.140768
H118  H     H_    0.009057 0.193072 0.445147 0.141314
H119  H     H_    0.193035 0.984303 0.445597 0.140930
H120  H     H_    0.676844 0.945923 0.859247 0.152371
H121  H     H_    0.631959 0.875089 0.858348 0.147382
H122  H     H_    0.687154 0.891206 0.824975 0.143832
H123  H     H_    0.583669 0.909736 0.803013 0.156186
H124  H     H_    0.626054 0.980635 0.805318 0.170794
H125  H     H_    0.055286 0.676351 0.859200 0.152423
H126  H     H_    0.125839 0.631020 0.858378 0.147503
H127  H     H_    0.954843 0.413030 0.892099 0.132411
H128  H     H_    0.110136 0.686239 0.824965 0.143804
H129  H     H_    0.091002 0.582802 0.803051 0.156244
H130  H     H_    0.020373 0.625647 0.805254 0.170520
H131  H     H_    0.323166 0.054125 0.859291 0.152382
H132  H     H_    0.368039 0.124967 0.858439 0.147377
H133  H     H_    0.312852 0.108871 0.825056 0.143814
H134  H     H_    0.416347 0.090377 0.803079 0.156166
H135  H     H_    0.373967 0.019472 0.805335 0.170803
H136  H     H_    0.944695 0.323445 0.859294 0.152402
H137  H     H_    0.874163 0.368804 0.858413 0.147526
H138  H     H_    0.587225 0.044528 0.107935 0.132604
H139  H     H_    0.889894 0.313466 0.825043 0.143796
H140  H     H_    0.909107 0.416812 0.803064 0.156261
H141  H     H_    0.979721 0.373957 0.805333 0.170480
H142  H     H_    0.676828 0.054095 0.140743 0.152384
H143  H     H_    0.631936 0.124922 0.141648 0.147350
H144  H     H_    0.687131 0.108809 0.175017 0.143698
H145  H     H_    0.583650 0.090260 0.196986 0.156122
H146  H     H_    0.626039 0.019364 0.194672 0.170788
H147  H     H_    0.060372 0.325072 0.140535 0.151780
H148  H     H_    0.129035 0.373174 0.141759 0.147742
H149  H     H_    0.046050 0.413781 0.107949 0.132250
H150  H     H_    0.115100 0.317086 0.174964 0.143735
H151  H     H_    0.091487 0.418948 0.197319 0.156180
H152  H     H_    0.022312 0.373914 0.194156 0.172814
H153  H     H_    0.323145 0.945877 0.140715 0.152385
H154  H     H_    0.368019 0.875037 0.141567 0.147366
H155  H     H_    0.312826 0.891131 0.174951 0.143828
H156  H     H_    0.416315 0.909633 0.196925 0.156142
H157  H     H_    0.373937 0.980537 0.194668 0.170796
H158  H     H_    0.938967 0.675375 0.140029 0.151818
H159  H     H_    0.870475 0.627052 0.141482 0.147765
H160  H     H_    0.412760 0.955442 0.107908 0.132608
H161  H     H_    0.884324 0.683572 0.174490 0.143981
H162  H     H_    0.908369 0.582118 0.197181 0.155705
H163  H     H_    0.977426 0.627266 0.193729 0.173030
H164  H     H_    0.109059 0.365227 0.352228 0.145043
H165  H     H_    0.064506 0.363085 0.312735 0.167525
H166  H     H_    0.147530 0.362429 0.311084 0.140075
H167  H     H_    0.110961 0.465352 0.295990 0.171107
H168  H     H_    0.150438 0.468663 0.336039 0.139720
H169  H     H_    0.554123 0.176795 0.359284 0.152359
H170  H     H_    0.624953 0.131905 0.358394 0.147284
H171  H     H_    0.953640 0.586412 0.107739 0.132356
H172  H     H_    0.608848 0.187090 0.325025 0.143568
H173  H     H_    0.590308 0.083603 0.303043 0.156117
H174  H     H_    0.519410 0.125991 0.305342 0.170781
H175  H     H_    0.821047 0.545600 0.358881 0.152199
H176  H     H_    0.861785 0.618921 0.358413 0.147717
H177  H     H_    0.807898 0.600074 0.324809 0.143643
H178  H     H_    0.912599 0.587868 0.303145 0.156642
H179  H     H_    0.874272 0.514664 0.304875 0.168781
H180  H     H_    0.445912 0.823114 0.359258 0.152302
H181  H     H_    0.375070 0.867984 0.358391 0.147384
H182  H     H_    0.090247 0.460228 0.391396 0.128596
H183  H     H_    0.391177 0.812784 0.325008 0.143702
H184  H     H_    0.409679 0.916267 0.303046 0.156167
H185  H     H_    0.480586 0.873894 0.305317 0.170758
H186  H     H_    0.176560 0.554800 0.640763 0.152448
H187  H     H_    0.131499 0.625517 0.641621 0.147150
H188  H     H_    0.186693 0.609599 0.675014 0.143811
H189  H     H_    0.083096 0.590835 0.696901 0.156195
H190  H     H_    0.125868 0.520153 0.694761 0.170643
H191  H     H_    0.554132 0.823206 0.640708 0.152360
H192  H     H_    0.624962 0.868100 0.641590 0.147396
N1    N     N_R   0.538066 0.038129 0.767179 -0.243303
N2    N     N_R   0.538042 0.961865 0.267161 -0.243352
N3    N     N_R   0.033319 0.543808 0.267040 -0.244067
N4    N     N_R   0.461926 0.038013 0.267183 -0.243350
N5    N     N_R   0.961937 0.537604 0.732802 -0.242877
N6    N     N_R   0.538048 0.038150 0.732835 -0.243305
N7    N     N_R   0.038335 0.461735 0.732851 -0.243564
N8    N     N_R   0.461960 0.961970 0.732822 -0.243326
N9    N     N_R   0.961919 0.537685 0.767147 -0.243152
N10   N     N_R   0.461943 0.961984 0.767165 -0.243308
N11   N     N_R   0.038273 0.461771 0.767196 -0.243211
N12   N     N_R   0.538058 0.961886 0.232817 -0.243344
N13   N     N_R   0.967227 0.458374 0.233028 -0.245272
N14   N     N_R   0.461906 0.038000 0.232839 -0.243366
N15   N     N_R   0.033130 0.543501 0.232701 -0.245303
N16   N     N_R   0.967465 0.458618 0.267368 -0.241088
O1    O     O_R   0.447900 0.909920 0.999910 -0.510969
O2    O     O_R   0.590080 0.947900 0.499910 -0.510991
O3    O     O_R   0.052100 0.590080 0.499910 -0.511105
O4    O     O_R   0.409920 0.052100 0.499910 -0.510940
O5    O     O_R   0.947900 0.590080 0.500090 -0.511095
O6    O     O_R   0.590080 0.052100 0.500090 -0.510985
O7    O     O_R   0.052100 0.409920 0.500090 -0.510108
O8    O     O_R   0.409920 0.947900 0.500090 -0.510997
O9    O     O_R   0.447900 0.000090 0.949980 -0.512288
O10   O     O_R   0.999910 0.447900 0.949980 -0.512258
O11   O     O_R   0.552100 0.999910 0.949980 -0.512287
O12   O     O_R   0.090080 0.447900 0.999910 -0.510800
O13   O     O_R   0.000090 0.552100 0.949980 -0.512250
O14   O     O_R   0.447900 0.999910 0.050020 -0.512288
O15   O     O_R   0.999910 0.552100 0.050020 -0.512174
O16   O     O_R   0.552100 0.000090 0.050020 -0.512292
O17   O     O_R   0.000090 0.447900 0.050020 -0.512163
O18   O     O_R   0.947900 0.500090 0.449980 -0.513988
O19   O     O_R   0.499910 0.947900 0.449980 -0.512303
O20   O     O_R   0.052100 0.499910 0.449980 -0.511337
O21   O     O_R   0.500090 0.052100 0.449980 -0.512287
O22   O     O_R   0.947900 0.499910 0.550020 -0.511598
O23   O     O_R   0.552100 0.090080 0.999910 -0.510981
O24   O     O_R   0.499910 0.052100 0.550020 -0.512278
O25   O     O_R   0.052100 0.500090 0.550020 -0.512818
O26   O     O_R   0.500090 0.947900 0.550020 -0.512299
O27   O     O_R   0.409800 0.500090 0.028790 -0.514412
O28   O     O_R   0.499910 0.409800 0.028790 -0.514361
O29   O     O_R   0.590200 0.499910 0.028790 -0.514432
O30   O     O_R   0.500090 0.590200 0.028790 -0.514317
O31   O     O_R   0.409800 0.499910 0.971210 -0.514375
O32   O     O_R   0.499910 0.590200 0.971210 -0.514327
O33   O     O_R   0.590200 0.500090 0.971210 -0.514370
O34   O     O_R   0.909920 0.552100 0.999910 -0.510822
O35   O     O_R   0.500090 0.409800 0.971210 -0.514288
O36   O     O_R   0.909800 0.000090 0.528790 -0.514074
O37   O     O_R   0.999910 0.909800 0.528790 -0.514321
O38   O     O_R   0.090200 0.999910 0.528790 -0.514537
O39   O     O_R   0.000090 0.090200 0.528790 -0.514484
O40   O     O_R   0.909800 0.999910 0.471210 -0.514594
O41   O     O_R   0.999910 0.090200 0.471210 -0.514619
O42   O     O_R   0.090200 0.000090 0.471210 -0.514052
O43   O     O_R   0.000090 0.909800 0.471210 -0.514270
O44   O     O_R   0.447900 0.090080 0.000090 -0.510971
O45   O     O_R   0.090080 0.552100 0.000090 -0.511008
O46   O     O_R   0.552100 0.909920 0.000090 -0.510974
O47   O     O_R   0.909920 0.447900 0.000090 -0.511053
O48   O     O_R   0.947900 0.409920 0.499910 -0.511277

loop_
_geom_bond_atom_site_label_1
_geom_bond_atom_site_label_2
_ccdc_geom_bond_type
C62   H187  S    
C48   C153  S    
C71   H17   S    
C72   H27   S    
C153  C166  A    
Cu3   O38   S    
C8    C26   A    
C82   H45   S    
C105  O45   A    
C133  C151  A    
C113  O29   A    
C123  C176  S    
C40   H131  S    
C15   C32   A    
C42   H137  S    
C130  C174  A    
C9    C108  A    
C44   H143  S    
C134  C176  A    
C67   H16   S    
C54   H173  S    
C96   H86   S    
C13   C112  S    
C54   C156  S    
C185  N16   A    
C75   H28   S    
Cu12  O27   S    
C132  C150  A    
C53   H166  S    
C38   H126  S    
Cu5   Cu7   S    
C135  H160  S    
C12   C109  A    
C119  O41   A    
C161  C172  A    
C17   C182  A    
C39   H134  S    
C45   H152  S    
C84   H52   S    
C14   C98   S    
C128  C180  S    
C142  C159  A    
C72   C191  S    
C111  O31   A    
C105  O12   A    
C87   H64   S    
C110  C171  S    
C59   C60   S    
C104  H100  S    
C131  H116  S    
Cu11  O24   S    
C129  C173  A    
C85   H59   S    
C144  H57   S    
C157  C168  A    
C43   H145  S    
C45   C47   S    
C142  H35   S    
C118  O38   A    
C2    C111  S    
C96   H87   S    
C69   H14   S    
C93   H72   S    
Cu7   O45   S    
C99   H89   S    
C127  O47   A    
C106  C127  S    
C120  O11   A    
C43   C44   S    
C4    C78   S    
C37   C38   S    
C139  H2    S    
C29   C68   A    
C91   H69   S    
C7    C106  A    
C13   C21   A    
C37   C147  S    
C163  C172  A    
N1    N6    A    
C27   C46   A    
Cu2   O32   S    
C63   H4    S    
C49   H153  S    
C77   H34   S    
C1    C79   S    
C154  C167  A    
C66   H8    S    
C134  H149  S    
C152  C167  A    
C114  O32   A    
C70   C190  S    
C63   C161  S    
C6    C83   S    
C187  N14   A    
C90   C105  S    
C72   C73   S    
C47   H148  S    
C122  O16   A    
C82   H44   S    
C107  C138  S    
C76   H37   S    
C34   C146  S    
C123  O17   A    
C97   H85   S    
C55   H172  S    
C183  N5    A    
Cu3   Cu4   S    
Cu1   O9    S    
C26   C35   A    
Cu8   Cu10  S    
C98   C99   S    
C89   H71   S    
C81   H49   S    
C37   H129  S    
C143  C161  A    
Cu8   O5    S    
C136  C176  A    
C159  C170  A    
C189  N10   A    
C41   H141  S    
C14   C31   A    
C160  O3    A    
C184  N2    A    
C73   H25   S    
Cu2   O31   S    
C72   H26   S    
C46   C115  S    
Cu3   O39   S    
C115  O36   A    
C53   H164  S    
C125  O21   A    
C140  C157  A    
C59   C158  S    
C78   C80   S    
C25   H110  S    
C125  O19   A    
C44   H142  S    
C36   H121  S    
C33   H119  S    
C10   C109  A    
C32   H118  S    
C171  O4    A    
C41   H140  S    
C147  C165  A    
C68   C118  S    
C172  C181  S    
C95   H77   S    
C31   C46   A    
C49   H155  S    
C77   H36   S    
C59   H185  S    
C66   H6    S    
Cu1   O44   S    
C113  O33   A    
C58   H176  S    
C114  O30   A    
C1    O1    A    
C39   H135  S    
C11   C110  A    
Cu9   Cu11  S    
C69   H12   S    
C51   H158  S    
C40   H133  S    
Cu5   O47   S    
C94   H81   S    
C64   H3    S    
C23   H109  S    
C148  C164  A    
Cu12  O30   S    
C58   H177  S    
C116  O23   A    
C39   C40   S    
C132  H127  S    
C145  C163  A    
C146  C164  A    
C34   H123  S    
C123  O15   A    
C64   H191  S    
C92   H76   S    
C121  O13   A    
C169  C184  S    
C2    C22   A    
C56   C157  S    
C83   C84   S    
Cu2   Cu12  S    
C132  C174  A    
N13   N16   A    
Cu9   O26   S    
C133  C175  A    
C86   H56   S    
C124  C177  S    
C124  O20   A    
Cu4   O42   S    
C188  N9    A    
Cu7   O34   S    
C116  O44   A    
C186  N15   A    
C99   H88   S    
C48   H156  S    
C97   H84   S    
C50   H162  S    
C52   C53   S    
C56   H179  S    
C62   H188  S    
C54   C55   S    
C130  C147  A    
Cu12  O28   S    
C138  O48   A    
C102  H94   S    
C40   H132  S    
C128  O24   A    
C17   C190  A    
C26   H111  S    
C44   H144  S    
C80   H39   S    
Cu8   O22   S    
C28   H113  S    
C67   H15   S    
C54   H174  S    
C51   H161  S    
C160  O5    A    
Cu11  O6    S    
C1    O46   A    
C89   C91   S    
C78   H42   S    
C86   H58   S    
Cu9   O8    S    
C34   C36   S    
N4    N14   A    
C61   C62   S    
C127  O34   A    
C63   C64   S    
C67   C163  S    
C140  H13   S    
C60   H180  S    
Cu4   O40   S    
C103  H104  S    
C45   H151  S    
C125  C178  S    
Cu5   O10   S    
C74   H31   S    
C98   H93   S    
C33   C68   A    
C184  N4    A    
C87   C88   S    
C8    C107  A    
C41   C42   S    
C19   H101  S    
C15   C100  S    
C91   H66   S    
C61   H189  S    
C16   C110  A    
C52   C155  S    
Cu5   O17   S    
C145  H68   S    
C99   H91   S    
C73   H22   S    
C88   H61   S    
C185  N3    A    
Cu1   Cu6   S    
C30   C57   A    
C75   H30   S    
C55   H170  S    
C52   H167  S    
C15   C107  A    
C100  H97   S    
C29   H114  S    
Cu9   O2    S    
C136  H171  S    
C188  N11   A    
C39   C148  S    
C70   H20   S    
C36   H120  S    
C24   C25   A    
C70   C71   S    
C186  N13   A    
Cu2   O35   S    
C62   H186  S    
C141  H24   S    
C14   C108  A    
C18   H90   S    
C10   C92   S    
C71   H18   S    
Cu3   O37   S    
C77   H33   S    
C63   H5    S    
C126  O22   A    
C119  O39   A    
C183  N7    A    
C3    C106  A    
Cu7   O15   S    
C18   C191  A    
C165  C188  S    
C117  O37   A    
C13   C19   A    
C166  C187  S    
C51   H159  S    
C9    C89   S    
C47   H147  S    
C41   C150  S    
C85   C86   S    
C167  C186  S    
C104  H102  S    
C141  C178  A    
C38   H125  S    
C76   H38   S    
C5    C81   S    
C16   C103  S    
N3    N15   A    
C121  C174  S    
C162  C170  A    
C155  C168  A    
C134  C152  A    
C4    C101  A    
C84   H51   S    
C140  C177  A    
Cu5   O12   S    
C126  C179  S    
C112  O28   A    
Cu6   O11   S    
C121  O10   A    
C93   H74   S    
C47   H150  S    
C23   C182  A    
C11   C94   S    
C48   C49   S    
C104  H99   S    
C89   H70   S    
Cu11  O21   S    
C61   H190  S    
C85   H60   S    
C43   H146  S    
C43   C151  S    
C9    C27   A    
C57   C117  S    
C10   C28   A    
C12   C30   A    
C98   H92   S    
C122  O14   A    
C117  O43   A    
Cu6   O46   S    
C88   H63   S    
C149  O6    A    
C56   H178  S    
C149  O2    A    
C7    C25   A    
C45   C152  S    
C65   H10   S    
Cu10  O25   S    
C114  C182  S    
C30   H115  S    
C102  H96   S    
C6    C79   A    
C7    C85   S    
Cu10  O3    S    
C133  H138  S    
C145  C180  A    
C92   C93   S    
C36   H122  S    
C83   H53   S    
C94   C95   S    
Cu6   O23   S    
C17   H79   S    
Cu2   O33   S    
C141  C158  A    
C20   H106  S    
C95   H80   S    
C49   H154  S    
C21   H107  S    
C101  C116  S    
C12   C96   S    
C22   H108  S    
C66   H7    S    
C187  N12   A    
Cu7   O13   S    
C143  H46   S    
Cu8   O18   S    
C170  C183  S    
C2    C18   A    
C35   C119  S    
C48   H157  S    
C69   H11   S    
C70   H21   S    
Cu8   O48   S    
C101  C192  A    
C171  O8    A    
C111  O27   A    
C81   C82   S    
C94   H82   S    
C28   C57   A    
C65   H9    S    
C137  C155  A    
C83   H54   S    
Cu1   O1    S    
N8    N10   A    
C91   H67   S    
C61   C159  S    
C64   H192  S    
C122  C175  S    
C118  O42   A    
C34   H124  S    
C156  C169  A    
C129  H1    S    
C55   H169  S    
N2    N12   A    
C31   H117  S    
Cu3   O36   S    
C103  C104  S    
C137  C177  A    
C181  N8    A    
C5    C22   A    
C20   C24   A    
C53   H165  S    
Cu4   O41   S    
C79   C190  A    
C65   C162  S    
Cu9   O19   S    
Cu10  O20   S    
C37   H130  S    
C5    C90   A    
C19   C192  A    
C24   C113  S    
C112  O35   A    
C136  C154  A    
Cu10  O7    S    
C97   H83   S    
C189  N1    A    
C50   H163  S    
C50   C51   S    
C90   C191  A    
C56   C58   S    
C59   H184  S    
C71   H19   S    
C74   C75   S    
C32   C35   A    
C82   H47   S    
C3    C20   A    
C76   C77   S    
C73   H23   S    
C102  H95   S    
C126  O25   A    
C42   H139  S    
C150  C165  A    
C131  C173  A    
C80   H40   S    
C67   C69   S    
C135  C175  A    
C60   H181  S    
N7    N11   A    
C115  O40   A    
C16   C33   A    
C142  C179  A    
C144  C179  A    
Cu1   O14   S    
C95   H78   S    
C96   C97   S    
C100  C102  S    
C78   H43   S    
C129  C146  A    
C42   H136  S    
C131  C148  A    
C38   H128  S    
C143  C180  A    
C3    C76   S    
C58   H175  S    
C74   C192  S    
C103  H103  S    
C27   H112  S    
C84   H50   S    
C124  O18   A    
C74   H32   S    
C164  C189  S    
C181  N6    A    
C168  C185  S    
C144  C162  A    
Cu12  O29   S    
Cu11  O4    S    
C158  C169  A    
C138  O7    A    
C151  C166  A    
C135  C153  A    
C8    C87   S    
C92   H75   S    
C139  C178  A    
C137  H182  S    
C87   H65   S    
C4    C21   A    
C88   H62   S    
C93   H73   S    
C139  C156  A    
C50   C154  S    
Cu4   O43   S    
C6    C23   A    
C60   H183  S    
C120  O9    A    
C75   H29   S    
C52   H168  S    
C100  H98   S    
C86   H55   S    
C108  C149  S    
C120  C173  S    
C128  O26   A    
C11   C29   A    
C65   C66   S    
Cu6   O16   S    
C80   H41   S    
C81   H48   S    
C109  C160  S    
N5    N9    A    
C130  H105  S    
