data_mof_unit_15308.cif
_audit_creation_date              2012-12-10T17:48:41-0500
_audit_creation_method            fapswitch 2.2
_symmetry_space_group_name_H-M    P1
_symmetry_Int_Tables_number       1
_space_group_crystal_system       triclinic
_cell_length_a                    15.703294
_cell_length_b                    10.62038
_cell_length_c                    9.930155
_cell_angle_alpha                 90.821205
_cell_angle_beta                  90.155398
_cell_angle_gamma                 91.598875
_cell_volume                      1655.27825894

loop_
_atom_site_label
_atom_site_type_symbol
_atom_type_description
_atom_site_fract_x
_atom_site_fract_y
_atom_site_fract_z
_atom_type_partial_charge
C1    C     C_R   0.516570 0.263889 0.499810 1.013195
C2    C     C_3   0.951385 0.477659 0.644329 -0.342765
C3    C     C_3   0.917514 0.498680 0.499841 0.245571
C4    C     C_3   0.952544 0.627868 0.450720 -0.461598
C5    C     C_3   0.050772 0.629357 0.450131 -0.382544
C6    C     C_1   0.825968 0.499694 0.500267 -0.041347
C7    C     C_1   0.174341 0.503392 0.499208 -0.100142
C8    C     C_1   0.249708 0.504394 0.499373 -0.166649
C9    C     C_R   0.593239 0.122177 0.737335 0.292412
C10   C     C_R   0.583576 0.065374 0.862597 -0.077962
C11   C     C_R   0.531745 0.957989 0.874773 -0.164496
C12   C     C_R   0.338599 0.503885 0.499890 0.996271
C13   C     C_R   0.498058 0.898557 0.759622 -0.118129
C14   C     C_R   0.516240 0.946487 0.629812 0.075462
C15   C     C_R   0.550944 0.069190 0.622438 0.070081
C16   C     C_R   0.540465 0.133021 0.500082 -0.120624
C17   C     C_R   0.531597 0.065323 0.379848 -0.152845
C18   C     C_R   0.514502 0.938182 0.382795 -0.196390
C19   C     C_R   0.503688 0.877825 0.506470 -0.095229
C20   C     C_R   0.350854 0.420238 0.134006 0.468460
C21   C     C_R   0.276786 0.457919 0.068315 -0.301334
C22   C     C_R   0.276682 0.455730 0.927403 -0.313687
C23   C     C_R   0.497526 0.741501 0.501798 0.839993
C24   C     C_R   0.351162 0.418734 0.862040 0.439555
C25   C     C_R   0.428548 0.456013 0.926995 0.043266
C26   C     C_R   0.428459 0.456429 0.071013 0.045041
C27   C     C_R   0.569010 0.540042 0.072303 -0.098736
C28   C     C_R   0.568962 0.540117 0.929404 -0.070851
C29   C     C_R   0.661609 0.501460 0.500060 0.892916
C30   C     C_3   0.049645 0.477759 0.643575 -0.403129
C31   C     C_3   0.048259 0.394932 0.404336 -0.385144
C32   C     C_3   0.949672 0.393898 0.402844 0.129569
C33   C     C_1   0.750576 0.500784 0.500259 -0.091398
C34   C     C_3   0.082907 0.501456 0.499266 0.277561
H1    H     H_    0.926012 0.386965 0.684616 0.228835
H2    H     H_    0.075079 0.552223 0.714061 0.175981
H3    H     H_    0.929569 0.553781 0.713214 0.171422
H4    H     H_    0.928664 0.646335 0.347379 0.181176
H5    H     H_    0.534338 0.111459 0.283772 0.206586
H6    H     H_    0.615021 0.105754 0.950934 0.166060
H7    H     H_    0.519842 0.918377 0.973043 0.139692
H8    H     H_    0.456380 0.817680 0.775323 0.170398
H9    H     H_    0.508034 0.888033 0.287358 0.165973
H10   H     H_    0.625142 0.574039 0.126315 0.147932
H11   H     H_    0.071899 0.385646 0.680212 0.195157
H12   H     H_    0.215988 0.451199 0.119382 0.189165
H13   H     H_    0.215912 0.446860 0.875742 0.182864
H14   H     H_    0.625039 0.574165 0.876800 0.155700
H15   H     H_    0.072502 0.409534 0.300271 0.161482
H16   H     H_    0.071944 0.302755 0.438124 0.223471
H17   H     H_    0.927744 0.413487 0.298687 0.129054
H18   H     H_    0.075692 0.707218 0.516780 0.196598
H19   H     H_    0.074303 0.647961 0.346427 0.181015
H20   H     H_    0.930108 0.704998 0.517770 0.204843
N1    N     N_R   0.499210 0.498800 0.142780 -0.119533
N2    N     N_R   0.499180 0.498720 0.857170 -0.118466
O1    O     O_R   0.500000 0.316780 0.614690 -0.529710
O2    O     O_R   0.499990 0.316750 0.385360 -0.561280
O3    O     O_R   0.377150 0.500020 0.614720 -0.621921
O4    O     O_R   0.377140 0.499990 0.385380 -0.615472
O5    O     O_R   0.500010 0.683250 0.614640 -0.649058
O6    O     O_R   0.500000 0.683220 0.385310 -0.630098
O7    O     O_R   0.622860 0.500010 0.614620 -0.599029
O8    O     O_R   0.622850 0.499980 0.385280 -0.638901
Zn1   Zn    Zn3+2 0.500010 0.500020 0.653130 1.009003
Zn2   Zn    Zn3+2 0.499990 0.499980 0.346870 0.998469
Br1   Br    Br    0.679042 0.252690 0.725120 -0.514619
S1    S     S_3+6 0.340303 0.263069 0.192850 0.072581
O9    O     O_2   0.338198 0.257582 0.343465 -0.270515
O10   O     O_2   0.258511 0.203105 0.140864 -0.262818
O11   O     O_3   0.422148 0.180197 0.133795 -0.555171
H21   H     H_    0.401272 0.091304 0.131715 0.379583
S2    S     S_3+6 0.341470 0.262451 0.795525 0.077325
O12   O     O_2   0.420631 0.193162 0.827131 -0.255010
O13   O     O_2   0.267705 0.193859 0.860705 -0.263858
O14   O     O_3   0.324872 0.257452 0.628541 -0.513860
H22   H     H_    0.262174 0.256736 0.617103 0.358985
Br2   Br    Br    0.903246 0.226371 0.445759 -0.494386

loop_
_geom_bond_atom_site_label_1
_geom_bond_atom_site_label_2
_ccdc_geom_bond_type
C2    H1    S    
O7    Zn1   S    
S2    O12   D    
C30   H11   S    
C25   N2    A    
C3    C6    S    
C26   N1    A    
C29   O7    A    
C28   N2    A    
C7    C8    T    
C5    H19   S    
C27   N1    A    
C24   S2    S    
C15   C16   A    
C29   C33   S    
C10   H6    S    
C18   C19   A    
C17   H5    S    
C12   O3    A    
C27   H10   S    
O2    Zn2   S    
C23   O6    A    
C16   C17   A    
C5    H18   S    
C13   C14   A    
C9    C10   A    
C22   H13   S    
C29   O8    A    
O4    Zn2   S    
C21   C22   A    
S2    O13   D    
C31   H15   S    
C13   H8    S    
O6    Zn2   S    
O14   H22   S    
C30   C34   S    
S1    O9    D    
C25   C26   A    
O8    Zn2   S    
C19   C23   S    
C9    Br1   S    
C32   H17   S    
C1    O1    A    
C31   C32   S    
C8    C12   S    
C5    C34   S    
C17   C18   A    
C31   C34   S    
C1    C16   S    
C24   C25   A    
C4    H4    S    
S2    O14   S    
C22   C24   A    
C31   H16   S    
C3    C4    S    
N1    Zn2   S    
C21   H12   S    
C28   H14   S    
C4    H20   S    
C14   C19   A    
C20   S1    S    
O1    Zn1   S    
C4    C5    S    
C6    C33   T    
C30   H2    S    
C2    C30   S    
C2    C3    S    
C9    C15   A    
O11   H21   S    
C18   H9    S    
O3    Zn1   S    
C11   C13   A    
C2    H3    S    
C20   C26   A    
S1    O11   S    
C7    C34   S    
C11   H7    S    
C3    C32   S    
C10   C11   A    
C32   Br2   S    
C12   O4    A    
O5    Zn1   S    
C23   O5    A    
C20   C21   A    
S1    O10   D    
C27   C28   A    
C14   C15   A    
C1    O2    A    
N2    Zn1   S    
