data_mof_unit_15105.cif
_audit_creation_date              2012-12-10T19:53:46-0500
_audit_creation_method            fapswitch 2.2
_symmetry_space_group_name_H-M    P1
_symmetry_Int_Tables_number       1
_space_group_crystal_system       triclinic
_cell_length_a                    14.991284
_cell_length_b                    14.304367
_cell_length_c                    10.517987
_cell_angle_alpha                 89.583609
_cell_angle_beta                  91.644898
_cell_angle_gamma                 89.92155
_cell_volume                      2254.49407487

loop_
_atom_site_label
_atom_site_type_symbol
_atom_type_description
_atom_site_fract_x
_atom_site_fract_y
_atom_site_fract_z
_atom_type_partial_charge
C1    C     C_R   0.327956 0.499804 0.497462 1.050753
C2    C     C_R   0.429378 0.796937 0.446889 0.434445
C3    C     C_R   0.499559 0.053497 0.499917 -0.298289
C4    C     C_R   0.499599 0.946908 0.499836 -0.297858
C5    C     C_R   0.500191 0.500454 0.257900 0.985117
C6    C     C_R   0.499189 0.499558 0.742135 0.966189
C7    C     C_3   0.506402 0.587930 0.038012 0.420799
C8    C     C_3   0.492043 0.412205 0.962267 0.433853
C9    C     C_3   0.574584 0.536288 0.959787 0.350948
C10   C     C_3   0.423924 0.463899 0.040490 0.378310
C11   C     C_3   0.427924 0.551523 0.954275 -0.432640
C12   C     C_R   0.672574 0.499529 0.498178 0.965359
C13   C     C_3   0.570581 0.448597 0.045875 -0.422428
C14   C     C_3   0.497788 0.498735 0.876422 -0.162385
C15   C     C_3   0.500769 0.501350 0.123712 -0.160339
C16   C     C_R   0.096627 0.552834 0.376441 0.361095
C17   C     C_R   0.901469 0.418199 0.410944 0.370314
C18   C     C_R   0.912493 0.574370 0.504370 0.447956
C19   C     C_R   0.091064 0.429721 0.540154 0.372312
C20   C     C_R   0.189523 0.556212 0.392108 0.299780
C21   C     C_R   0.808913 0.419578 0.425712 0.307642
C22   C     C_R   0.821964 0.573176 0.527477 0.254345
C23   C     C_R   0.473874 0.106213 0.389650 0.363457
C24   C     C_R   0.184095 0.432573 0.554953 0.234674
C25   C     C_R   0.231870 0.497972 0.483659 -0.258742
C26   C     C_R   0.769276 0.497125 0.485398 -0.344555
C27   C     C_R   0.048370 0.490469 0.451785 -0.138124
C28   C     C_R   0.952127 0.495924 0.449835 -0.170280
C29   C     C_3   0.032162 0.576785 0.179167 0.065109
C30   C     C_3   0.015391 0.653703 0.080755 -0.757423
C31   C     C_3   0.962971 0.340844 0.244868 0.044032
C32   C     C_3   0.979611 0.242452 0.197095 -0.713446
C33   C     C_3   0.993042 0.649619 0.661347 0.109376
C34   C     C_R   0.575588 0.894665 0.542207 0.368604
C35   C     C_3   0.027942 0.745310 0.700029 -0.675813
C36   C     C_3   0.019795 0.403474 0.726364 0.060701
C37   C     C_3   0.986599 0.325959 0.812484 -0.750256
C38   C     C_R   0.525624 0.104872 0.610140 0.358088
C39   C     C_R   0.423679 0.894991 0.457755 0.360767
C40   C     C_R   0.466035 0.204248 0.396913 0.433109
C41   C     C_R   0.570088 0.796621 0.553790 0.446586
C42   C     C_R   0.534065 0.202898 0.602796 0.471333
H1    H     H_    0.370524 0.592503 0.914622 0.193079
H2    H     H_    0.997660 0.622234 0.987167 0.182979
H3    H     H_    0.959551 0.699099 0.110065 0.279907
H4    H     H_    0.024978 0.381748 0.232369 0.141384
H5    H     H_    0.907403 0.372005 0.185638 0.118312
H6    H     H_    0.918551 0.199392 0.206681 0.255165
H7    H     H_    0.997490 0.245029 0.095450 0.201956
H8    H     H_    0.035347 0.209495 0.253078 0.277167
H9    H     H_    0.049146 0.599173 0.671880 0.092233
H10   H     H_    0.939424 0.629742 0.727602 0.142446
H11   H     H_    0.973367 0.797791 0.691941 0.280684
H12   H     H_    0.627938 0.407588 0.085639 0.205614
H13   H     H_    0.053716 0.742808 0.800042 0.186723
H14   H     H_    0.082912 0.766623 0.637458 0.265690
H15   H     H_    0.964981 0.455145 0.712998 0.119426
H16   H     H_    0.078055 0.437432 0.775469 0.130035
H17   H     H_    0.040145 0.273307 0.830033 0.255712
H18   H     H_    0.967146 0.355838 0.904857 0.185954
H19   H     H_    0.927593 0.291322 0.767344 0.278941
H20   H     H_    0.202893 0.648849 0.255674 0.388121
H21   H     H_    0.792024 0.298991 0.339833 0.369959
H22   H     H_    0.749280 0.616478 0.661406 0.354176
H23   H     H_    0.517005 0.719186 0.004590 0.355587
H24   H     H_    0.189226 0.327509 0.675687 0.379267
H25   H     H_    0.481697 0.003150 0.270908 0.359990
H26   H     H_    0.659447 0.998073 0.536152 0.355019
H27   H     H_    0.517197 0.000739 0.728996 0.353945
H28   H     H_    0.339844 0.998685 0.462696 0.355193
H29   H     H_    0.391030 0.302722 0.332996 0.377029
H30   H     H_    0.611048 0.696175 0.660183 0.371079
H31   H     H_    0.608144 0.301570 0.666201 0.363318
H32   H     H_    0.388434 0.698200 0.340444 0.399634
H33   H     H_    0.481772 0.281072 0.996773 0.383477
H34   H     H_    0.689425 0.592257 0.987459 0.352758
H35   H     H_    0.308943 0.408205 0.012988 0.352486
H36   H     H_    0.970065 0.535082 0.185562 0.133543
H37   H     H_    0.087292 0.531764 0.144876 0.127078
H38   H     H_    0.076377 0.696860 0.070983 0.255785
N1    N     N_R   0.500000 0.252470 0.500000 -0.269997
N2    N     N_R   0.500000 0.747530 0.500000 -0.279493
O1    O     O_R   0.369060 0.579480 0.500010 -0.597849
O2    O     O_3   0.481698 0.320612 0.918991 -0.650495
O3    O     O_3   0.652075 0.575696 0.911689 -0.766770
O4    O     O_3   0.346416 0.424604 0.088704 -0.729073
O5    O     O_3   0.052877 0.617657 0.298196 -0.546666
O6    O     O_3   0.942904 0.336172 0.375012 -0.546730
O7    O     O_3   0.962012 0.653670 0.533308 -0.508286
O8    O     O_3   0.042094 0.365114 0.607979 -0.548396
O9    O     O_3   0.241100 0.612733 0.316586 -0.707361
O10   O     O_3   0.755807 0.346365 0.383087 -0.723684
O11   O     O_3   0.788058 0.645222 0.597163 -0.637060
O12   O     O_R   0.630940 0.420520 0.499990 -0.589008
O13   O     O_3   0.230126 0.374487 0.640010 -0.732049
O14   O     O_3   0.452637 0.065191 0.274230 -0.645564
O15   O     O_3   0.655426 0.936197 0.578244 -0.636484
O16   O     O_3   0.546757 0.062470 0.725531 -0.639842
O17   O     O_3   0.343689 0.936822 0.421730 -0.647794
O18   O     O_3   0.423982 0.249856 0.296720 -0.660601
O19   O     O_3   0.637329 0.752216 0.621251 -0.630622
O20   O     O_3   0.577206 0.247033 0.702290 -0.630133
O21   O     O_3   0.361470 0.752569 0.381890 -0.631009
O22   O     O_R   0.630940 0.579480 0.499990 -0.598768
O23   O     O_R   0.369060 0.420520 0.500010 -0.606888
O24   O     O_R   0.499980 0.579460 0.313950 -0.609810
O25   O     O_R   0.500020 0.420540 0.686050 -0.577870
O26   O     O_R   0.500020 0.579460 0.686050 -0.661283
O27   O     O_R   0.499980 0.420540 0.313950 -0.606337
O28   O     O_3   0.516176 0.679418 0.082106 -0.715432
Zn1   Zn    Zn3+2 0.500000 0.606140 0.500000 0.995881
Zn2   Zn    Zn3+2 0.500000 0.393860 0.500000 1.022148

loop_
_geom_bond_atom_site_label_1
_geom_bond_atom_site_label_2
_ccdc_geom_bond_type
C21   C26   A    
C8    C13   S    
C35   H11   S    
C17   O6    S    
O25   Zn2   S    
C30   H3    S    
C3    C23   A    
C38   O16   S    
C12   O12   A    
C33   H10   S    
C7    C11   S    
C42   N1    A    
C36   C37   S    
H22   O11   S    
C38   C42   A    
C36   H16   S    
C10   C15   S    
C11   C14   S    
H33   O2    S    
C20   C25   A    
C23   C40   A    
C34   O15   S    
C23   O14   S    
C9    C13   S    
H26   O15   S    
C9    O3    S    
C2    C39   A    
C29   H36   S    
C3    C38   A    
C31   H4    S    
H21   O10   S    
C16   O5    S    
C6    O25   A    
C4    C39   A    
C11   H1    S    
C19   C27   A    
C5    O24   A    
C30   H38   S    
H27   O16   S    
C16   C27   A    
C7    C15   S    
C31   H5    S    
C1    C25   S    
C32   H6    S    
C30   H2    S    
C34   C41   A    
C42   O20   S    
O24   Zn1   S    
H23   O28   S    
C20   O9    S    
C4    C34   A    
C29   O5    S    
C35   H13   S    
C18   C28   A    
C24   C25   A    
C36   H15   S    
C24   O13   S    
C18   O7    S    
C17   C21   A    
O27   Zn2   S    
C12   C26   S    
C9    C14   S    
C29   C30   S    
C33   O7    S    
C6    C14   S    
C39   O17   S    
C31   C32   S    
C29   H37   S    
N1    Zn2   S    
C16   C20   A    
H20   O9    S    
C32   H8    S    
C37   H17   S    
H31   O20   S    
O23   Zn2   S    
H35   O4    S    
C13   C15   S    
C22   C26   A    
H25   O14   S    
C22   O11   S    
O1    Zn1   S    
C2    N2    A    
C1    O1    A    
C3    C4    S    
H28   O17   S    
C13   H12   S    
C36   O8    S    
C7    C9    S    
C10   O4    S    
C8    C14   S    
C31   O6    S    
C35   H14   S    
C8    O2    S    
C17   C28   A    
C40   N1    A    
C40   O18   S    
O22   Zn1   S    
C37   H19   S    
C7    O28   S    
C12   O22   A    
C33   H9    S    
H29   O18   S    
O26   Zn1   S    
N2    Zn1   S    
C18   C22   A    
C19   C24   A    
C19   O8    S    
C5    O27   A    
C2    O21   S    
C41   N2    A    
O12   Zn2   S    
C33   C35   S    
C41   O19   S    
C32   H7    S    
C5    C15   S    
C37   H18   S    
C10   C11   S    
C8    C10   S    
H30   O19   S    
C27   C28   S    
C6    O26   A    
H24   O13   S    
H34   O3    S    
C1    O23   A    
H32   O21   S    
C21   O10   S    
