data_mof_unit_42687.cif
_audit_creation_date              2012-12-10T19:46:33-0500
_audit_creation_method            fapswitch 2.2
_symmetry_space_group_name_H-M    P1
_symmetry_Int_Tables_number       1
_space_group_crystal_system       triclinic
_cell_length_a                    12.97758
_cell_length_b                    14.904385
_cell_length_c                    14.117707
_cell_angle_alpha                 90.178961
_cell_angle_beta                  96.312175
_cell_angle_gamma                 89.919224
_cell_volume                      2714.11782708

loop_
_atom_site_label
_atom_site_type_symbol
_atom_type_description
_atom_site_fract_x
_atom_site_fract_y
_atom_site_fract_z
_atom_type_partial_charge
C1    C     C_R   0.502878 0.327122 0.500139 0.975783
C2    C     C_R   0.502970 0.672771 0.500454 0.945899
C3    C     C_R   0.522001 0.231129 0.502227 -0.358175
C4    C     C_R   0.521377 0.768666 0.502308 -0.373980
C5    C     C_R   0.579745 0.191648 0.433509 0.352081
C6    C     C_R   0.580418 0.808005 0.581890 0.364576
C7    C     C_R   0.600233 0.099897 0.436802 0.452342
C8    C     C_R   0.600263 0.899834 0.582629 0.446745
C9    C     C_R   0.561325 0.048231 0.508076 -0.085239
C10   C     C_R   0.561290 0.951397 0.503241 -0.096604
C11   C     C_R   0.478835 0.420229 0.102305 0.443229
C12   C     C_R   0.438194 0.562199 0.888942 0.428483
C13   C     C_R   0.480501 0.422320 0.202408 -0.071108
C14   C     C_R   0.441343 0.561283 0.789275 -0.028659
C15   C     C_R   0.519816 0.577134 0.206155 -0.025260
C16   C     C_R   0.558757 0.439410 0.801531 -0.041304
C17   C     C_R   0.519781 0.578277 0.106686 -0.282314
C18   C     C_R   0.559368 0.438371 0.901034 -0.295541
C19   C     C_R   0.499517 0.499403 0.053019 0.042155
C20   C     C_R   0.499198 0.500344 0.946491 0.047076
C21   C     C_R   0.298564 0.502161 0.482169 0.938778
C22   C     C_R   0.701898 0.501068 0.517522 0.892865
C23   C     C_R   0.813559 0.505171 0.525972 -0.261265
C24   C     C_R   0.187576 0.503541 0.472023 -0.255006
C25   C     C_R   0.027978 0.466763 0.377604 0.576256
C26   C     C_R   0.974771 0.528251 0.624912 0.585491
C27   C     C_R   0.134572 0.472798 0.387121 -0.391143
C28   C     C_R   0.867916 0.520491 0.615306 -0.417890
C29   C     C_R   0.134966 0.530557 0.549018 0.509148
C30   C     C_R   0.865919 0.495870 0.444216 0.481309
C31   C     C_R   0.028241 0.517524 0.543683 -0.201699
C32   C     C_R   0.973650 0.492895 0.454630 -0.209939
C33   C     C_R   0.507750 0.087934 0.577716 -0.294217
C34   C     C_R   0.507512 0.911541 0.422980 -0.272360
C35   C     C_R   0.489727 0.179780 0.577041 0.441454
C36   C     C_R   0.485682 0.820747 0.422390 0.443717
H1    H     H_    0.827577 0.528677 0.678022 0.198426
H2    H     H_    0.175794 0.451514 0.328165 0.200494
H3    H     H_    0.474583 0.046435 0.629460 0.200894
H4    H     H_    0.477057 0.951951 0.362533 0.212256
N1    N     N_R   0.500000 0.499980 0.252470 -0.118468
N2    N     N_R   0.500000 0.500020 0.747530 -0.112351
O1    O     O_R   0.500010 0.369070 0.579480 -0.591229
O2    O     O_R   0.499990 0.630930 0.420520 -0.598612
O3    O     O_R   0.500010 0.369060 0.420520 -0.596536
O4    O     O_R   0.499990 0.630940 0.579480 -0.586007
O5    O     O_R   0.346360 0.499990 0.566340 -0.571570
O6    O     O_R   0.653640 0.500010 0.433660 -0.574428
O7    O     O_R   0.346360 0.499980 0.407390 -0.635481
O8    O     O_R   0.653640 0.500020 0.592610 -0.640909
Zn1   Zn    Zn3+2 0.500000 0.500010 0.606140 0.982844
Zn2   Zn    Zn3+2 0.500000 0.499990 0.393860 0.976366
O9    O     O_3   0.811769 0.488461 0.354254 -0.562942
C37   C     C_3   0.805179 0.574364 0.311880 -0.172166
H5    H     H_    0.764974 0.623145 0.355136 0.121063
H6    H     H_    0.759126 0.568850 0.241117 0.179494
H7    H     H_    0.883082 0.600448 0.300362 0.149942
O10   O     O_3   0.188365 0.568274 0.629799 -0.563125
C38   C     C_3   0.194174 0.661761 0.615934 -0.260267
H8    H     H_    0.115684 0.692411 0.601944 0.155412
H9    H     H_    0.241458 0.677767 0.557109 0.120437
H10   H     H_    0.232825 0.692823 0.681936 0.183288
H11   H     H_    0.536464 0.638274 0.246223 0.183580
H12   H     H_    0.605839 0.391892 0.767334 0.137900
H13   H     H_    0.536821 0.640358 0.071973 0.200266
H14   H     H_    0.607608 0.390045 0.942377 0.193546
O11   O     O_3   0.977931 0.434644 0.292706 -0.567883
C39   C     C_3   0.976293 0.340120 0.296733 -0.272611
H15   H     H_    0.938915 0.315899 0.359221 0.140916
H16   H     H_    0.055856 0.311860 0.298223 0.144028
H17   H     H_    0.929927 0.314463 0.231611 0.192411
O12   O     O_3   0.025636 0.547571 0.713906 -0.574248
C40   C     C_3   0.043800 0.466420 0.764133 -0.275116
H18   H     H_    0.093009 0.420044 0.726427 0.172708
H19   H     H_    0.969786 0.433065 0.776489 0.142709
H20   H     H_    0.086204 0.481574 0.834890 0.174150
O13   O     O_3   0.429115 0.218171 0.641456 -0.584955
C41   C     C_3   0.478081 0.208020 0.735195 -0.232751
H21   H     H_    0.467683 0.138864 0.761603 0.164255
H22   H     H_    0.440784 0.254522 0.782656 0.193364
H23   H     H_    0.561996 0.225560 0.740879 0.140577
O14   O     O_3   0.430966 0.783105 0.342477 -0.577443
C42   C     C_3   0.324206 0.789664 0.351949 -0.278572
H24   H     H_    0.304013 0.752734 0.415745 0.130078
H25   H     H_    0.280313 0.758394 0.288480 0.194714
H26   H     H_    0.299059 0.860957 0.354945 0.150629
O15   O     O_3   0.610457 0.241317 0.358866 -0.555746
C43   C     C_3   0.711338 0.274280 0.385330 -0.189521
H27   H     H_    0.716987 0.312016 0.453876 0.114516
H28   H     H_    0.731182 0.321254 0.329389 0.228595
H29   H     H_    0.769256 0.219178 0.389709 0.136333
O16   O     O_3   0.614312 0.757809 0.661624 -0.546544
C44   C     C_3   0.714686 0.725143 0.651894 -0.197418
H30   H     H_    0.772617 0.780093 0.660200 0.153465
H31   H     H_    0.736080 0.675930 0.709487 0.188416
H32   H     H_    0.718632 0.689957 0.582688 0.110090
O17   O     O_3   0.647886 0.061220 0.363437 -0.558843
C45   C     C_3   0.746274 0.027336 0.398892 -0.309852
H33   H     H_    0.739519 0.957599 0.424658 0.164957
H34   H     H_    0.787413 0.070012 0.455995 0.111901
H35   H     H_    0.795428 0.025007 0.339440 0.192056
O18   O     O_3   0.648346 0.938551 0.665394 -0.565588
C46   C     C_3   0.746435 0.972572 0.649309 -0.312746
H36   H     H_    0.739288 0.042452 0.622602 0.161619
H37   H     H_    0.787257 0.930194 0.599965 0.116025
H38   H     H_    0.796107 0.974583 0.718422 0.194810
O19   O     O_3   0.461434 0.340071 0.053795 -0.604331
C47   C     C_3   0.353664 0.325311 0.038390 -0.317626
H39   H     H_    0.313973 0.379673 0.994475 0.149226
H40   H     H_    0.319359 0.318366 0.106872 0.156656
H41   H     H_    0.339635 0.261560 0.998320 0.199078
O20   O     O_3   0.379498 0.625881 0.930112 -0.610845
C48   C     C_3   0.274441 0.600204 0.915455 -0.299200
H42   H     H_    0.262223 0.533470 0.947493 0.142940
H43   H     H_    0.244888 0.600018 0.838463 0.201274
H44   H     H_    0.227956 0.649783 0.951335 0.202922
H45   H     H_    0.465614 0.361352 0.239802 0.185394
H46   H     H_    0.396670 0.609722 0.745077 0.163225

loop_
_geom_bond_atom_site_label_1
_geom_bond_atom_site_label_2
_ccdc_geom_bond_type
C22   O6    A    
O15   C43   S    
C4    C36   A    
C44   H30   S    
C26   O12   S    
C40   H18   S    
C19   C20   S    
C25   O11   S    
C24   C27   A    
C1    O3    A    
C21   O7    A    
O17   C45   S    
O9    C37   S    
C2    O4    A    
C11   C19   A    
C33   H3    S    
C34   H4    S    
O6    Zn2   S    
C41   H22   S    
C27   H2    S    
C47   H39   S    
C7    C9    A    
C24   C29   A    
C33   C35   A    
C1    O1    A    
C42   H24   S    
C36   O14   S    
C39   H15   S    
C14   H46   S    
O19   C47   S    
C9    C10   S    
N1    Zn2   S    
C18   C20   A    
N2    Zn1   S    
C22   O8    A    
C48   H44   S    
O2    Zn2   S    
C25   C32   A    
C38   H8    S    
C44   H31   S    
C9    C33   A    
C40   H19   S    
C13   N1    A    
O20   C48   S    
C30   O9    S    
C37   H6    S    
C38   H9    S    
O11   C39   S    
C23   C30   A    
C15   N1    A    
C46   H37   S    
C2    O2    A    
C5    C7    A    
C41   H21   S    
C6    C8    A    
O3    Zn2   S    
O10   C38   S    
O13   C41   S    
O4    Zn1   S    
C35   O13   S    
C1    C3    S    
C2    C4    S    
C13   H45   S    
C31   C32   A    
C43   H29   S    
C3    C35   A    
O7    Zn2   S    
C12   C20   A    
O8    Zn1   S    
C10   C34   A    
C16   C18   A    
C23   C28   A    
C29   O10   S    
C4    C6    A    
C42   H25   S    
C12   C14   A    
O14   C42   S    
C44   H32   S    
C45   H34   S    
C11   O19   S    
C40   H20   S    
C18   H14   S    
C16   N2    A    
C12   O20   S    
C48   H42   S    
C15   C17   A    
C37   H5    S    
C38   H10   S    
C7    O17   S    
C17   H13   S    
C43   H28   S    
O12   C40   S    
C3    C5    A    
O5    Zn1   S    
C25   C27   A    
C45   H35   S    
C26   C28   A    
C47   H41   S    
C14   N2    A    
C29   C31   A    
C30   C32   A    
C11   C13   A    
C41   H23   S    
O1    Zn1   S    
C28   H1    S    
C39   H17   S    
C6    O16   S    
O16   C44   S    
C17   C19   A    
C47   H40   S    
C46   H38   S    
C34   C36   A    
O18   C46   S    
C5    O15   S    
C26   C31   A    
C42   H26   S    
C43   H27   S    
C8    C10   A    
C45   H33   S    
C21   C24   S    
C46   H36   S    
C39   H16   S    
C15   H11   S    
C22   C23   S    
C16   H12   S    
C48   H43   S    
C8    O18   S    
C21   O5    A    
C37   H7    S    
