data_mof_unit_48649.cif
_audit_creation_date              2012-12-11T15:21:53-0500
_audit_creation_method            fapswitch 2.2
_symmetry_space_group_name_H-M    P1
_symmetry_Int_Tables_number       1
_space_group_crystal_system       triclinic
_cell_length_a                    8.458804
_cell_length_b                    12.943814
_cell_length_c                    19.234777
_cell_angle_alpha                 92.644078
_cell_angle_beta                  92.422187
_cell_angle_gamma                 97.62498
_cell_volume                      2082.66490952

loop_
_atom_site_label
_atom_site_type_symbol
_atom_type_description
_atom_site_fract_x
_atom_site_fract_y
_atom_site_fract_z
_atom_type_partial_charge
Ba1   Ba    Ba6+2 0.160910 0.552960 0.466220 2.019131
Ba2   Ba    Ba6+2 0.649260 0.447030 0.533730 2.029539
C1    C     C_3   0.486194 0.833002 0.207666 -0.205718
C2    C     C_R   0.736451 0.820586 0.480722 -0.263050
C3    C     C_R   0.701699 0.997999 0.454272 0.049635
C4    C     C_3   0.913223 0.828279 0.241740 0.419227
C5    C     C_R   0.642822 0.890003 0.452086 -0.033391
C6    C     C_R   0.883891 0.854251 0.515726 -0.002771
C7    C     C_R   0.941353 0.966289 0.522166 -0.059391
C8    C     C_R   0.851231 0.038796 0.488610 -0.094098
C9    C     C_R   0.913170 0.149587 0.492456 -0.110269
C10   C     C_R   0.150065 0.114563 0.558342 -0.025936
C11   C     C_R   0.087434 0.008540 0.558839 -0.148813
C12   C     C_3   0.459470 0.792767 0.279874 1.034912
C13   C     C_R   0.614076 0.548329 0.298830 0.393030
C14   C     C_R   0.468001 0.487966 0.275938 0.032513
C15   C     C_R   0.431780 0.470724 0.203464 -0.173552
C16   C     C_3   0.950553 0.895690 0.178582 -0.197670
C17   C     C_R   0.538930 0.517261 0.155502 -0.034109
C18   C     C_R   0.681439 0.580907 0.179782 -0.097734
C19   C     C_R   0.724241 0.588828 0.251162 -0.159721
C20   C     C_R   0.392485 0.517537 0.038997 -0.097093
C21   C     C_R   0.392467 0.506622 0.966324 -0.052247
C22   C     C_R   0.525233 0.475398 0.933683 -0.105653
C23   C     C_3   0.585351 0.762451 0.641597 0.321406
C24   C     C_R   0.657541 0.455570 0.975034 0.555707
C25   C     C_R   0.647556 0.451654 0.046523 0.627081
C26   C     C_R   0.519670 0.489038 0.079690 -0.095883
C27   C     C_R   0.578586 0.362958 0.828443 -0.037945
C28   C     C_3   0.793118 0.316946 0.319939 0.740915
C29   C     C_R   0.579895 0.350081 0.755153 -0.020533
C30   C     C_R   0.430792 0.489758 0.741097 0.055098
C31   C     C_R   0.462893 0.522619 0.811357 -0.106262
C32   C     C_R   0.519463 0.452701 0.857416 0.026816
C33   C     C_R   0.457252 0.390503 0.720453 0.448556
C34   C     C_3   0.688662 0.863755 0.668911 0.417730
C35   C     C_3   0.819485 0.297605 0.242452 0.381801
C36   C     C_3   0.084200 0.696923 0.687534 0.664738
C37   C     C_3   0.029417 0.708766 0.763564 -0.282218
C38   C     C_3   0.244334 0.235374 0.384195 0.956342
C39   C     C_3   0.222928 0.118325 0.370376 0.688644
C40   C     C_2   0.686251 0.222631 0.206996 0.993725
C41   C     C_2   0.087506 0.581865 0.669173 0.776856
C42   C     C_2   0.144460 0.683541 0.820275 0.925202
C43   C     C_2   0.730398 0.876783 0.746807 0.902412
C44   C     C_2   0.439877 0.019851 0.837322 0.929268
C45   C     C_3   0.962424 0.211448 0.737970 1.327950
C46   C     C_2   0.919533 0.894391 0.307749 0.793076
C47   C     C_2   0.137961 0.958538 0.619140 0.851440
C48   C     C_2   0.290356 0.397478 0.177654 0.950072
C49   C     C_2   0.610534 0.276853 0.873006 1.039929
C50   C     C_2   0.784901 0.637917 0.129103 0.884599
C51   C     C_2   0.109918 0.963672 0.182546 0.878496
C52   C     C_3   0.049989 0.161603 0.795494 0.601664
C53   C     C_3   0.431738 0.108746 0.720413 0.870563
C54   C     C_3   0.394070 0.008018 0.760103 -0.121710
C55   C     C_R   0.059210 0.183917 0.528802 0.457592
F1    F     F_    0.336796 0.710294 0.273735 -0.692746
F2    F     F_    0.573118 0.155581 0.749545 -0.714268
F3    F     F_    0.117508 0.286896 0.534790 -0.648244
F4    F     F_    0.796490 0.438957 0.946217 -0.629371
F5    F     F_    0.770924 0.420895 0.084181 -0.624981
F6    F     F_    0.320598 0.326207 0.709695 -0.699070
F7    F     F_    0.654846 0.562520 0.367851 -0.717837
F8    F     F_    0.641427 0.339223 0.328362 -0.768595
F9    F     F_    0.961947 0.257698 0.235193 -0.715105
F10   F     F_    0.233638 0.750652 0.683639 -0.734466
F11   F     F_    0.343440 0.259685 0.442895 -0.660131
F12   F     F_    0.364484 0.086863 0.349654 -0.618183
F13   F     F_    0.622809 0.947779 0.645887 -0.656411
F14   F     F_    0.834321 0.141520 0.711859 -0.647816
F15   F     F_    0.060333 0.233458 0.683911 -0.720105
F16   F     F_    0.177601 0.230600 0.824150 -0.664613
H1    H     H_    0.828248 0.373362 0.216976 0.040359
H2    H     H_    0.664100 0.714166 0.613606 -0.088840
H3    H     H_    0.493423 0.780192 0.602496 0.094234
H4    H     H_    0.799904 0.868366 0.642589 0.007922
H5    H     H_    0.577105 0.903215 0.210855 0.093621
H6    H     H_    0.946423 0.843639 0.131020 0.102903
H7    H     H_    0.968087 0.138721 0.837330 0.098564
H8    H     H_    0.092867 0.090813 0.774621 -0.055518
H9    H     H_    0.336891 0.157447 0.728666 0.015163
H10   H     H_    0.267724 0.983249 0.756286 -0.104932
H11   H     H_    0.448892 0.943029 0.737037 0.157233
H12   H     H_    0.006232 0.788859 0.776764 0.028558
H13   H     H_    0.629607 0.049106 0.428690 0.157665
H14   H     H_    0.691012 0.738224 0.477082 0.065391
H15   H     H_    0.449587 0.600939 0.829418 0.161504
H16   H     H_    0.289424 0.522684 0.935723 0.201674
H17   H     H_    0.295226 0.549665 0.063165 0.173880
H18   H     H_    0.789576 0.789759 0.231932 -0.290571
H19   H     H_    0.856002 0.946657 0.171033 0.090488
H20   H     H_    0.880172 0.384678 0.339661 -0.008973
H21   H     H_    0.550283 0.082660 0.205682 0.325119
H22   H     H_    0.120479 0.441603 0.702652 0.369644
H23   H     H_    0.912329 0.659702 0.767513 0.125616
H24   H     H_    0.304438 0.809630 0.806526 0.304586
H25   H     H_    0.729237 0.817059 0.842085 0.334383
H26   H     H_    0.210952 0.004309 0.867318 0.288323
H27   H     H_    0.029261 0.931292 0.401134 0.291610
H28   H     H_    0.062296 0.909450 0.710363 0.321556
H29   H     H_    0.195661 0.248165 0.154324 0.374238
H30   H     H_    0.539635 0.188785 0.952876 0.359511
H31   H     H_    0.999783 0.662826 0.086439 0.322903
H32   H     H_    0.265637 0.062729 0.132865 0.338720
H33   H     H_    0.127007 0.261174 0.392560 -0.183444
H34   H     H_    0.373652 0.851659 0.183091 0.132205
H35   H     H_    0.127349 0.095877 0.329187 0.014722
H36   H     H_    0.189481 0.079788 0.418583 -0.184846
H37   H     H_    0.571204 0.764471 0.298815 -0.258641
H38   H     H_    0.528075 0.771704 0.173737 0.083041
O1    O     O_2   0.160820 0.763040 0.533820 -0.422427
O2    O     O_2   0.836284 0.467780 0.737704 -0.469408
O3    O     O_3   0.917390 0.303570 0.767661 -0.559706
O4    O     O_3   0.890970 0.628600 0.535400 -0.425294
O5    O     O_3   0.427530 0.446070 0.416950 -0.335186
O6    O     O_2   0.637430 0.550200 0.669460 -0.548831
O7    O     O_3   0.509284 0.711340 0.696214 -0.566925
O8    O     O_2   0.443915 0.126677 0.524607 -0.415166
O9    O     O_3   0.457072 0.088801 0.649172 -0.515360
O10   O     O_3   0.385950 0.698560 0.408070 -0.442507
O11   O     O_2   0.309370 0.884694 0.448657 -0.428745
O12   O     O_3   0.311892 0.281789 0.326516 -0.574732
O13   O     O_3   0.975743 0.745488 0.646458 -0.694985
O14   O     O_3   0.418898 0.872884 0.325212 -0.513970
O15   O     O_2   0.172860 0.449730 0.330520 -0.493466
O16   O     O_3   0.962080 0.644700 0.373110 -0.411205
O17   O     O_2   0.036574 0.559349 0.255159 -0.368799
O18   O     O_2   0.614707 0.247980 0.155345 -0.565797
O19   O     O_R   0.645070 0.124040 0.232809 -0.660519
O20   O     O_2   0.072083 0.546107 0.609463 -0.517831
O21   O     O_R   0.122617 0.516166 0.721256 -0.777509
O22   O     O_2   0.107213 0.608577 0.855193 -0.504147
O23   O     O_3   0.022444 0.755163 0.247696 -0.530147
O24   O     O_R   0.288414 0.747728 0.836700 -0.710162
O25   O     O_2   0.802501 0.959590 0.770483 -0.521513
O26   O     O_R   0.692674 0.796324 0.791910 -0.756365
O27   O     O_2   0.580214 0.028052 0.856830 -0.476332
O28   O     O_R   0.324625 0.016555 0.887555 -0.672556
O29   O     O_2   0.833229 0.962578 0.313820 -0.640832
O30   O     O_R   0.027546 0.878185 0.361432 -0.692590
O31   O     O_2   0.260639 0.918668 0.620661 -0.519603
O32   O     O_R   0.044507 0.963050 0.676224 -0.759209
O33   O     O_2   0.169253 0.430898 0.157088 -0.498982
O34   O     O_2   0.649470 0.236890 0.466160 -0.376143
O35   O     O_R   0.297148 0.290222 0.175590 -0.691823
O36   O     O_2   0.732797 0.237180 0.868199 -0.508280
O37   O     O_R   0.501605 0.243728 0.922776 -0.706182
O38   O     O_2   0.726487 0.693949 0.088458 -0.633706
O39   O     O_R   0.944576 0.622248 0.124445 -0.650171
O40   O     O_2   0.198925 0.968997 0.234576 -0.551099
O41   O     O_R   0.155453 0.021129 0.125253 -0.700524
O42   O     O_3   0.919320 0.371390 0.464540 -0.406900
O43   O     O_3   0.424350 0.301430 0.591880 -0.384749
O44   O     O_3   0.811689 0.226936 0.355000 -0.597159
O45   O     O_3   0.382770 0.553920 0.582990 -0.433306
O46   O     O_3   0.848220 0.355290 0.626830 -0.411297
P1    P     P_3+3 0.986780 0.745970 0.554690 1.075284
P2    P     P_3+3 0.341450 0.417130 0.341310 1.250335
P3    P     P_3+3 0.931657 0.639467 0.282476 1.164996
P4    P     P_3+3 0.823520 0.254020 0.445250 1.157891
P5    P     P_3+3 0.778461 0.353390 0.713772 1.163233
P6    P     P_3+3 0.441794 0.835544 0.411234 1.126546
P7    P     P_3+3 0.463036 0.579528 0.672427 1.001227
P8    P     P_3+3 0.361237 0.163405 0.589363 1.195106

loop_
_geom_bond_atom_site_label_1
_geom_bond_atom_site_label_2
_ccdc_geom_bond_type
C45   O3    S    
O23   P3    S    
C53   C54   S    
C39   H35   S    
C53   F2    S    
C17   C18   A    
C2    C6    A    
C6    P1    S    
C23   O7    S    
C35   H1    S    
C2    H14   S    
O15   P2    D    
O44   P4    S    
Ba2   O34   S    
C10   C11   A    
O7    P7    S    
C24   C25   A    
H21   O19   S    
C12   O14   S    
O1    P1    D    
C39   F12   S    
C41   O21   S    
C31   H15   S    
C22   C24   A    
C28   H20   S    
H27   O30   S    
Ba1   O1    S    
C36   C37   S    
O3    P5    S    
C13   C14   A    
O10   P6    S    
C47   O32   S    
C9    P4    S    
Ba1   Ba2   S    
H31   O39   S    
C35   C40   S    
C38   O12   S    
C7    C11   A    
C16   C51   S    
O2    P5    D    
Ba2   O5    S    
C1    H38   S    
C16   H6    S    
O13   P1    S    
O9    P8    S    
C51   O41   S    
C13   F7    S    
C21   H16   S    
O43   P8    S    
Ba1   O5    S    
C7    C8    A    
O8    P8    D    
C44   O27   D    
C48   O35   S    
C42   O24   S    
C29   P5    S    
Ba2   O43   S    
C20   C26   A    
C47   O31   D    
C14   P2    S    
H26   O28   S    
O14   P6    S    
C2    C5    A    
C4    C16   S    
Ba2   P4    S    
C45   F15   S    
Ba2   O6    S    
C34   F13   S    
H30   O37   S    
C54   H11   S    
C52   H7    S    
C53   O9    S    
O6    P7    D    
C12   F1    S    
C46   O29   D    
O4    P1    S    
C30   C33   A    
Ba1   P2    S    
Ba1   O15   S    
O5    P2    S    
C10   P8    S    
C3    C5    A    
C6    C7    A    
C55   F3    S    
H25   O26   S    
C1    H34   S    
C5    P6    S    
C27   C32   A    
C22   C32   S    
O11   P6    D    
C28   C35   S    
O42   P4    S    
C23   H2    S    
Ba1   O45   S    
C25   F5    S    
C52   F16   S    
Ba2   O4    S    
C50   O38   D    
C4    O23   S    
C49   O36   D    
C21   C22   A    
C35   F9    S    
C36   C41   S    
C43   O26   S    
C31   C32   A    
C20   H17   S    
C34   C43   S    
C40   O19   S    
C36   F10   S    
C53   H9    S    
Ba1   O42   S    
C17   C26   S    
C45   F14   S    
C1    C12   S    
C4    C46   S    
C45   C52   S    
C11   C47   S    
C10   C55   A    
C38   C39   S    
Ba2   O42   S    
C48   O33   D    
H22   O21   S    
C19   P3    S    
C29   C33   A    
C3    H13   S    
O17   P3    D    
C54   H10   S    
C38   H33   S    
C27   C49   S    
C42   O22   D    
C12   H37   S    
H32   O41   S    
C28   O44   S    
C43   O25   D    
Ba2   O45   S    
C24   F4    S    
Ba1   O16   S    
C15   C48   S    
C33   F6    S    
C37   C42   S    
C18   C50   S    
C34   H4    S    
C23   H3    S    
C16   H19   S    
C30   C31   A    
C41   O20   D    
C3    C8    A    
C27   C29   A    
H29   O35   S    
H28   O32   S    
Ba1   P1    S    
C14   C15   A    
O34   P4    D    
C49   O37   S    
Ba2   O46   S    
C30   P7    S    
C15   C17   A    
C46   O30   S    
C40   O18   D    
Ba1   O10   S    
C37   H23   S    
O12   P2    S    
C28   F8    S    
C8    C9    A    
C23   C34   S    
C13   C19   A    
C18   C19   A    
O45   P7    S    
H24   O24   S    
C50   O39   S    
C38   F11   S    
C44   C54   S    
C25   C26   A    
C51   O40   D    
C37   H12   S    
C20   C21   A    
C39   H36   S    
Ba1   O4    S    
C9    C55   A    
C1    H5    S    
O46   P5    S    
C52   H8    S    
C36   O13   S    
C4    H18   S    
C44   O28   S    
O16   P3    S    
