data_mof_unit_13678.cif
_audit_creation_date              2012-12-10T18:47:49-0500
_audit_creation_method            fapswitch 2.2
_symmetry_space_group_name_H-M    P1
_symmetry_Int_Tables_number       1
_space_group_crystal_system       triclinic
_cell_length_a                    9.98464
_cell_length_b                    10.678379
_cell_length_c                    15.591491
_cell_angle_alpha                 92.449377
_cell_angle_beta                  66.75778
_cell_angle_gamma                 89.463844
_cell_volume                      1525.4337112

loop_
_atom_site_label
_atom_site_type_symbol
_atom_type_description
_atom_site_fract_x
_atom_site_fract_y
_atom_site_fract_z
_atom_type_partial_charge
C1    C     C_R   0.499501 0.739637 0.500283 0.848222
C2    C     C_R   0.366451 0.939422 0.538399 -0.207782
C3    C     C_R   0.500049 0.127896 0.502355 -0.005798
C4    C     C_R   0.499186 0.872327 0.501019 -0.007523
C5    C     C_R   0.965497 0.415753 0.443475 0.172409
C6    C     C_R   0.037025 0.587247 0.555156 0.134445
C7    C     C_R   0.105553 0.410492 0.449095 0.229851
C8    C     C_R   0.894829 0.591003 0.551303 0.220106
C9    C     C_R   0.407788 0.498316 0.675778 0.852092
C10   C     C_R   0.591654 0.501847 0.324059 0.863158
C11   C     C_R   0.349585 0.506092 0.777689 -0.050252
C12   C     C_R   0.500137 0.260417 0.500545 0.859901
C13   C     C_R   0.647020 0.506711 0.222137 -0.054086
C14   C     C_R   0.173811 0.590513 0.925752 -0.226058
C15   C     C_R   0.834265 0.466188 0.067775 -0.219818
C16   C     C_R   0.211019 0.557410 0.831585 -0.220272
C17   C     C_R   0.791833 0.477224 0.164197 -0.217332
C18   C     C_R   0.445304 0.478522 0.819753 -0.274347
C19   C     C_R   0.547154 0.533989 0.182567 -0.266910
C20   C     C_R   0.416411 0.521223 0.911388 0.096695
C21   C     C_R   0.586912 0.525727 0.085895 0.094772
C22   C     C_R   0.276080 0.574136 0.965798 0.183815
C23   C     C_R   0.341636 0.597764 0.098481 -0.236545
C24   C     C_R   0.732512 0.488028 0.028321 0.182382
C25   C     C_R   0.523957 0.514298 0.949430 0.073081
C26   C     C_R   0.483540 0.546181 0.045783 0.069063
C27   C     C_3   0.036023 0.369982 0.277501 -0.835071
C28   C     C_3   0.970550 0.710311 0.706890 -0.854519
C29   C     C_3   0.161465 0.183547 0.412791 -0.760541
C30   C     C_3   0.684851 0.707718 0.673854 -0.638767
C31   C     C_R   0.671668 0.480862 0.893568 -0.240450
C32   C     C_R   0.240510 0.612053 0.058738 -0.246246
C33   C     C_R   0.774121 0.469759 0.932432 -0.245274
C34   C     C_R   0.632424 0.932420 0.465477 -0.182237
C35   C     C_R   0.366968 0.067938 0.539651 -0.200290
C36   C     C_R   0.632851 0.060821 0.466051 -0.203319
H1    H     H_    0.133811 0.653273 0.101085 0.149118
H2    H     H_    0.713147 0.465591 0.818779 0.138608
H3    H     H_    0.735564 0.880331 0.436202 0.154733
H4    H     H_    0.264034 0.120237 0.569616 0.163534
H5    H     H_    0.736128 0.107249 0.436931 0.152161
H6    H     H_    0.263262 0.892913 0.567372 0.166838
H7    H     H_    0.838037 0.332184 0.380553 0.283715
H8    H     H_    0.006221 0.311022 0.227681 0.235110
H9    H     H_    0.152260 0.348638 0.260826 0.250734
H10   H     H_    0.023623 0.470982 0.266935 0.240122
H11   H     H_    0.172207 0.659139 0.614820 0.299185
H12   H     H_    0.885837 0.443436 0.887339 0.151917
H13   H     H_    0.028759 0.729593 0.753522 0.224149
H14   H     H_    0.894697 0.633376 0.736430 0.255797
H15   H     H_    0.914640 0.800313 0.707557 0.259309
H16   H     H_    0.293802 0.331485 0.341142 0.232321
H17   H     H_    0.255736 0.120411 0.402976 0.241149
H18   H     H_    0.120043 0.155419 0.358666 0.249556
H19   H     H_    0.075727 0.171594 0.483575 0.232114
H20   H     H_    0.861257 0.785218 0.566912 0.214164
H21   H     H_    0.580673 0.722581 0.665849 0.243181
H22   H     H_    0.692098 0.789821 0.717552 0.189936
H23   H     H_    0.435965 0.554825 0.229097 0.156913
H24   H     H_    0.681483 0.621656 0.711787 0.228645
H25   H     H_    0.544593 0.426929 0.777916 0.152415
H26   H     H_    0.870287 0.458067 0.193268 0.162231
H27   H     H_    0.134058 0.575247 0.800418 0.158282
H28   H     H_    0.067344 0.633235 0.966293 0.147963
H29   H     H_    0.945279 0.436202 0.024376 0.151972
H30   H     H_    0.306393 0.632871 0.169996 0.147015
N1    N     N_R   0.142780 0.500030 0.500020 -0.168478
N2    N     N_R   0.857220 0.499970 0.499980 -0.155750
N3    N     N_2   0.944051 0.340813 0.372411 -0.298377
N4    N     N_2   0.073629 0.677316 0.612754 -0.301363
N5    N     N_2   0.209003 0.311771 0.402613 -0.251016
N6    N     N_2   0.805633 0.702797 0.582948 -0.257768
O1    O     O_R   0.385370 0.683250 0.500010 -0.641840
O2    O     O_R   0.614630 0.316750 0.499990 -0.645739
O3    O     O_R   0.614700 0.683220 0.500000 -0.594144
O4    O     O_R   0.385300 0.316780 0.500000 -0.589365
O5    O     O_R   0.319830 0.500020 0.632250 -0.632807
O6    O     O_R   0.680170 0.499980 0.367750 -0.620287
O7    O     O_R   0.549160 0.499990 0.632240 -0.605376
O8    O     O_R   0.450840 0.500010 0.367760 -0.623022
Zn1   Zn    Zn3+2 0.346870 0.500020 0.500000 0.931808
Zn2   Zn    Zn3+2 0.653130 0.499980 0.500000 0.934085

loop_
_geom_bond_atom_site_label_1
_geom_bond_atom_site_label_2
_ccdc_geom_bond_type
C2    C35   A    
C25   C31   A    
C21   C26   A    
C11   C18   A    
C12   O2    A    
C10   O6    A    
C22   C32   A    
C23   H30   S    
C19   C21   A    
C7    N5    S    
C28   H15   S    
C29   H18   S    
C15   H29   S    
C30   H21   S    
C6    N4    S    
C9    O7    A    
C23   C26   A    
C5    N3    S    
C3    C12   S    
C28   H14   S    
C27   H8    S    
H20   N6    S    
C30   H24   S    
C31   C33   A    
C16   H27   S    
C3    C35   A    
C18   C20   A    
C27   N3    S    
C27   H9    S    
H7    N3    S    
C36   H5    S    
O2    Zn2   S    
C5    N2    A    
O1    Zn1   S    
C4    C34   A    
C8    N6    S    
C13   C19   A    
C34   H3    S    
C1    O3    A    
C5    C7    A    
C10   O8    A    
C6    C8    A    
C29   H19   S    
C19   H23   S    
C25   C26   A    
C2    C4    A    
H11   N4    S    
C17   H26   S    
C28   H13   S    
O6    Zn2   S    
O5    Zn1   S    
C14   H28   S    
C18   H25   S    
C9    O5    A    
C32   H1    S    
C9    C11   S    
C27   H10   S    
C6    N1    A    
C20   C22   A    
N1    Zn1   S    
C12   O4    A    
C14   C16   A    
C15   C17   A    
C15   C24   A    
C28   N4    S    
O8    Zn1   S    
C10   C13   S    
O4    Zn1   S    
O7    Zn2   S    
C30   N6    S    
O3    Zn2   S    
C8    N2    A    
C24   C33   A    
C31   H2    S    
C13   C17   A    
C1    C4    S    
C1    O1    A    
C23   C32   A    
C14   C22   A    
C35   H4    S    
N2    Zn2   S    
H16   N5    S    
C29   H17   S    
C3    C36   A    
C2    H6    S    
C30   H22   S    
C34   C36   A    
C11   C16   A    
C7    N1    A    
C20   C25   A    
C21   C24   A    
C33   H12   S    
C29   N5    S    
