data_mof_unit_67834.cif
_audit_creation_date              2012-12-10T16:55:43-0500
_audit_creation_method            fapswitch 2.2
_symmetry_space_group_name_H-M    P1
_symmetry_Int_Tables_number       1
_space_group_crystal_system       triclinic
_cell_length_a                    7.936048
_cell_length_b                    8.697411
_cell_length_c                    10.506058
_cell_angle_alpha                 91.940038
_cell_angle_beta                  85.335203
_cell_angle_gamma                 93.157391
_cell_volume                      721.346743523

loop_
_atom_site_label
_atom_site_type_symbol
_atom_type_description
_atom_site_fract_x
_atom_site_fract_y
_atom_site_fract_z
_atom_type_partial_charge
C1    C     C_R   0.544230 0.793277 0.496999 0.915612
C2    C     C_3   0.505996 0.514085 0.877001 -0.289955
C3    C     C_3   0.337738 0.472078 0.046868 0.361131
C4    C     C_3   0.662915 0.525684 0.953592 0.336239
C5    C     C_2   0.565392 0.954691 0.481665 -0.069632
C6    C     C_2   0.434717 0.045295 0.518810 -0.065100
C7    C     C_R   0.455780 0.206710 0.503195 0.914488
C8    C     C_R   0.502840 0.509642 0.741544 1.003302
C9    C     C_R   0.497029 0.489300 0.258696 0.992996
C10   C     C_3   0.405532 0.617444 0.973394 0.268392
C11   C     C_3   0.594308 0.379540 0.027554 0.291054
C12   C     C_3   0.561223 0.626487 0.051151 -0.129074
C13   C     C_3   0.439107 0.371153 0.949298 -0.098094
C14   C     C_3   0.494082 0.483643 0.123509 -0.326731
H1    H     H_    0.009727 0.372224 0.412709 0.252688
H2    H     H_    0.900863 0.839053 0.805393 0.400603
H3    H     H_    0.738557 0.955026 0.327760 0.234870
H4    H     H_    0.821699 0.988232 0.470263 0.205893
H5    H     H_    0.178365 0.011729 0.530707 0.204664
H6    H     H_    0.261999 0.044804 0.673039 0.232131
H7    H     H_    0.990522 0.628948 0.586087 0.249571
H8    H     H_    0.669412 0.843527 0.050171 0.308089
H9    H     H_    0.529969 0.808343 0.176221 0.201185
H10   H     H_    0.330135 0.153444 0.949853 0.338130
H11   H     H_    0.472034 0.188956 0.824825 0.226896
H12   H     H_    0.222581 0.812591 0.124804 0.359575
H13   H     H_    0.850614 0.051295 0.983261 0.409890
H14   H     H_    0.942050 0.357152 0.991228 0.424919
N1    N     N_2   0.950320 0.457950 0.465730 -0.133647
N2    N     N_2   0.049680 0.542050 0.534270 -0.133827
N3    N     N_3   0.629310 0.762589 0.118258 -0.356912
N4    N     N_3   0.371923 0.234626 0.882046 -0.339823
N5    N     N_3   0.721775 0.012729 0.416438 -0.367034
N6    N     N_3   0.278508 0.987227 0.584299 -0.381008
O1    O     O_R   0.389250 0.738570 0.508410 -0.595045
O2    O     O_2   0.211701 0.763401 0.820392 -0.228382
O3    O     O_3   0.218418 0.881175 0.051919 -0.463595
O4    O     O_2   0.785729 0.227538 0.179529 -0.248315
O5    O     O_2   0.515163 0.103917 0.130598 -0.295022
O6    O     O_3   0.759322 0.107425 0.949562 -0.533980
O7    O     O_2   0.174252 0.268421 0.205088 -0.260082
O8    O     O_2   0.037081 0.510429 0.180873 -0.281164
O9    O     O_3   0.047461 0.304365 0.991524 -0.473908
O10   O     O_2   0.957213 0.672364 0.990323 -0.229903
O11   O     O_2   0.953256 0.496679 0.801655 -0.272557
O12   O     O_R   0.610750 0.261430 0.491590 -0.587320
O13   O     O_3   0.810417 0.757951 0.794187 -0.548343
O14   O     O_R   0.678390 0.711620 0.486450 -0.637468
O15   O     O_R   0.321610 0.288380 0.513550 -0.637754
O16   O     O_R   0.355460 0.513510 0.697030 -0.552667
O17   O     O_R   0.644540 0.486490 0.302970 -0.549979
O18   O     O_R   0.644600 0.486560 0.675070 -0.584970
O19   O     O_R   0.355400 0.513440 0.324930 -0.610409
O20   O     O_2   0.471666 0.897056 0.879134 -0.281353
S1    S     S_3+6 0.324512 0.793364 0.927175 0.081347
S2    S     S_3+6 0.665360 0.200363 0.076973 0.028498
S3    S     S_3+6 0.142670 0.390072 0.112901 0.103816
S4    S     S_3+6 0.855834 0.611159 0.883929 0.065849
Zn1   Zn    Zn3+2 0.306940 0.517990 0.514670 1.069886
Zn2   Zn    Zn3+2 0.693060 0.482010 0.485330 1.081338

loop_
_geom_bond_atom_site_label_1
_geom_bond_atom_site_label_2
_ccdc_geom_bond_type
C2    C4    S    
C9    C14   S    
H10   N4    S    
H12   O3    S    
O14   Zn2   S    
C6    C7    S    
C4    C12   S    
H7    N2    S    
C8    O18   A    
H14   O9    S    
O5    S2    D    
C3    C13   S    
N1    Zn2   S    
H13   O6    S    
H6    N6    S    
N2    Zn1   S    
H11   N4    S    
O19   Zn1   S    
O7    S3    D    
C1    O14   A    
O2    S1    D    
C4    C11   S    
C10   S1    S    
C11   C13   S    
C1    O1    A    
N1    N2    D    
C3    C14   S    
H3    N5    S    
C1    C5    S    
O16   Zn1   S    
C3    S3    S    
O8    S3    D    
H4    N5    S    
C12   C14   S    
H1    N1    S    
C10   C12   S    
C12   N3    S    
C5    C6    D    
C11   C14   S    
O11   S4    D    
O13   S4    S    
C9    O19   A    
H8    N3    S    
O9    S3    S    
H9    N3    S    
O3    S1    S    
C7    O12   A    
C8    O16   A    
O4    S2    D    
C7    O15   A    
O1    Zn1   S    
O15   Zn1   S    
C4    S4    S    
C3    C10   S    
C2    C13   S    
H2    O13   S    
O20   S1    D    
C9    O17   A    
O17   Zn2   S    
O18   Zn2   S    
O12   Zn2   S    
C13   N4    S    
C2    C10   S    
C2    C8    S    
C11   S2    S    
C6    N6    S    
O10   S4    D    
O6    S2    S    
H5    N6    S    
C5    N5    S    
