data_mof_unit_62647.cif
_audit_creation_date              2012-12-11T14:24:07-0500
_audit_creation_method            fapswitch 2.2
_symmetry_space_group_name_H-M    P1
_symmetry_Int_Tables_number       1
_space_group_crystal_system       triclinic
_cell_length_a                    6.952354
_cell_length_b                    17.442983
_cell_length_c                    18.857543
_cell_angle_alpha                 105.473117
_cell_angle_beta                  89.787753
_cell_angle_gamma                 90.518552
_cell_volume                      2203.87288137

loop_
_atom_site_label
_atom_site_type_symbol
_atom_type_description
_atom_site_fract_x
_atom_site_fract_y
_atom_site_fract_z
_atom_type_partial_charge
O1    O     O_R   0.494360 0.416740 0.414860 -0.542611
O2    O     O_R   0.818980 0.432970 0.557290 -0.527762
O3    O     O_R   0.994290 0.583260 0.585140 -0.539837
C1    C     C_R   0.650016 0.416042 0.580698 0.743198
O4    O     O_R   0.823740 0.407570 0.413690 -0.539895
O5    O     O_R   0.999090 0.557670 0.440510 -0.526530
C2    C     C_R   0.654320 0.384991 0.386520 0.733610
O6    O     O_R   0.489560 0.442330 0.559490 -0.505854
O7    O     O_3   0.662450 0.549280 0.508970 -0.367271
V1    V     V_3+5 0.935350 0.490860 0.498340 1.433474
O8    O     O_R   0.329100 0.567030 0.442710 -0.529634
C3    C     C_R   0.160933 0.584049 0.419375 0.698853
O9    O     O_R   0.324330 0.592430 0.586310 -0.526137
C4    C     C_R   0.155825 0.614028 0.614217 0.829181
V2    V     V_3+5 0.435960 0.509140 0.501660 1.450658
O10   O     O_3   0.158990 0.450720 0.491030 -0.362755
C5    C     C_2   0.270771 0.760877 0.804407 -0.062289
C6    C     C_2   0.114560 0.808247 0.826227 -0.329775
H1    H     H_    0.977994 0.789735 0.799022 0.122397
C7    C     C_2   0.259398 0.685858 0.742077 -0.055013
C8    C     C_2   0.148355 0.681218 0.681701 -0.331097
H2    H     H_    0.056082 0.730369 0.679535 0.101164
C9    C     C_1   0.110763 0.863859 0.132585 -0.190693
C10   C     C_1   0.118339 0.821275 0.176133 0.009803
C11   C     C_1   0.127837 0.771060 0.228022 0.005004
C12   C     C_1   0.135951 0.728785 0.271830 0.002474
C13   C     C_1   0.145441 0.678586 0.323734 0.000790
C14   C     C_1   0.153001 0.636030 0.367308 -0.209590
C15   C     C_1   0.641364 0.364194 0.632806 -0.173809
C16   C     C_1   0.636936 0.321646 0.676409 0.017612
C17   C     C_1   0.633199 0.271401 0.728294 0.007832
C18   C     C_1   0.630378 0.229048 0.772079 0.004466
C19   C     C_1   0.626675 0.178749 0.823920 0.001719
C20   C     C_1   0.622302 0.136107 0.867445 -0.212014
C21   C     C_2   0.778718 0.211718 0.215431 -0.129476
C22   C     C_2   0.614155 0.182907 0.180197 -0.308567
H3    H     H_    0.914411 0.184745 0.193877 0.134932
H4    H     H_    0.476833 0.208952 0.199929 0.127937
C23   C     C_2   0.790551 0.279689 0.282963 -0.131988
C24   C     C_2   0.637353 0.317472 0.319949 -0.307268
H5    H     H_    0.934182 0.298758 0.302943 0.134527
H6    H     H_    0.492477 0.299367 0.301708 0.128787
O11   O     O_R   0.774180 0.057760 0.940580 -0.526439
O12   O     O_R   0.439830 0.092440 0.086330 -0.545548
O13   O     O_R   0.264640 0.942310 0.059470 -0.514681
C25   C     C_R   0.608665 0.115070 0.113542 0.734707
O14   O     O_R   0.444740 0.067040 0.942730 -0.529896
O15   O     O_R   0.269590 0.916730 0.914840 -0.513745
C26   C     C_R   0.613706 0.084101 0.919425 0.705471
O16   O     O_R   0.769230 0.083340 0.085210 -0.539253
O17   O     O_3   0.601340 0.950770 0.991070 -0.334380
V3    V     V_3+5 0.328370 0.009130 0.001660 1.454109
O18   O     O_R   0.939550 0.907490 0.913620 -0.541876
C27   C     C_R   0.108932 0.882102 0.888515 0.779457
O19   O     O_R   0.934640 0.932890 0.057220 -0.525353
C28   C     C_R   0.102809 0.915884 0.080566 0.728348
V4    V     V_3+5 0.827780 0.990750 0.998250 1.454053
O20   O     O_3   0.104690 0.049230 0.008930 -0.372859
C29   C     C_2   0.456814 0.776994 0.844303 0.411637
H7    H     H_    0.589637 0.774502 0.813396 -0.000580
O21   O     O_2   0.464131 0.786574 0.910786 -0.510430
C30   C     C_2   0.373179 0.616070 0.749888 0.395045
H8    H     H_    0.494724 0.624721 0.787117 0.044744
O22   O     O_2   0.327308 0.547904 0.717884 -0.531080

loop_
_geom_bond_atom_site_label_1
_geom_bond_atom_site_label_2
_ccdc_geom_bond_type
O5    V1    S    
O14   V3    S    
O2    C1    A    
O8    C3    A    
C22   C25   S    
C15   C16   T    
O17   V4    S    
O7    V1    S    
C25   O16   A    
C21   C23   S    
C1    C15   S    
O9    V2    S    
C1    O6    A    
O19   C28   A    
C11   C12   T    
C18   C19   S    
O12   V3    S    
C24   H6    S    
C5    C6    D    
O7    V2    S    
C29   H7    S    
O14   C26   A    
O3    V1    S    
V1    O10   S    
O9    C4    A    
C10   C11   S    
O15   C27   A    
O16   V4    S    
C9    C28   S    
V4    O20   S    
C30   H8    S    
O3    C4    A    
V3    O20   S    
C3    C14   S    
O1    V2    S    
C4    C8    S    
O4    V1    S    
C21   H3    S    
C5    C29   S    
C19   C20   T    
O6    V2    S    
O19   V4    S    
C7    C30   S    
C16   C17   S    
C29   O21   D    
V2    O10   S    
O11   V4    S    
C9    C10   T    
C30   O22   D    
C22   H4    S    
O2    V1    S    
O5    C3    A    
O15   V3    S    
C5    C7    S    
O17   V3    S    
C7    C8    D    
O13   C28   A    
C23   H5    S    
C6    H1    S    
C13   C14   T    
O4    C2    A    
C6    C27   S    
C23   C24   D    
O11   C26   A    
C12   C13   S    
O18   V4    S    
O13   V3    S    
C8    H2    S    
O1    C2    A    
C2    C24   S    
O8    V2    S    
C17   C18   T    
C21   C22   D    
O18   C27   A    
O12   C25   A    
C20   C26   S    
