data_mof_unit_20042.cif
_audit_creation_date              2013-03-05T16:01:27-0500
_audit_creation_method            fapswitch 2.2
_symmetry_space_group_name_H-M    P1
_symmetry_Int_Tables_number       1
_space_group_crystal_system       triclinic
_cell_length_a                    14.759841
_cell_length_b                    14.821951
_cell_length_c                    19.37301
_cell_angle_alpha                 74.389981
_cell_angle_beta                  101.972308
_cell_angle_gamma                 114.83523
_cell_volume                      3682.72728661

loop_
_atom_site_label
_atom_site_type_symbol
_atom_site_description
_atom_site_fract_x
_atom_site_fract_y
_atom_site_fract_z
_atom_type_partial_charge
O1    O     O_R   0.977910 0.338110 0.524620 -0.548633
O2    O     O_R   0.022090 0.661890 0.475380 -0.575855
O3    O     O_R   0.839850 0.379180 0.493080 -0.546191
O4    O     O_R   0.160150 0.620820 0.506920 -0.468320
C1    C     C_R   0.880862 0.312154 0.507112 0.811678
C2    C     C_R   0.119187 0.688269 0.490476 0.813131
O5    O     O_R   0.069040 0.479450 0.615630 -0.552378
O6    O     O_R   0.930960 0.520550 0.384370 -0.549126
O7    O     O_R   0.930990 0.520520 0.584090 -0.487106
O8    O     O_R   0.069010 0.479480 0.415910 -0.532757
C3    C     C_R   0.004190 0.506868 0.631755 0.833309
C4    C     C_R   0.995012 0.491663 0.368203 0.839439
Cu1   Cu    Cu3+1 0.081740 0.475680 0.518680 1.053067
Cu2   Cu    Cu3+1 0.918260 0.524320 0.481320 1.040274
C5    C     C_R   0.105300 0.543802 0.752451 -0.113672
C6    C     C_R   0.914740 0.496369 0.235942 -0.070610
C7    C     C_R   0.105105 0.540667 0.825722 0.579984
C8    C     C_R   0.930075 0.508056 0.164355 0.573166
C9    C     C_R   0.016158 0.519445 0.853615 -0.182751
C10   C     C_R   0.006039 0.486340 0.149033 -0.179025
C11   C     C_R   0.926777 0.507807 0.806511 -0.093355
C12   C     C_R   0.064139 0.446188 0.205471 -0.068110
C13   C     C_R   0.926383 0.507176 0.734354 0.567841
C14   C     C_R   0.054576 0.442206 0.277007 0.515694
C15   C     C_R   0.012697 0.519423 0.707022 -0.270294
C16   C     C_R   0.987624 0.477641 0.292913 -0.281050
N1    N     N_R   0.941900 0.432503 0.967485 -0.259637
N2    N     N_R   0.090074 0.567208 0.038579 -0.233742
N3    N     N_R   0.939152 0.424920 0.036967 -0.208756
N4    N     N_R   0.092291 0.575222 0.968727 -0.156184
C17   C     C_R   0.012934 0.492327 0.073513 0.518587
C18   C     C_R   0.017449 0.508607 0.931726 0.479332
C19   C     C_R   0.812948 0.203551 0.506172 -0.258602
C20   C     C_R   0.185634 0.798277 0.481163 -0.279475
C21   C     C_R   0.773029 0.021691 0.546717 0.125241
C22   C     C_R   0.213063 0.974515 0.425371 0.144682
C23   C     C_R   0.845815 0.121767 0.530067 0.001476
C24   C     C_R   0.147350 0.875748 0.454429 -0.006264
C25   C     C_R   0.710801 0.182326 0.481131 0.608886
C26   C     C_R   0.290155 0.825720 0.493748 0.666257
C27   C     C_R   0.636926 0.082585 0.491824 -0.080319
C28   C     C_R   0.357520 0.926661 0.470927 -0.103561
C29   C     C_R   0.671373 0.001962 0.518389 -0.212315
C30   C     C_R   0.317830 0.002355 0.443036 -0.186872
C31   C     C_R   0.530204 0.058737 0.475326 -0.196057
C32   C     C_R   0.463732 0.955003 0.478789 -0.215913
C33   C     C_R   0.505287 0.882988 0.485567 0.674874
C34   C     C_R   0.485395 0.131469 0.459400 0.600441
C35   C     C_R   0.606089 0.904559 0.507480 0.490719
C36   C     C_R   0.382412 0.103902 0.441624 0.483907
N5    N     N_R   0.795420 0.560800 0.453240 -0.311744
N6    N     N_R   0.204580 0.439200 0.546760 -0.307368
C37   C     C_R   0.679729 0.587418 0.353736 0.414861
C38   C     C_R   0.264576 0.314761 0.618869 0.395626
C39   C     C_R   0.776641 0.600008 0.382886 0.579119
C40   C     C_R   0.191756 0.354645 0.598389 0.597859
C41   C     C_R   0.725944 0.533089 0.499934 0.652953
C42   C     C_R   0.291764 0.490352 0.515471 0.642993
C43   C     C_R   0.622277 0.508071 0.473907 -0.154297
C44   C     C_R   0.367515 0.449302 0.528972 -0.205875
C45   C     C_R   0.601214 0.533025 0.397921 -0.171742
C46   C     C_R   0.356242 0.363007 0.586531 -0.188333
C47   C     C_R   0.537828 0.462263 0.517040 0.122193
C48   C     C_R   0.450026 0.485570 0.486174 0.114532
C49   C     C_R   0.440409 0.523781 0.409226 0.030002
C50   C     C_R   0.531174 0.386626 0.583194 0.077257
C51   C     C_R   0.502340 0.513759 0.368574 0.153431
C52   C     C_R   0.436380 0.328741 0.611210 0.140850
C53   C     C_3   0.206404 0.581774 0.724349 -0.286587
C54   C     C_3   0.248664 0.498544 0.743275 -0.296119
C55   C     C_3   0.347292 0.535420 0.711130 -0.788418
H1    H     H_    0.336325 0.559931 0.651663 0.289693
H2    H     H_    0.405090 0.600232 0.734140 0.265437
H3    H     H_    0.374589 0.472838 0.723837 0.225224
H4    H     H_    0.262312 0.475517 0.802745 0.257098
H5    H     H_    0.193672 0.430576 0.722670 0.269134
H6    H     H_    0.202130 0.612917 0.665453 0.214871
H7    H     H_    0.260175 0.647411 0.748491 0.224758
C56   C     C_3   0.811065 0.482500 0.248219 -0.283046
C57   C     C_3   0.747277 0.369683 0.273188 -0.388210
C58   C     C_3   0.640732 0.353364 0.282025 -0.678791
H8    H     H_    0.642115 0.391809 0.324336 0.278800
H9    H     H_    0.604308 0.383823 0.230345 0.224052
H10   H     H_    0.595513 0.270885 0.298134 0.265393
H11   H     H_    0.743171 0.326872 0.232716 0.225292
H12   H     H_    0.782862 0.339060 0.325240 0.256880
H13   H     H_    0.814112 0.525843 0.286409 0.270181
H14   H     H_    0.771334 0.512429 0.198102 0.260375
C59   C     C_3   0.463776 0.487489 0.294593 -0.358335
C60   C     C_3   0.384733 0.378900 0.302099 -0.356298
C61   C     C_3   0.354345 0.344642 0.230342 -0.872932
H15   H     H_    0.330715 0.400090 0.187819 0.263723
H16   H     H_    0.418217 0.337531 0.213604 0.261508
H17   H     H_    0.291252 0.269335 0.236439 0.252468
H18   H     H_    0.416562 0.326792 0.341170 0.302251
H19   H     H_    0.317536 0.373582 0.322854 0.242075
H20   H     H_    0.432799 0.542192 0.258446 0.203512
H21   H     H_    0.524586 0.489441 0.268237 0.254429
C62   C     C_3   0.420629 0.228824 0.666855 -0.295042
C63   C     C_3   0.429745 0.241528 0.744937 -0.314358
C64   C     C_3   0.391414 0.138618 0.796260 -0.761838
H22   H     H_    0.310545 0.096049 0.780693 0.290284
H23   H     H_    0.434782 0.093324 0.795218 0.238328
H24   H     H_    0.400585 0.150012 0.852049 0.236498
H25   H     H_    0.508929 0.283236 0.764164 0.187176
H26   H     H_    0.388128 0.286978 0.748768 0.262840
H27   H     H_    0.348249 0.168911 0.651697 0.253972
H28   H     H_    0.473260 0.194535 0.664666 0.158431
F1    F     F_    0.310354 0.587464 0.482760 -0.600064
F2    F     F_    0.761805 0.563680 0.563160 -0.618985
F3    F     F_    0.108747 0.310772 0.633804 -0.639645
F4    F     F_    0.853446 0.656813 0.341865 -0.655994
F5    F     F_    0.664366 0.634140 0.284277 -0.644864
F6    F     F_    0.240897 0.228534 0.670306 -0.661735
C65   C     C_3   0.408653 0.611948 0.372615 -0.320365
C66   C     C_3   0.300180 0.579677 0.337021 -0.286082
C67   C     C_3   0.268660 0.670228 0.311337 -0.727530
H29   H     H_    0.271034 0.702107 0.357732 0.299253
H30   H     H_    0.319329 0.730342 0.272443 0.238300
H31   H     H_    0.190920 0.645892 0.284018 0.219311
H32   H     H_    0.292468 0.546765 0.290020 0.200680
H33   H     H_    0.249001 0.520752 0.375275 0.300584
H34   H     H_    0.427455 0.663101 0.409671 0.327533
H35   H     H_    0.457133 0.663049 0.329256 0.188867
C68   C     C_3   0.620759 0.363539 0.626276 -0.411917
C69   C     C_3   0.650913 0.295379 0.596690 -0.249292
C70   C     C_3   0.733311 0.266806 0.647400 -0.808118
H36   H     H_    0.804788 0.334174 0.647811 0.293002
H37   H     H_    0.711537 0.234599 0.703113 0.238876
H38   H     H_    0.745398 0.208334 0.629176 0.220949
H39   H     H_    0.585207 0.223967 0.591440 0.241677
H40   H     H_    0.677097 0.333994 0.543005 0.292874
H41   H     H_    0.682224 0.432144 0.636339 0.325195
H42   H     H_    0.607385 0.327632 0.682739 0.172178
F7    F     F_    0.192397 0.558090 0.870237 -0.661729
F8    F     F_    0.866549 0.534317 0.108755 -0.658815
C71   C     C_3   0.831674 0.500816 0.830133 -0.284806
C72   C     C_3   0.754126 0.390963 0.842452 -0.320626
C73   C     C_3   0.663210 0.382432 0.873434 -0.834505
H43   H     H_    0.686705 0.407852 0.925624 0.284772
H44   H     H_    0.625053 0.429574 0.835113 0.251666
H45   H     H_    0.609325 0.302053 0.883015 0.242288
H46   H     H_    0.728606 0.364464 0.790683 0.235062
H47   H     H_    0.788276 0.339928 0.880361 0.240776
H48   H     H_    0.848348 0.532153 0.879377 0.206713
H49   H     H_    0.798651 0.549606 0.788133 0.228560
C74   C     C_3   0.130510 0.401051 0.189560 -0.344299
C75   C     C_3   0.067169 0.297180 0.168584 -0.341066
C76   C     C_3   0.105792 0.284102 0.106110 -0.814319
H50   H     H_    0.101295 0.342680 0.057269 0.278478
H51   H     H_    0.184688 0.290613 0.120214 0.251976
H52   H     H_    0.058910 0.207996 0.093550 0.251043
H53   H     H_    0.068288 0.235874 0.216261 0.217052
H54   H     H_    0.987158 0.286773 0.152459 0.236635
H55   H     H_    0.177398 0.455742 0.146536 0.207234
H56   H     H_    0.184153 0.390539 0.237183 0.225535
F9    F     F_    0.840600 0.496127 0.690328 -0.657660
F10   F     F_    0.104428 0.395647 0.331272 -0.720860
F11   F     F_    0.641431 0.832938 0.508538 -0.647284
F12   F     F_    0.344988 0.175375 0.435988 -0.688888
F13   F     F_    0.325107 0.757231 0.539463 -0.603307
F14   F     F_    0.688865 0.258115 0.434430 -0.653458
C77   C     C_3   0.049884 0.865102 0.477289 -0.378025
C78   C     C_3   0.958438 0.837321 0.420423 -0.246787
C79   C     C_3   0.892628 0.896200 0.414455 -0.827332
H57   H     H_    0.868960 0.885359 0.467842 0.271821
H58   H     H_    0.933844 0.978157 0.393578 0.233238
H59   H     H_    0.824398 0.868082 0.376510 0.279028
H60   H     H_    0.980759 0.849012 0.366502 0.254187
H61   H     H_    0.911354 0.756370 0.437448 0.272278
H62   H     H_    0.032882 0.807771 0.528420 0.197858
H63   H     H_    0.062241 0.937251 0.492051 0.191897
C80   C     C_3   0.954504 0.137607 0.528298 -0.364542
C81   C     C_3   0.984984 0.179171 0.451130 -0.350822
C82   C     C_3   0.092909 0.192644 0.449018 -0.694644
H64   H     H_    0.146250 0.253024 0.478001 0.251535
H65   H     H_    0.103700 0.120678 0.474188 0.231863
H66   H     H_    0.109927 0.214879 0.392213 0.265948
H67   H     H_    0.933675 0.125531 0.416295 0.208270
H68   H     H_    0.978046 0.253281 0.427890 0.257203
H69   H     H_    0.005662 0.186561 0.565405 0.275776
H70   H     H_    0.966478 0.065739 0.547721 0.190296
C83   C     C_3   0.801431 0.938808 0.601097 -0.325680
C84   C     C_3   0.851766 0.971252 0.673258 -0.408435
C85   C     C_3   0.877471 0.886851 0.727189 -0.776440
H71   H     H_    0.808315 0.817592 0.738332 0.256386
H72   H     H_    0.930245 0.868141 0.705725 0.258559
H73   H     H_    0.913765 0.912385 0.778591 0.254354
H74   H     H_    0.922036 0.039962 0.665844 0.250798
H75   H     H_    0.799941 0.989484 0.696268 0.229869
H76   H     H_    0.733959 0.869229 0.615088 0.257695
H77   H     H_    0.849857 0.916349 0.578208 0.201778
C86   C     C_3   0.171636 0.036494 0.360874 -0.361335
C87   C     C_3   0.158547 0.994903 0.293210 -0.374317
C88   C     C_3   0.102116 0.042570 0.229408 -0.831057
H78   H     H_    0.027626 0.029967 0.243017 0.262754
H79   H     H_    0.146651 0.125002 0.214217 0.250899
H80   H     H_    0.090619 0.007827 0.182543 0.261585
H81   H     H_    0.233747 0.011175 0.278714 0.225231
H82   H     H_    0.116932 0.911227 0.303464 0.236700
H83   H     H_    0.099229 0.033825 0.370605 0.201522
H84   H     H_    0.221111 0.117844 0.349339 0.250293
F15   F     F_    0.450449 0.794056 0.464072 -0.599098
F16   F     F_    0.536293 0.229195 0.465551 -0.644043

loop_
_geom_bond_atom_site_label_1
_geom_bond_atom_site_label_2
_geom_bond_distance
_ccdc_geom_bond_type
C68   H42   1.098524 S    
C50   C52   1.429814 A    
C64   H22   1.110954 S    
C39   F4    1.355536 S    
N1    N3    1.328007 A    
C42   F1    1.340962 S    
C27   C29   1.422040 A    
C78   H61   1.101393 S    
C77   C78   1.537977 S    
C11   C71   1.519641 S    
C83   C84   1.538940 S    
C83   H77   1.108653 S    
C85   H72   1.111054 S    
C56   H13   1.086201 S    
C58   H8    1.109816 S    
C78   H60   1.107780 S    
C60   H18   1.110303 S    
C82   H65   1.109736 S    
C80   C81   1.538657 S    
C84   C85   1.526886 S    
O5    C3    1.303104 A    
C62   H28   1.104750 S    
C63   H25   1.106008 S    
C79   H57   1.109463 S    
C75   H54   1.111709 S    
O1    C1    1.311718 A    
C12   C14   1.405061 A    
C71   H48   1.109733 S    
C78   C79   1.526319 S    
C9    C11   1.413146 A    
C14   C16   1.413069 A    
C72   H46   1.110407 S    
C67   H30   1.110709 S    
C73   H45   1.110245 S    
C14   F10   1.355732 S    
C5    C15   1.424966 A    
C3    C15   1.492318 S    
C21   C83   1.532200 S    
C65   C66   1.530947 S    
C21   C29   1.419205 A    
C51   C59   1.518362 S    
C86   H83   1.106030 S    
C66   C67   1.527886 S    
C44   C46   1.427484 A    
C28   C32   1.428093 A    
O4    Cu1   1.942534 S    
C22   C86   1.521906 S    
C57   H12   1.110397 S    
C81   C82   1.527897 S    
C53   H6    1.109072 S    
C87   H82   1.110432 S    
C85   H71   1.110973 S    
C74   C75   1.542557 S    
C49   C51   1.397693 A    
C1    C19   1.499686 S    
C7    F7    1.360080 S    
N6    C42   1.361951 A    
C8    F8    1.361197 S    
C54   C55   1.526523 S    
N5    C41   1.367346 A    
C74   H55   1.111417 S    
C13   F9    1.345500 S    
C40   F3    1.354289 S    
N5    C39   1.350744 A    
C88   H80   1.110229 S    
C34   C36   1.390271 A    
C87   C88   1.522477 S    
C47   C50   1.447574 A    
C80   H69   1.099418 S    
C64   H23   1.111065 S    
Cu1   Cu2   2.705879 S    
C67   H31   1.109014 S    
C49   C65   1.519292 S    
C76   H51   1.108061 S    
C53   H7    1.112375 S    
O2    C2    1.307383 A    
C28   C30   1.410099 A    
C9    C18   1.475090 S    
C56   H14   1.110800 S    
C58   H9    1.110207 S    
C37   F5    1.358495 S    
C82   H66   1.110279 S    
C37   C39   1.377366 A    
C6    C16   1.430315 A    
C5    C53   1.518771 S    
C38   C40   1.375750 A    
C43   C45   1.419217 A    
C65   H34   1.095779 S    
C66   H32   1.108805 S    
C47   C48   1.449070 A    
C71   H49   1.112416 S    
C75   C76   1.527334 S    
C79   H58   1.107339 S    
C33   C35   1.381117 A    
C72   C73   1.525689 S    
C76   H52   1.110243 S    
C61   H15   1.110378 S    
C55   H2    1.110665 S    
C29   C35   1.403059 A    
C85   H73   1.110430 S    
C38   C46   1.425555 A    
C36   F12   1.357774 S    
C31   C32   1.426796 A    
C19   C23   1.420523 A    
C86   H84   1.104585 S    
C88   H78   1.111042 S    
C59   H20   1.108987 S    
O7    Cu2   1.948268 S    
C70   H37   1.110801 S    
C57   H11   1.112108 S    
C74   H56   1.107045 S    
C61   H16   1.110722 S    
Cu1   N6    2.032642 S    
C45   C51   1.388390 A    
Cu2   N5    2.032644 S    
C69   H40   1.104182 S    
O6    C4    1.307767 A    
C33   F15   1.351072 S    
C19   C25   1.409855 A    
C25   F14   1.349915 S    
C77   H63   1.112530 S    
O7    C3    1.315338 A    
O3    Cu2   1.942533 S    
O8    C4    1.317861 A    
C20   C26   1.405368 A    
O4    C2    1.312604 A    
C24   C77   1.525307 S    
C10   C12   1.405178 A    
C80   H70   1.105591 S    
C64   H24   1.110542 S    
C11   C13   1.399235 A    
C54   H5    1.108239 S    
C68   C69   1.530490 S    
C84   H75   1.112108 S    
C22   C30   1.413864 A    
O1    Cu1   1.959977 S    
C75   H53   1.110701 S    
C37   C45   1.407486 A    
C70   H36   1.107252 S    
C81   H68   1.108604 S    
C58   H10   1.110423 S    
C77   H62   1.112317 S    
C66   H33   1.101072 S    
C31   C34   1.424782 A    
C68   H41   1.073989 S    
C5    C7    1.408258 A    
C32   C33   1.404955 A    
O6    Cu2   1.943526 S    
C65   H35   1.114902 S    
C21   C23   1.416367 A    
N1    C18   1.356130 A    
C20   C24   1.417632 A    
C43   C47   1.459028 A    
N2    C17   1.356512 A    
C57   C58   1.526674 S    
O3    C1    1.311036 A    
O8    Cu1   1.948268 S    
C83   H76   1.107976 S    
C55   H3    1.110517 S    
C73   H43   1.110990 S    
C50   C68   1.526627 S    
C41   F2    1.347008 S    
C60   H19   1.110994 S    
C79   H59   1.110599 S    
C62   H27   1.108772 S    
C71   C72   1.535215 S    
C34   F16   1.348477 S    
C63   H26   1.109083 S    
C62   C63   1.545758 S    
C46   C52   1.422994 A    
C59   H21   1.107937 S    
C44   C48   1.445229 A    
C6    C56   1.516865 S    
C48   C49   1.445172 A    
N2    N4    1.332305 A    
C70   H38   1.108282 S    
C26   F13   1.359228 S    
N3    C17   1.353617 A    
C82   H64   1.109600 S    
C72   H47   1.110564 S    
C67   H29   1.110845 S    
C61   H17   1.108411 S    
N4    C18   1.358373 A    
C73   H44   1.111068 S    
C60   C61   1.523628 S    
C69   H39   1.107227 S    
C69   C70   1.528596 S    
C38   F6    1.353682 S    
C26   C28   1.413959 A    
C63   C64   1.525641 S    
C7    C9    1.403724 A    
C8    C10   1.393373 A    
C13   C15   1.403649 A    
C53   C54   1.534094 S    
O2    Cu2   1.959978 S    
C52   C62   1.537847 S    
C41   C43   1.427196 A    
C22   C24   1.411019 A    
C23   C80   1.527071 S    
C56   C57   1.532226 S    
C87   H81   1.112204 S    
C2    C20   1.491580 S    
O5    Cu1   1.943526 S    
C55   H1    1.110045 S    
C12   C74   1.512975 S    
C25   C27   1.411449 A    
C30   C36   1.399379 A    
C6    C8    1.404494 A    
C86   C87   1.538021 S    
C4    C16   1.503558 S    
C54   H4    1.110971 S    
C27   C31   1.446564 A    
C84   H74   1.108748 S    
C35   F11   1.359580 S    
C59   C60   1.529657 S    
C76   H50   1.110751 S    
C42   C44   1.432897 A    
C81   H67   1.109946 S    
N6    C40   1.345954 A    
C88   H79   1.106161 S    
C10   C17   1.463918 S    
