data_mof_unit_62969.cif
_audit_creation_date              2013-03-05T15:42:49-0500
_audit_creation_method            fapswitch 2.2
_symmetry_space_group_name_H-M    P1
_symmetry_Int_Tables_number       1
_space_group_crystal_system       triclinic
_cell_length_a                    6.936088
_cell_length_b                    14.855786
_cell_length_c                    16.348204
_cell_angle_alpha                 90.1256
_cell_angle_beta                  89.511563
_cell_angle_gamma                 89.741249
_cell_volume                      1684.45334815

loop_
_atom_site_label
_atom_site_type_symbol
_atom_site_description
_atom_site_fract_x
_atom_site_fract_y
_atom_site_fract_z
_atom_type_partial_charge
O1    O     O_R   0.494400 0.416610 0.413880 -0.561858
O2    O     O_R   0.823920 0.406790 0.585520 -0.551746
O3    O     O_R   0.994250 0.583390 0.586120 -0.548928
C1    C     C_R   0.655171 0.383393 0.611771 0.886635
O4    O     O_R   0.824110 0.405730 0.414490 -0.534745
O5    O     O_R   0.994440 0.582310 0.413870 -0.519297
C2    C     C_R   0.658276 0.386276 0.385581 0.909221
O6    O     O_R   0.494210 0.417690 0.586130 -0.521634
O7    O     O_3   0.660810 0.557940 0.500000 -0.270342
V1    V     V_3+5 0.935650 0.489250 0.500000 1.296345
O8    O     O_R   0.324160 0.593210 0.414480 -0.522501
C3    C     C_R   0.156027 0.613662 0.385573 0.888169
O9    O     O_R   0.323970 0.594270 0.585510 -0.566428
C4    C     C_R   0.154170 0.616739 0.614531 0.795416
V2    V     V_3+5 0.435660 0.510750 0.500000 1.287679
O10   O     O_3   0.160630 0.442060 0.500000 -0.259790
C5    C     C_R   0.249310 0.580383 0.794744 -0.025396
C6    C     C_R   0.224322 0.552752 0.877142 -0.070019
C7    C     C_R   0.102881 0.602757 0.929465 -0.113965
C8    C     C_R   0.034078 0.687498 0.903758 -0.131167
C9    C     C_R   0.100156 0.722963 0.827877 -0.004256
C10   C     C_R   0.165176 0.662095 0.767016 0.031116
C11   C     C_R   0.112609 0.816764 0.811879 -0.085289
C12   C     C_R   0.120556 0.845930 0.728284 0.017738
C13   C     C_R   0.097042 0.779420 0.665542 -0.012629
C14   C     C_R   0.141376 0.686606 0.682718 -0.071650
C15   C     C_R   0.136919 0.938279 0.704083 0.320094
C16   C     C_R   0.109627 0.963598 0.621941 -0.099412
C17   C     C_R   0.050471 0.899210 0.564586 -0.159174
C18   C     C_R   0.029826 0.808435 0.588039 -0.115109
C19   C     C_2   0.998567 0.698730 0.272784 0.289820
C20   C     C_2   0.150114 0.686139 0.323744 0.224247
C21   C     C_2   0.977128 0.779522 0.220205 -0.051895
C22   C     C_2   0.118737 0.804486 0.167131 -0.202407
H1    H     H_    0.250744 0.765012 0.164754 0.168709
C23   C     C_2   0.769558 0.239772 0.804175 -0.062804
C24   C     C_2   0.613214 0.191894 0.828232 -0.223521
H2    H     H_    0.473589 0.211985 0.805458 0.209490
C25   C     C_2   0.753358 0.314537 0.742978 0.291668
C26   C     C_2   0.647011 0.310751 0.673376 0.257624
C27   C     C_2   0.711658 0.177704 0.246602 -0.088625
C28   C     C_2   0.593649 0.178324 0.179944 -0.180038
C29   C     C_2   0.672744 0.236852 0.319334 -0.125937
C30   C     C_2   0.666511 0.327953 0.313294 0.212806
O11   O     O_R   0.770210 0.079270 0.910680 -0.545300
O12   O     O_R   0.440150 0.091160 0.082270 -0.577222
O13   O     O_R   0.269970 0.914530 0.082860 -0.572666
C31   C     C_R   0.606017 0.111879 0.111456 0.847012
O14   O     O_R   0.440480 0.090100 0.911240 -0.515923
O15   O     O_R   0.270310 0.913460 0.910610 -0.530987
C32   C     C_R   0.609931 0.116276 0.887439 0.906559
O16   O     O_R   0.769870 0.080340 0.082930 -0.524636
O17   O     O_3   0.603660 0.938980 0.996790 -0.263909
V3    V     V_3+5 0.328750 0.007610 0.996740 1.245998
O18   O     O_R   0.940600 0.902510 0.911180 -0.548190
C33   C     C_R   0.108717 0.881195 0.882407 0.864648
O19   O     O_R   0.940270 0.903570 0.082200 -0.510323
C34   C     C_R   0.108339 0.880443 0.108860 0.825297
V4    V     V_3+5 0.828770 0.986010 0.996670 1.269193
O20   O     O_3   0.103730 0.054750 0.996710 -0.260792
C35   C     C_2   0.994737 0.928769 0.481524 1.002999
O21   O     O_2   0.860186 0.981228 0.472606 -0.539656
O22   O     O_R   0.100650 0.898241 0.414086 -0.652211
H3    H     H_    0.056864 0.926607 0.361180 0.338621
Cl1   Cl    Cl    0.346825 0.761422 0.325398 -0.570424
C36   C     C_2   0.790880 0.827726 0.228735 1.027742
O23   O     O_2   0.745120 0.859739 0.295089 -0.506736
O24   O     O_R   0.661267 0.830222 0.163952 -0.655761
H4    H     H_    0.540563 0.865551 0.178439 0.327776
C37   C     C_2   0.957900 0.230287 0.845385 1.050011
O25   O     O_2   0.105628 0.227272 0.804276 -0.497951
O26   O     O_R   0.967646 0.232245 0.930768 -0.707401
H5    H     H_    0.105043 0.229335 0.951270 0.336262
Cl2   Cl    Cl    0.885503 0.413423 0.765496 -0.642179
Cl3   Cl    Cl    0.507611 0.216428 0.646178 -0.608683
C38   C     C_2   0.877722 0.114673 0.255789 0.930132
O27   O     O_2   0.017766 0.138423 0.295161 -0.540365
O28   O     O_R   0.871450 0.027337 0.225036 -0.737485
H6    H     H_    0.996721 0.993787 0.234328 0.278532
C39   C     C_2   0.421383 0.239697 0.176752 0.971951
O29   O     O_2   0.375678 0.273715 0.111587 -0.548878
O30   O     O_R   0.309718 0.256823 0.246722 -0.709652
H7    H     H_    0.198301 0.299461 0.235861 0.353558
C40   C     C_2   0.656162 0.190510 0.399604 0.925413
O31   O     O_2   0.562383 0.121230 0.404972 -0.462129
O32   O     O_R   0.758339 0.222041 0.467047 -0.749381
H8    H     H_    0.752256 0.179009 0.514915 0.365701
C41   C     C_2   0.400878 0.536390 0.746320 0.875593
O33   O     O_2   0.393644 0.455492 0.734771 -0.555145
O34   O     O_R   0.557053 0.587104 0.717950 -0.696371
H9    H     H_    0.654912 0.550110 0.686136 0.338732
Cl4   Cl    Cl    0.731436 0.383181 0.221458 -0.553928
C42   C     C_2   0.331295 0.474292 0.910800 0.955891
O35   O     O_2   0.445737 0.485721 0.966318 -0.529413
O36   O     O_R   0.297081 0.387740 0.880972 -0.652980
H10   H     H_    0.377901 0.340406 0.909436 0.319729
C43   C     C_2   0.048737 0.565019 0.010307 0.993053
O37   O     O_2   0.965140 0.492827 0.014221 -0.489607
O38   O     O_R   0.101219 0.610125 0.081668 -0.714249
H11   H     H_    0.065151 0.575356 0.132744 0.358533
C44   C     C_2   0.854997 0.724667 0.941637 0.912004
O39   O     O_2   0.835347 0.728273 0.015901 -0.547654
O40   O     O_R   0.704706 0.752829 0.891033 -0.706989
H12   H     H_    0.586664 0.773414 0.923050 0.325921
Cl5   Cl    Cl    0.212316 0.024520 0.770711 -0.603705
C45   C     C_2   0.130371 0.059345 0.596455 1.039978
O41   O     O_2   0.232103 0.078357 0.537573 -0.502827
O42   O     O_R   0.029485 0.127107 0.638431 -0.679532
H13   H     H_    0.054088 0.189168 0.614974 0.352475
C46   C     C_2   0.873207 0.757597 0.548334 0.899440
O43   O     O_2   0.871555 0.747035 0.474187 -0.557435
O44   O     O_R   0.716982 0.729390 0.596264 -0.697783
H14   H     H_    0.604019 0.709287 0.562066 0.347835
Cl6   Cl    Cl    0.804023 0.621876 0.268476 -0.526345

loop_
_geom_bond_atom_site_label_1
_geom_bond_atom_site_label_2
_geom_bond_distance
_ccdc_geom_bond_type
C36   O24   1.395474 S    
O18   C33   1.291478 A    
C28   C39   1.501032 S    
C42   O35   1.222921 D    
O18   V4    2.014676 S    
C5    C41   1.461632 S    
C27   C28   1.368490 D    
O36   H10   1.013686 S    
C12   C15   1.433393 A    
C1    O6    1.298278 A    
C43   O37   1.223024 D    
O17   V4    1.713435 S    
C11   C33   1.496916 S    
V3    O20   1.707785 S    
O17   V3    2.158205 S    
C16   C17   1.403089 A    
C44   O39   1.221581 D    
C18   C46   1.479559 S    
C23   C24   1.355522 D    
C38   O28   1.391418 S    
C6    C7    1.404389 A    
O5    C3    1.297654 A    
C24   C32   1.484580 S    
C19   C20   1.359335 D    
O19   V4    2.017561 S    
C45   O41   1.223003 D    
O11   C32   1.298106 A    
O14   V3    2.013378 S    
O42   H13   1.013933 S    
C22   H1    1.085452 S    
C25   Cl2   1.774595 S    
C35   O22   1.393491 S    
C46   O43   1.222103 D    
C46   O44   1.398135 S    
O8    V2    2.017627 S    
C1    C26   1.478658 S    
C16   C45   1.490266 S    
O24   H4    1.012212 S    
O14   C32   1.296540 A    
C11   C12   1.435264 A    
C19   C21   1.485474 S    
C37   O25   1.221184 D    
O1    V2    2.020027 S    
C17   C18   1.410373 A    
O7    V1    2.158186 S    
C19   Cl6   1.773260 S    
C30   Cl4   1.768399 S    
C41   O33   1.217461 D    
C36   O23   1.222356 D    
V4    O20   2.167405 S    
C44   O40   1.399422 S    
O9    C4    1.307604 A    
C3    C20   1.479110 S    
C29   C40   1.487061 S    
C27   C29   1.498863 S    
O44   H14   1.012185 S    
C43   O38   1.395914 S    
C23   C37   1.481240 S    
C21   C36   1.479594 S    
C5    C6    1.418516 A    
O12   C31   1.287592 A    
C38   O27   1.222732 D    
C7    C43   1.482793 S    
C17   C35   1.481966 S    
C12   C13   1.433452 A    
C39   O30   1.398179 S    
C25   C26   1.362499 D    
O4    C2    1.281249 A    
O28   H6    1.012484 S    
O26   H5    1.013681 S    
C8    C44   1.486750 S    
C13   C14   1.440113 A    
C4    C14   1.523224 S    
O2    C1    1.292564 A    
C29   C30   1.357703 D    
C24   H2    1.081489 S    
O16   V4    2.023776 S    
O38   H11   1.012968 S    
O12   V3    2.027862 S    
C21   C22   1.358409 D    
C28   C31   1.492680 S    
C2    C30   1.464400 S    
C40   O31   1.222929 D    
O3    C4    1.305481 A    
O13   V3    2.016022 S    
C41   O34   1.398744 S    
O6    V2    2.017932 S    
C9    C11   1.421247 A    
O2    V1    2.013333 S    
C15   C16   1.409447 A    
O32   H8    1.012280 S    
C13   C18   1.420981 A    
O11   V4    2.018381 S    
O1    C2    1.301764 A    
C23   C25   1.500954 S    
C40   O32   1.396932 S    
C39   O29   1.223719 D    
O5    V1    2.015943 S    
O8    C3    1.297098 A    
C5    C10   1.421309 A    
C26   Cl3   1.764336 S    
C7    C8    1.410495 A    
O9    V2    2.014717 S    
O7    V2    1.714682 S    
O4    V1    2.027744 S    
O15   V3    2.027182 S    
O3    V1    2.027199 S    
V1    O10   1.707830 S    
C27   C38   1.489930 S    
O34   H9    1.011243 S    
C45   O42   1.398694 S    
C35   O21   1.223039 D    
O15   C33   1.308152 A    
O22   H3    1.011339 S    
C31   O16   1.309133 A    
C8    C9    1.421936 A    
C42   O36   1.396197 S    
O30   H7    1.014092 S    
C10   C14   1.436867 A    
O40   H12   1.013688 S    
C22   C34   1.480251 S    
C6    C42   1.487907 S    
C15   Cl5   1.763804 S    
C37   O26   1.398320 S    
O19   C34   1.293313 A    
C9    C10   1.412707 A    
V2    O10   2.167476 S    
C20   Cl1   1.768446 S    
O13   C34   1.300722 A    
