data_mof_unit_50985.cif
_audit_creation_date              2012-12-11T14:06:37-0500
_audit_creation_method            fapswitch 2.2
_symmetry_space_group_name_H-M    P1
_symmetry_Int_Tables_number       1
_space_group_crystal_system       triclinic
_cell_length_a                    6.91894
_cell_length_b                    17.326373
_cell_length_c                    24.07024
_cell_angle_alpha                 104.298589
_cell_angle_beta                  90.730527
_cell_angle_gamma                 89.82692
_cell_volume                      2795.92741815

loop_
_atom_site_label
_atom_site_type_symbol
_atom_type_description
_atom_site_fract_x
_atom_site_fract_y
_atom_site_fract_z
_atom_type_partial_charge
O1    O     O_R   0.494290 0.391990 0.999150 -0.542762
O2    O     O_R   0.827170 0.534410 0.082350 -0.536760
O3    O     O_R   0.994360 0.608010 0.000850 -0.541540
C1    C     C_R   0.659287 0.550333 0.106108 0.717011
O4    O     O_R   0.824210 0.388010 0.004470 -0.545564
O5    O     O_R   0.991370 0.460560 0.922410 -0.541126
C2    C     C_R   0.653904 0.354019 0.998770 0.753821
O6    O     O_R   0.497270 0.539440 0.077590 -0.528666
O7    O     O_3   0.659770 0.523970 0.973170 -0.373685
V1    V     V_3+5 0.935840 0.495550 0.004980 1.429346
O8    O     O_R   0.320910 0.465590 0.917650 -0.552455
C3    C     C_R   0.150667 0.450808 0.893804 0.680375
O9    O     O_R   0.323870 0.611990 0.995530 -0.539943
C4    C     C_R   0.153210 0.643517 0.994956 0.785652
V2    V     V_3+5 0.435470 0.504450 0.995020 1.416409
O10   O     O_3   0.161670 0.476030 0.026830 -0.366918
C5    C     C_2   0.137000 0.722493 0.981690 -0.035408
C6    C     C_2   0.980683 0.769737 0.000990 -0.348324
H1    H     H_    0.866509 0.747027 0.023192 0.125013
C7    C     C_R   0.069740 0.254601 0.627151 0.549462
N1    N     N_R   0.079091 0.335474 0.648294 -0.561006
C8    C     C_R   0.060147 0.385923 0.613020 0.611674
C9    C     C_R   0.032522 0.355569 0.553579 -0.052246
C10   C     C_R   0.016807 0.272686 0.530784 -0.044314
C11   C     C_R   0.027957 0.220522 0.568015 -0.039676
C12   C     C_R   0.013335 0.406942 0.517078 -0.159392
C13   C     C_R   0.984720 0.377974 0.457715 0.104167
C14   C     C_R   0.984050 0.294077 0.433253 -0.054554
C15   C     C_R   0.989907 0.242237 0.470675 -0.042466
C16   C     C_R   0.967368 0.159757 0.448012 -0.045574
C17   C     C_R   0.966356 0.108821 0.484996 -0.173642
C18   C     C_R   0.995204 0.137263 0.544419 0.108934
C19   C     C_R   0.982751 0.259170 0.373078 0.553371
N2    N     N_R   0.966855 0.178246 0.352076 -0.543154
C20   C     C_R   0.946533 0.129349 0.388386 0.553250
O11   O     O_2   0.103975 0.208193 0.663563 -0.530384
O12   O     O_2   0.067196 0.465350 0.635484 -0.494997
H2    H     H_    0.017399 0.470837 0.534941 0.170366
O13   O     O_2   0.006738 0.304573 0.335642 -0.532293
O14   O     O_2   0.909246 0.051202 0.366736 -0.526898
H3    H     H_    0.943112 0.045632 0.467322 0.165541
C21   C     C_R   0.134518 0.097001 0.264958 0.111782
C22   C     C_R   0.132531 0.064675 0.204198 -0.116579
C23   C     C_R   0.975348 0.080563 0.169955 -0.112665
C24   C     C_R   0.823695 0.128804 0.196831 -0.192618
H4    H     H_    0.703706 0.143229 0.171832 0.138100
C25   C     C_R   0.825333 0.160797 0.255806 -0.132487
H5    H     H_    0.709204 0.199925 0.274581 0.136791
C26   C     C_R   0.975267 0.144208 0.290677 0.378889
C27   C     C_R   0.280049 0.389570 0.735143 -0.068233
H6    H     H_    0.407308 0.384786 0.708790 0.121187
C28   C     C_R   0.298219 0.416664 0.795004 -0.200686
H7    H     H_    0.440032 0.432939 0.813694 0.129486
C29   C     C_R   0.134737 0.422380 0.830158 -0.054461
C30   C     C_R   0.953118 0.400720 0.803780 -0.188402
H8    H     H_    0.823883 0.404115 0.829178 0.129438
C31   C     C_R   0.935589 0.373502 0.744210 -0.101255
H9    H     H_    0.794943 0.356242 0.724962 0.109308
C32   C     C_R   0.098516 0.367612 0.709475 0.392532
C33   C     C_R   0.489680 0.868522 0.612892 0.586473
N3    N     N_R   0.467200 0.817413 0.647624 -0.554960
C34   C     C_R   0.458753 0.736533 0.624997 0.598843
C35   C     C_R   0.487837 0.703336 0.565482 -0.065029
C36   C     C_R   0.511358 0.756153 0.529575 -0.018227
C37   C     C_R   0.508708 0.839150 0.553308 -0.012876
C38   C     C_R   0.497351 0.619913 0.540377 -0.059325
C39   C     C_R   0.526348 0.591531 0.481357 -0.240837
C40   C     C_R   0.545097 0.643700 0.445565 -0.017618
C41   C     C_R   0.538266 0.726218 0.469693 -0.009370
C42   C     C_R   0.558921 0.778971 0.433953 -0.032627
C43   C     C_R   0.552975 0.861417 0.458246 -0.140561
C44   C     C_R   0.528453 0.891059 0.517121 -0.160670
C45   C     C_R   0.571480 0.615118 0.385970 0.554163
N4    N     N_R   0.589816 0.667129 0.351603 -0.554550
C46   C     C_R   0.583986 0.747899 0.374582 0.580419
O15   O     O_2   0.495482 0.947739 0.636055 -0.539347
O16   O     O_2   0.423115 0.688863 0.660286 -0.496904
H10   H     H_    0.533319 0.527766 0.463315 0.149773
O17   O     O_2   0.579757 0.535940 0.362665 -0.541307
O18   O     O_2   0.600051 0.798141 0.340067 -0.510132
H11   H     H_    0.567828 0.903435 0.431886 0.177912
H12   H     H_    0.524463 0.954924 0.534119 0.155253
C47   C     C_R   0.780325 0.652247 0.263085 -0.124677
H13   H     H_    0.895199 0.686831 0.288554 0.133873
C48   C     C_R   0.800149 0.624725 0.203366 -0.087553
C49   C     C_R   0.649510 0.579851 0.169830 -0.103281
C50   C     C_R   0.482065 0.564149 0.197921 -0.172039
H14   H     H_    0.364218 0.529944 0.173838 0.143763
C51   C     C_R   0.463516 0.592151 0.257282 -0.083759
H15   H     H_    0.332152 0.579895 0.277560 0.123638
C52   C     C_R   0.612015 0.636540 0.290376 0.363055
C53   C     C_R   0.620088 0.833774 0.743769 -0.065691
C54   C     C_R   0.620463 0.865433 0.803876 -0.124607
C55   C     C_R   0.463492 0.913104 0.830503 -0.099024
C56   C     C_R   0.308430 0.926865 0.795797 -0.226304
H16   H     H_    0.187027 0.962902 0.815191 0.139751
C57   C     C_R   0.308269 0.895838 0.736168 -0.001474
C58   C     C_R   0.464183 0.848952 0.709492 0.299435
C59   C     C_2   0.635447 0.269417 0.000470 -0.376290
H17   H     H_    0.752031 0.246373 0.022426 0.123045
C60   C     C_2   0.476652 0.222613 0.981621 -0.027143
O19   O     O_R   0.618210 0.960470 0.922400 -0.535442
O20   O     O_R   0.291310 0.111960 0.995450 -0.546175
O21   O     O_R   0.124210 0.039530 0.077580 -0.537004
C61   C     C_R   0.461613 0.143586 0.994928 0.743809
O22   O     O_R   0.288310 0.965490 0.917650 -0.542035
O23   O     O_R   0.121180 0.892010 0.999220 -0.540054
C62   C     C_R   0.456220 0.947770 0.893997 0.694839
O24   O     O_R   0.621230 0.107990 0.000760 -0.548123
O25   O     O_3   0.455770 0.976060 0.026840 -0.358006
V3    V     V_3+5 0.179680 0.004440 0.995020 1.441821
O26   O     O_R   0.791670 0.888040 0.004570 -0.541190
C63   C     C_R   0.961925 0.854227 0.999264 0.806188
O27   O     O_R   0.794680 0.034510 0.082370 -0.533072
C64   C     C_R   0.964777 0.049042 0.106229 0.712576
V4    V     V_3+5 0.680070 0.995560 0.005010 1.462137
O28   O     O_3   0.953840 0.023940 0.973160 -0.371723
C65   C     C_3   0.290242 0.742566 0.942085 -0.328224
C66   C     C_3   0.300870 0.679018 0.885299 -0.722629
H18   H     H_    0.355196 0.621579 0.891838 0.222520
H19   H     H_    0.155916 0.669711 0.864319 0.241901
H20   H     H_    0.401796 0.698935 0.856092 0.227854
H21   H     H_    0.262036 0.798575 0.929445 0.215444
H22   H     H_    0.433621 0.748091 0.964045 0.179987
C67   C     C_1   0.484699 0.560767 0.573309 0.421108
N5    N     N_1   0.475354 0.513058 0.599400 -0.285210
C68   C     C_1   0.972237 0.646878 0.177687 0.317359
N6    N     N_1   0.109907 0.664860 0.157113 -0.348616
C69   C     C_1   0.780586 0.785202 0.716828 0.365101
N7    N     N_1   0.908220 0.746171 0.695344 -0.293529
C70   C     C_1   0.780896 0.846308 0.837468 0.316762
N8    N     N_1   0.909774 0.830716 0.863807 -0.369519
C71   C     C_1   0.146306 0.912978 0.702788 0.373344
N9    N     N_1   0.016808 0.926851 0.675929 -0.354411
C72   C     C_3   0.319676 0.243100 0.942195 -0.322698
C73   C     C_3   0.301725 0.179058 0.885720 -0.766332
H23   H     H_    0.444378 0.168269 0.864509 0.228158
H24   H     H_    0.246011 0.122298 0.892709 0.230779
H25   H     H_    0.198818 0.199373 0.856481 0.225777
H26   H     H_    0.178780 0.249835 0.964536 0.179604
H27   H     H_    0.348136 0.298641 0.929100 0.200757
C74   C     C_3   0.938188 0.439337 0.424170 -0.306945
C75   C     C_3   0.120814 0.473022 0.404352 -0.616407
H28   H     H_    0.217324 0.424929 0.380980 0.261283
H29   H     H_    0.081465 0.512208 0.375769 0.220827
H30   H     H_    0.199150 0.509084 0.442250 0.200725
H31   H     H_    0.837444 0.415663 0.387833 0.240606
H32   H     H_    0.858679 0.489829 0.451897 0.164998
C76   C     C_3   0.978924 0.076366 0.580032 -0.319065
C77   C     C_3   0.791875 0.087439 0.614278 -0.594120
H33   H     H_    0.779106 0.148214 0.642578 0.235576
H34   H     H_    0.665271 0.077034 0.584613 0.204939
H35   H     H_    0.788275 0.044206 0.641369 0.264676
H36   H     H_    0.976517 0.014718 0.552147 0.167145
H37   H     H_    0.107922 0.077388 0.607960 0.240142
C78   C     C_3   0.304221 0.081222 0.302125 -0.324447
C79   C     C_3   0.402303 0.157616 0.336345 -0.729179
H38   H     H_    0.401151 0.204042 0.311756 0.234315
H39   H     H_    0.330470 0.181147 0.377944 0.223259
H40   H     H_    0.553735 0.144503 0.346552 0.228735
H41   H     H_    0.254969 0.046058 0.331993 0.221299
H42   H     H_    0.417979 0.044449 0.276233 0.198696
C80   C     C_1   0.287349 0.012795 0.177291 0.307808
N10   N     N_1   0.411195 0.971315 0.155944 -0.322684

loop_
_geom_bond_atom_site_label_1
_geom_bond_atom_site_label_2
_ccdc_geom_bond_type
C75   H30   S    
C50   H14   S    
C79   H38   S    
C45   N4    A    
C34   O16   S    
O2    C1    A    
C56   H16   S    
C57   C71   S    
C1    O6    A    
C57   C58   A    
C53   C58   A    
C72   C73   S    
C25   C26   A    
C48   C49   A    
C23   C24   A    
C55   C62   S    
C12   C13   A    
C19   O13   S    
C60   C72   S    
C2    C59   S    
C16   C20   A    
C47   H13   S    
C27   C32   A    
N1    C8    A    
C14   C15   A    
C75   H28   S    
N1    C32   S    
O5    C3    A    
C16   C17   A    
C31   C32   A    
C1    C49   S    
C7    C11   A    
V2    O10   S    
C13   C74   S    
V4    O28   S    
O20   V3    S    
N2    C20   A    
C9    C12   A    
C65   C66   S    
O23   C63   A    
O24   V4    S    
O25   V3    S    
O8    V2    S    
C18   C76   S    
C80   N10   T    
C23   C64   S    
C40   C41   A    
C77   H35   S    
C27   C28   A    
C9    C10   A    
O19   C62   A    
C42   C43   A    
O1    V2    S    
C51   C52   A    
C15   C16   A    
C46   O18   S    
C13   C14   A    
C11   C18   A    
C24   C25   A    
C38   C39   A    
C35   C38   A    
C78   H42   S    
C79   H39   S    
O9    C4    A    
C4    C5    S    
C41   C42   A    
C39   H10   S    
C73   H25   S    
C6    C63   S    
C8    C9    A    
O26   C63   A    
C28   C29   A    
C27   H6    S    
O22   V3    S    
C66   H19   S    
C60   C61   S    
C72   H26   S    
C78   H41   S    
N4    C46   A    
C39   C40   A    
C74   H32   S    
C10   C11   A    
C73   H24   S    
O4    C2    A    
C49   C50   A    
C6    H1    S    
C40   C45   A    
C24   H4    S    
C8    O12   S    
C33   O15   S    
C33   N3    A    
N4    C52   S    
C21   C78   S    
C76   H36   S    
C34   C35   A    
O21   C64   A    
C33   C37   A    
C25   H5    S    
C38   C67   S    
C66   H18   S    
C30   H8    S    
C5    C6    D    
C45   O17   S    
C55   C56   A    
O20   C61   A    
C54   C55   A    
C65   H22   S    
C36   C41   A    
C10   C15   A    
O9    V2    S    
O3    C4    A    
C5    C65   S    
C47   C48   A    
C14   C19   A    
C79   H40   S    
C30   C31   A    
C22   C23   A    
C71   N9    T    
C77   H34   S    
C48   C68   S    
C21   C22   A    
C68   N6    T    
O2    V1    S    
O25   V4    S    
O26   V4    S    
C28   H7    S    
C69   N7    T    
O7    V1    S    
C66   H20   S    
C75   H29   S    
C61   O24   A    
C29   C30   A    
C78   C79   S    
N2    C26   S    
C17   H3    S    
C59   C60   D    
O1    C2    A    
O23   V3    S    
C74   H31   S    
C17   C18   A    
C12   H2    S    
C73   H23   S    
O5    V1    S    
O21   V3    S    
O27   V4    S    
O8    C3    A    
C56   C57   A    
O27   C64   A    
O6    V2    S    
C37   C44   A    
C47   C52   A    
C59   H17   S    
V3    O28   S    
C36   C37   A    
C50   C51   A    
C53   C69   S    
C76   H37   S    
O4    V1    S    
O3    V1    S    
V1    O10   S    
C76   C77   S    
N3    C58   S    
C31   H9    S    
C67   N5    T    
O22   C62   A    
C53   C54   A    
C19   N2    A    
C20   O14   S    
C65   H21   S    
O7    V2    S    
N3    C34   A    
C3    C29   S    
O19   V4    S    
C21   C26   A    
C35   C36   A    
C7    O11   S    
C72   H27   S    
C43   C44   A    
C7    N1    A    
C42   C46   A    
C74   C75   S    
C77   H33   S    
C51   H15   S    
C54   C70   S    
C44   H12   S    
C70   N8    T    
C43   H11   S    
C22   C80   S    
