data_mof_unit_32867.cif
_audit_creation_date              2013-03-05T16:00:38-0500
_audit_creation_method            fapswitch 2.2
_symmetry_space_group_name_H-M    P1
_symmetry_Int_Tables_number       1
_space_group_crystal_system       triclinic
_cell_length_a                    10.719423
_cell_length_b                    14.695835
_cell_length_c                    14.740511
_cell_angle_alpha                 65.087163
_cell_angle_beta                  103.464696
_cell_angle_gamma                 103.010468
_cell_volume                      2026.77011107

loop_
_atom_site_label
_atom_site_type_symbol
_atom_site_description
_atom_site_fract_x
_atom_site_fract_y
_atom_site_fract_z
_atom_type_partial_charge
O1    O     O_R   0.455060 0.022100 0.338110 -0.583192
O2    O     O_R   0.512640 0.160150 0.379180 -0.588089
C1    C     C_R   0.477005 0.119711 0.312314 0.798421
O3    O     O_R   0.288900 0.930980 0.479450 -0.585268
O4    O     O_R   0.346480 0.069030 0.520520 -0.591101
C2    C     C_R   0.260018 0.000448 0.499910 0.757613
Cu1   Cu    Cu3+1 0.465900 0.918260 0.475680 0.933640
Cu2   Cu    Cu3+1 0.534100 0.081740 0.524320 0.929811
O5    O     O_R   0.487360 0.839850 0.620820 -0.585712
O6    O     O_R   0.544940 0.977900 0.661890 -0.587577
O7    O     O_R   0.653520 0.930970 0.479480 -0.585065
O8    O     O_R   0.711100 0.069020 0.520550 -0.588296
C3    C     C_R   0.520602 0.880304 0.687669 0.796353
C4    C     C_R   0.740112 0.999968 0.499887 0.757820
C5    C     C_3   0.042194 0.012403 0.394480 -0.375207
H1    H     H_    0.080124 0.084433 0.335342 0.154030
C6    C     C_3   0.898072 0.011952 0.394458 -0.370860
H2    H     H_    0.838187 0.948402 0.374817 0.180868
H3    H     H_    0.863771 0.834154 0.564980 0.171672
C7    C     C_3   0.067354 0.900375 0.580981 -0.366736
C8    C     C_3   0.107261 0.090559 0.524501 -0.370833
C9    C     C_3   0.122289 0.001029 0.499987 0.145414
H4    H     H_    0.163624 0.084394 0.600088 0.175135
C10   C     C_3   0.878311 0.000399 0.499872 0.146488
C11   C     C_3   0.923210 0.899977 0.580826 -0.384570
C12   C     C_3   0.964382 0.090199 0.524475 -0.361102
H5    H     H_    0.934481 0.163623 0.467330 0.179047
H6    H     H_    0.952534 0.083965 0.600074 0.168718
H7    H     H_    0.123555 0.891054 0.657323 0.157580
H8    H     H_    0.909594 0.890439 0.657101 0.155882
C13   C     C_R   0.458372 0.187237 0.204806 -0.063907
C14   C     C_R   0.522599 0.812745 0.794782 -0.059997
C15   C     C_R   0.409675 0.215307 0.027226 -0.191792
C16   C     C_R   0.425352 0.149065 0.128549 -0.184975
C17   C     C_R   0.472719 0.291766 0.178821 -0.252812
C18   C     C_R   0.453199 0.359937 0.077391 0.091934
C19   C     C_R   0.424933 0.320248 0.001109 0.160104
C20   C     C_R   0.465263 0.466400 0.049875 0.065680
C21   C     C_R   0.463752 0.532459 0.946241 0.066253
C22   C     C_R   0.433329 0.489679 0.872330 -0.219039
C23   C     C_R   0.413001 0.385554 0.899571 -0.225393
C24   C     C_R   0.476406 0.508831 0.122208 -0.211351
C25   C     C_R   0.494019 0.612930 0.094809 -0.199167
C26   C     C_R   0.503191 0.678607 0.994970 0.160641
C27   C     C_R   0.489858 0.639161 0.919879 0.089889
C28   C     C_R   0.525015 0.783728 0.969249 -0.169265
C29   C     C_R   0.533413 0.850505 0.869468 -0.191257
C30   C     C_R   0.505028 0.708093 0.820999 -0.246535
H9    H     H_    0.389732 0.356023 0.840542 0.148535
H10   H     H_    0.505162 0.682237 0.762748 0.146275
H11   H     H_    0.546929 0.931342 0.850676 0.155517
H12   H     H_    0.501578 0.642182 0.152550 0.154397
H13   H     H_    0.386511 0.184546 0.969168 0.138729
H14   H     H_    0.503056 0.318562 0.239242 0.153665
H15   H     H_    0.420426 0.534439 0.792095 0.146639
N1    N     N_R   0.585360 0.204570 0.560800 -0.176937
N2    N     N_R   0.414550 0.795430 0.439160 -0.202600
C31   C     C_R   0.715120 0.285071 0.668657 -0.310713
C32   C     C_R   0.682183 0.203430 0.638941 0.074529
C33   C     C_R   0.518944 0.285271 0.508693 0.009167
C34   C     C_R   0.548703 0.371652 0.534394 -0.022089
C35   C     C_R   0.648229 0.368958 0.617281 0.162623
C36   C     C_R   0.482937 0.459143 0.482334 0.085100
C37   C     C_R   0.516039 0.541250 0.516018 0.105970
C38   C     C_R   0.614450 0.533194 0.600481 -0.235580
C39   C     C_R   0.679566 0.449299 0.649165 -0.193109
C40   C     C_R   0.386421 0.467777 0.397086 -0.258372
C41   C     C_R   0.320868 0.551295 0.348461 -0.139928
C42   C     C_R   0.347908 0.630812 0.382055 0.029846
C43   C     C_R   0.449243 0.628379 0.464365 -0.059119
C44   C     C_R   0.278643 0.714861 0.332528 0.227772
C45   C     C_R   0.315818 0.796774 0.362450 -0.005635
C46   C     C_R   0.480464 0.714625 0.490225 -0.014269
H16   H     H_    0.558268 0.720704 0.549297 0.131932
H17   H     H_    0.264823 0.861966 0.324926 0.161204
H18   H     H_    0.249962 0.553476 0.282308 0.195151
H19   H     H_    0.732909 0.138258 0.679096 0.123899
H20   H     H_    0.442021 0.279146 0.449053 0.120095
H21   H     H_    0.643564 0.590437 0.631726 0.129859
H22   H     H_    0.359523 0.411199 0.364940 0.126427
H23   H     H_    0.050968 0.949123 0.374682 0.182784
H24   H     H_    0.413282 0.068340 0.147077 0.166568
H25   H     H_    0.467774 0.463580 0.200574 0.140313
H26   H     H_    0.534132 0.814255 0.026200 0.141920
H27   H     H_    0.754805 0.446946 0.713315 0.145877
H28   H     H_    0.791800 0.282303 0.731993 0.140659
H29   H     H_    0.866143 0.083755 0.335292 0.155932
N3    N     N_R   0.169901 0.717988 0.253465 0.106044
O9    O     O_R   0.153742 0.802660 0.175801 -0.377465
O10   O     O_R   0.075127 0.642892 0.267876 -0.363914
H30   H     H_    0.076738 0.834609 0.565352 0.179896
H31   H     H_    0.145737 0.164045 0.467331 0.168512

loop_
_geom_bond_atom_site_label_1
_geom_bond_atom_site_label_2
_geom_bond_distance
_ccdc_geom_bond_type
C31   C35   1.402132 A    
C8    C12   1.530310 S    
C38   H21   1.076325 S    
C46   H16   1.074972 S    
N3    O10   1.301276 A    
C3    C14   1.467056 S    
C17   C18   1.403442 A    
C32   H19   1.081813 S    
C39   H27   1.084293 S    
Cu1   Cu2   2.690106 S    
C5    H23   1.113377 S    
Cu1   O7    1.967250 S    
C33   H20   1.075426 S    
C12   H5    1.113929 S    
C18   C19   1.417972 A    
C10   C12   1.556763 S    
C20   C24   1.416749 A    
C45   H17   1.082207 S    
C20   C21   1.422142 A    
O7    C4    1.297458 A    
C25   H12   1.084552 S    
C7    C11   1.543314 S    
N2    C46   1.361261 A    
C5    H1    1.113372 S    
C2    C9    1.478580 S    
C42   C44   1.417984 A    
C4    C10   1.480048 S    
C34   C36   1.436653 A    
O5    C3    1.298480 A    
C5    C9    1.551654 S    
C41   C42   1.401058 A    
C37   C43   1.438569 A    
C21   C27   1.424032 A    
C30   H10   1.075800 S    
C6    H29   1.113328 S    
C8    C9    1.552658 S    
C17   H14   1.075623 S    
C14   C30   1.397452 A    
Cu2   N1    2.020644 S    
C34   C35   1.415556 A    
O3    Cu1   1.963535 S    
C31   H28   1.083790 S    
C23   H9    1.084422 S    
C26   C28   1.403625 A    
C15   C16   1.392281 A    
C7    H7    1.113395 S    
C15   H13   1.083910 S    
C7    H30   1.113301 S    
C36   C40   1.408857 A    
C6    C10   1.550163 S    
C35   C39   1.393970 A    
C40   C41   1.388014 A    
C10   C11   1.549919 S    
O3    C2    1.293914 A    
C21   C22   1.416988 A    
C29   H11   1.083029 S    
C31   C32   1.391406 A    
C15   C19   1.403171 A    
C44   N3    1.437164 S    
C33   C34   1.422438 A    
O1    C1    1.299162 A    
C25   C26   1.391064 A    
Cu2   O8    1.963536 S    
C22   H15   1.077024 S    
C43   C46   1.421403 A    
C6    H2    1.113294 S    
C13   C16   1.400018 A    
C1    C13   1.467296 S    
C28   H26   1.083915 S    
C22   C23   1.386803 A    
C7    C9    1.551622 S    
C8    H4    1.113893 S    
C14   C29   1.399888 A    
C13   C17   1.398380 A    
C24   C25   1.387101 A    
C26   C27   1.418187 A    
C27   C30   1.403328 A    
C11   H8    1.113334 S    
C5    C6    1.543356 S    
C28   C29   1.392944 A    
O1    Cu1   1.953826 S    
O2    Cu2   1.941939 S    
C40   H22   1.076727 S    
O8    C4    1.290679 A    
O6    C3    1.299260 A    
O4    Cu2   1.967250 S    
C41   H18   1.081240 S    
C12   H6    1.113993 S    
N1    C32   1.356128 A    
C37   C38   1.413282 A    
C18   C20   1.424010 A    
O2    C1    1.298661 A    
C24   H25   1.077061 S    
C44   C45   1.397114 A    
O4    C2    1.293578 A    
N2    C45   1.353648 A    
C19   C23   1.390531 A    
C42   C43   1.421431 A    
H3    C11   1.113451 S    
C36   C37   1.434691 A    
Cu1   O5    1.941939 S    
N1    C33   1.364334 A    
N3    O9    1.301350 A    
Cu2   O6    1.953826 S    
C38   C39   1.389624 A    
C16   H24   1.083080 S    
Cu1   N2    2.020993 S    
C8    H31   1.114064 S    
