data_mof_unit_19050.cif
_audit_creation_date              2012-10-26T21:13:38-0400
_audit_creation_method            fapswitch 2.2
_symmetry_space_group_name_H-M    P1
_symmetry_Int_Tables_number       1
_space_group_crystal_system       triclinic
_cell_length_a                    9.064757
_cell_length_b                    10.827192
_cell_length_c                    9.603317
_cell_angle_alpha                 90.01065
_cell_angle_beta                  89.727744
_cell_angle_gamma                 91.266992
_cell_volume                      942.284772748

loop_
_atom_site_label
_atom_site_type_symbol
_atom_type_description
_atom_site_fract_x
_atom_site_fract_y
_atom_site_fract_z
_atom_type_partial_charge
C1    C     C_R   0.501897 0.262597 0.500089 0.531048
C2    C     C_R   0.624939 0.527912 0.926162 0.041862
C3    C     C_3   0.724337 0.639041 0.918186 -0.237733
C4    C     C_R   0.220879 0.500143 0.500085 0.543848
C5    C     C_3   0.734994 0.632005 0.077133 0.155854
C6    C     C_R   0.498331 0.737439 0.500108 0.534392
C7    C     C_R   0.779137 0.500550 0.499769 0.538464
C8    C     C_1   0.065633 0.500790 0.499793 -0.077253
C9    C     C_1   0.934400 0.500892 0.499390 -0.085247
C10   C     C_R   0.513602 0.064063 0.625413 0.036842
C11   C     C_R   0.512294 0.129546 0.500273 -0.020467
C12   C     C_R   0.517031 0.936246 0.374392 -0.169111
C13   C     C_R   0.524991 0.064485 0.374621 -0.184742
C14   C     C_3   0.795505 0.827738 0.157093 -0.029624
C15   C     C_3   0.878367 0.811839 0.293854 -0.367585
C16   C     C_3   0.599351 0.082466 0.921886 -0.010019
C17   C     C_3   0.692773 0.186639 0.984218 -0.382188
C18   C     C_3   0.275081 0.260192 0.131242 0.020335
C19   C     C_3   0.174555 0.198090 0.238860 -0.380063
C20   C     C_3   0.131477 0.456417 0.880064 -0.010734
C21   C     C_3   0.006017 0.368378 0.839312 -0.377936
C22   C     C_R   0.505105 0.870961 0.500298 -0.004353
C23   C     C_R   0.509999 0.936305 0.625605 -0.045542
C24   C     C_3   0.407582 0.927919 0.748437 -0.252593
C25   C     C_3   0.410223 0.069184 0.747560 0.167097
C26   C     C_R   0.625901 0.526321 0.071552 0.111472
C27   C     C_R   0.386012 0.446508 0.076107 0.346747
C28   C     C_R   0.381605 0.453216 0.926090 0.384366
Cu1   Cu    Cu3+1 0.499990 0.499980 0.640670 0.989569
Cu2   Cu    Cu3+1 0.500010 0.500020 0.359330 1.012700
H1    H     H_    0.534780 0.111814 0.276124 0.123728
H2    H     H_    0.874626 0.828307 0.067678 0.104044
H3    H     H_    0.940868 0.724918 0.293063 0.140499
H4    H     H_    0.957675 0.890378 0.308245 0.092431
H5    H     H_    0.799995 0.809704 0.382887 0.167922
H6    H     H_    0.669039 0.035333 0.843542 0.130637
H7    H     H_    0.569251 0.015928 0.005847 0.126539
H8    H     H_    0.632819 0.232321 0.070107 0.140104
H9    H     H_    0.797019 0.149588 0.025736 0.077628
H10   H     H_    0.718891 0.256132 0.902478 0.168832
H11   H     H_    0.387786 0.224613 0.143977 0.145755
H12   H     H_    0.666302 0.721646 0.879519 0.152353
H13   H     H_    0.234196 0.233174 0.026738 0.184929
H14   H     H_    0.059262 0.228240 0.224445 0.143291
H15   H     H_    0.177932 0.096159 0.226657 0.090671
H16   H     H_    0.211139 0.222947 0.345625 0.168930
H17   H     H_    0.125159 0.541804 0.816551 0.139988
H18   H     H_    0.113535 0.483928 0.990036 0.142143
H19   H     H_    0.003139 0.287496 0.910283 0.132583
H20   H     H_    0.899310 0.415601 0.846557 0.107173
H21   H     H_    0.021651 0.335151 0.731048 0.167492
H22   H     H_    0.843703 0.600246 0.115523 0.097880
H23   H     H_    0.514891 0.888911 0.275418 0.182178
H24   H     H_    0.298022 0.887188 0.720309 0.097959
H25   H     H_    0.458999 0.883332 0.839579 0.135202
H26   H     H_    0.301911 0.107441 0.717783 0.132312
H27   H     H_    0.830699 0.620988 0.865117 0.080074
H28   H     H_    0.745880 0.920390 0.157920 0.129459
N1    N     N_R   0.500920 0.500930 0.147930 -0.232891
N2    N     N_R   0.500930 0.500890 0.852020 -0.240950
O1    O     O_R   0.500000 0.319640 0.618810 -0.446668
O2    O     O_3   0.468647 0.132078 0.866438 -0.545521
O3    O     O_3   0.272138 0.389504 0.150033 -0.548079
O4    O     O_3   0.266627 0.396726 0.854562 -0.522301
O5    O     O_R   0.500020 0.319680 0.381230 -0.513940
O6    O     O_R   0.288380 0.499980 0.618770 -0.468696
O7    O     O_R   0.288400 0.500020 0.381190 -0.442783
O8    O     O_R   0.499980 0.680320 0.618770 -0.515916
O9    O     O_R   0.500000 0.680360 0.381190 -0.461483
O10   O     O_R   0.711600 0.499980 0.618810 -0.509351
O11   O     O_R   0.711620 0.500020 0.381230 -0.492739
O12   O     O_3   0.680315 0.737713 0.143890 -0.540822

loop_
_geom_bond_atom_site_label_1
_geom_bond_atom_site_label_2
_ccdc_geom_bond_type
C20   O4    S    
C4    O7    A    
C1    O5    A    
C23   C24   S    
Cu1   N2    S    
C5    H22   S    
Cu1   Cu2   S    
C3    H12   S    
C12   C22   A    
C10   C23   A    
C6    O9    A    
Cu1   O8    S    
C26   N1    A    
C15   H4    S    
Cu2   O7    S    
C1    C11   S    
C25   H26   S    
C16   H7    S    
C4    C8    S    
Cu2   N1    S    
C7    O10   A    
C6    O8    A    
Cu2   O11   S    
C19   H16   S    
C2    C26   A    
C27   N1    A    
C18   H13   S    
C20   C21   S    
C24   H25   S    
C4    O6    A    
C12   C13   A    
C11   C13   A    
C20   H18   S    
C27   O3    S    
C28   O4    S    
C10   C25   S    
C21   H19   S    
C21   H20   S    
C15   H3    S    
C3    H27   S    
C2    C3    S    
C5    O12   S    
Cu1   O1    S    
C25   O2    S    
C28   N2    A    
C7    O11   A    
C14   H28   S    
C2    N2    A    
C18   O3    S    
Cu2   O5    S    
C19   H15   S    
C10   C11   A    
C24   H24   S    
C5    C26   S    
C20   H17   S    
C19   H14   S    
C21   H21   S    
Cu2   O9    S    
C1    O1    A    
C24   C25   S    
Cu1   O6    S    
Cu1   O10   S    
C17   H9    S    
C18   H11   S    
C15   H5    S    
C27   C28   A    
C7    C9    S    
C13   H1    S    
C14   C15   S    
C18   C19   S    
C22   C23   A    
C14   O12   S    
C16   O2    S    
C16   H6    S    
C17   H8    S    
C12   H23   S    
C16   C17   S    
C14   H2    S    
C8    C9    T    
C3    C5    S    
C17   H10   S    
C6    C22   S    
