data_mof_unit_43951.cif
_audit_creation_date              2013-03-05T16:06:21-0500
_audit_creation_method            fapswitch 2.2
_symmetry_space_group_name_H-M    P1
_symmetry_Int_Tables_number       1
_space_group_crystal_system       triclinic
_cell_length_a                    15.064747
_cell_length_b                    15.446905
_cell_length_c                    16.978938
_cell_angle_alpha                 90.375888
_cell_angle_beta                  100.989475
_cell_angle_gamma                 97.801135
_cell_volume                      3840.57474616

loop_
_atom_site_label
_atom_site_type_symbol
_atom_site_description
_atom_site_fract_x
_atom_site_fract_y
_atom_site_fract_z
_atom_type_partial_charge
O1    O     O_R   0.615140 0.606020 0.522930 -0.633501
O2    O     O_R   0.384860 0.393980 0.477070 -0.623120
O3    O     O_R   0.468580 0.639400 0.493740 -0.561527
O4    O     O_R   0.531420 0.360600 0.506260 -0.503253
C1    C     C_R   0.557545 0.662083 0.515452 0.923131
C2    C     C_R   0.442658 0.336936 0.483829 0.931800
O5    O     O_R   0.581950 0.481350 0.400520 -0.630892
O6    O     O_R   0.418050 0.518650 0.599480 -0.626584
O7    O     O_R   0.435380 0.514730 0.371330 -0.510807
O8    O     O_R   0.564620 0.485270 0.628670 -0.559128
C3    C     C_R   0.507223 0.489721 0.348929 0.931357
C4    C     C_R   0.490226 0.503989 0.650129 0.939339
Zn1   Zn    Zn3+2 0.597860 0.477710 0.519490 1.032368
Zn2   Zn    Zn3+2 0.402140 0.522290 0.480510 1.034644
C5    C     C_R   0.501859 0.463318 0.263275 -0.268464
C6    C     C_R   0.486647 0.498411 0.734676 -0.225811
C7    C     C_R   0.419207 0.463262 0.205777 0.344738
C8    C     C_R   0.506575 0.419351 0.768930 0.331834
C9    C     C_R   0.415110 0.439633 0.125575 0.338757
C10   C     C_R   0.536250 0.415831 0.850727 0.332441
C11   C     C_R   0.493220 0.419814 0.100791 -0.064497
C12   C     C_R   0.534700 0.488530 0.899932 -0.083994
C13   C     C_R   0.573145 0.412205 0.156264 -0.072746
C14   C     C_R   0.504955 0.566128 0.867471 -0.073107
C15   C     C_R   0.576922 0.430539 0.238146 -0.125408
C16   C     C_R   0.476685 0.570889 0.783153 -0.137633
C17   C     C_2   0.493779 0.417122 0.015445 -0.067302
C18   C     C_2   0.549127 0.478122 0.986192 -0.118676
H1    H     H_    0.593779 0.528401 0.025519 0.152533
H2    H     H_    0.440869 0.373855 0.975611 0.197005
C19   C     C_R   0.592379 0.752826 0.543592 -0.210246
C20   C     C_R   0.406764 0.242088 0.468490 -0.199914
C21   C     C_R   0.665414 0.860614 0.651392 -0.038527
C22   C     C_R   0.282199 0.118359 0.431934 -0.039474
C23   C     C_R   0.650952 0.773560 0.619358 -0.133522
C24   C     C_R   0.312518 0.210193 0.440126 -0.127253
C25   C     C_R   0.550896 0.817781 0.501587 0.311188
C26   C     C_R   0.467934 0.180872 0.486072 0.367793
C27   C     C_R   0.547044 0.896430 0.541226 -0.044796
C28   C     C_R   0.435405 0.092908 0.493140 -0.027984
C29   C     C_R   0.611886 0.923341 0.612796 -0.058187
C30   C     C_R   0.345817 0.058738 0.454618 -0.036557
C31   C     C_R   0.479004 0.948663 0.511376 0.028214
C32   C     C_R   0.493809 0.037042 0.533579 0.017784
C33   C     C_R   0.562320 0.067200 0.599685 -0.120785
C34   C     C_R   0.393542 0.913759 0.465391 -0.172965
C35   C     C_R   0.618263 0.011452 0.641427 0.366100
C36   C     C_R   0.326250 0.966711 0.439402 0.371503
H3    H     H_    0.568657 0.133905 0.622511 0.255396
H4    H     H_    0.376122 0.844019 0.453345 0.223997
N1    N     N_R   0.271750 0.551950 0.454510 -0.146503
N2    N     N_R   0.728250 0.448050 0.545490 -0.134830
C37   C     C_R   0.155614 0.607715 0.361326 -0.177325
C38   C     C_R   0.838562 0.384788 0.640529 -0.193476
C39   C     C_R   0.247530 0.601074 0.390304 0.533877
C40   C     C_R   0.748208 0.392312 0.606090 0.537682
C41   C     C_R   0.210015 0.516891 0.498218 -0.107043
C42   C     C_R   0.795889 0.493822 0.513509 -0.107221
C43   C     C_R   0.118722 0.536394 0.483406 -0.017055
C44   C     C_R   0.889539 0.489319 0.545359 -0.033581
C45   C     C_R   0.091653 0.584218 0.412449 -0.018902
C46   C     C_R   0.909900 0.437768 0.613042 -0.034247
C47   C     C_R   0.052991 0.509052 0.533967 0.006971
C48   C     C_R   0.962852 0.532815 0.511244 0.011963
C49   C     C_R   0.948192 0.598937 0.455016 -0.070194
C50   C     C_R   0.071356 0.464886 0.608970 -0.058304
C51   C     C_R   0.005921 0.615734 0.399410 -0.045364
C52   C     C_R   0.001077 0.441948 0.652429 -0.030682
H5    H     H_    0.775425 0.533123 0.463295 0.160846
H6    H     H_    0.235552 0.474121 0.543156 0.184807
Cl1   Cl    Cl    0.316647 0.489296 0.229601 -0.556484
Cl2   Cl    Cl    0.481579 0.320938 0.709862 -0.529597
C53   C     C_R   0.980385 0.678502 0.335765 0.123457
C54   C     C_R   0.917777 0.649693 0.265142 -0.174974
C55   C     C_R   0.891673 0.708982 0.206290 -0.118686
C56   C     C_R   0.927612 0.797392 0.217695 -0.134611
C57   C     C_R   0.989300 0.826561 0.288136 -0.107411
C58   C     C_R   0.015041 0.767622 0.347470 -0.092629
H7    H     H_    0.890950 0.581239 0.254863 0.115288
H8    H     H_    0.844164 0.686243 0.151614 0.123825
H9    H     H_    0.907966 0.843233 0.171850 0.122792
H10   H     H_    0.017754 0.894674 0.296428 0.185980
H11   H     H_    0.062129 0.790953 0.402217 0.176972
C59   C     C_R   0.024188 0.439641 0.742319 0.137087
C60   C     C_R   0.055568 0.366732 0.782219 -0.126788
C61   C     C_R   0.080472 0.368409 0.865918 -0.123871
C62   C     C_R   0.075263 0.443036 0.910711 -0.074284
C63   C     C_R   0.046238 0.516454 0.871763 -0.165230
C64   C     C_R   0.021688 0.515090 0.788053 -0.193817
H12   H     H_    0.060188 0.308333 0.748852 0.135876
H13   H     H_    0.103759 0.311743 0.896010 0.145258
H14   H     H_    0.094470 0.444270 0.975515 0.169554
H15   H     H_    0.043650 0.574823 0.906384 0.130724
H16   H     H_    0.002899 0.573697 0.758942 0.126330
Cl3   Cl    Cl    0.660766 0.328929 0.642802 -0.466763
Cl4   Cl    Cl    0.332732 0.657953 0.345070 -0.483548
C65   C     C_R   0.128229 0.626380 0.274634 0.157198
C66   C     C_R   0.154285 0.708659 0.244688 -0.029460
C67   C     C_R   0.131160 0.723811 0.162738 -0.109235
C68   C     C_R   0.082623 0.656740 0.109690 -0.109210
C69   C     C_R   0.056877 0.574574 0.138617 -0.108923
C70   C     C_R   0.079226 0.559491 0.220666 -0.093664
H17   H     H_    0.192258 0.760970 0.284846 0.208583
H18   H     H_    0.151133 0.787513 0.140369 0.139543
H19   H     H_    0.065034 0.668408 0.046205 0.114669
H20   H     H_    0.019703 0.522529 0.097424 0.109836
H21   H     H_    0.058027 0.495860 0.241970 0.103825
C71   C     C_R   0.856326 0.313915 0.697619 0.160506
C72   C     C_R   0.840122 0.320363 0.776176 -0.037358
C73   C     C_R   0.857998 0.253587 0.829645 -0.074447
C74   C     C_R   0.891674 0.180006 0.805007 -0.053787
C75   C     C_R   0.905842 0.172249 0.726367 -0.111708
C76   C     C_R   0.887797 0.238753 0.672585 -0.125904
H22   H     H_    0.814888 0.377442 0.796071 0.137281
H23   H     H_    0.846281 0.259133 0.890300 0.133870
H24   H     H_    0.905777 0.128518 0.846549 0.136279
H25   H     H_    0.930924 0.114780 0.707152 0.126737
H26   H     H_    0.899482 0.232392 0.611938 0.126472
C77   C     C_R   0.899557 0.672241 0.473326 0.104568
C78   C     C_R   0.945469 0.734643 0.533155 -0.164027
C79   C     C_R   0.912499 0.813892 0.541374 -0.176765
C80   C     C_R   0.832336 0.830981 0.491074 -0.131976
C81   C     C_R   0.785866 0.769317 0.431633 -0.097939
C82   C     C_R   0.819970 0.690945 0.421822 -0.154637
H27   H     H_    0.008970 0.723364 0.571200 0.134629
H28   H     H_    0.949636 0.862194 0.586384 0.124241
H29   H     H_    0.806525 0.892115 0.497868 0.142642
H30   H     H_    0.724496 0.783058 0.391992 0.178015
H31   H     H_    0.785916 0.646214 0.372742 0.127784
C83   C     C_R   0.158120 0.435089 0.646782 0.092752
C84   C     C_R   0.217050 0.485833 0.709083 -0.110689
C85   C     C_R   0.278520 0.446449 0.765189 -0.116689
C86   C     C_R   0.285738 0.357961 0.756531 -0.055554
C87   C     C_R   0.230614 0.308003 0.692389 -0.110224
C88   C     C_R   0.165059 0.345798 0.639520 -0.200944
H32   H     H_    0.207286 0.552720 0.719182 0.136329
H33   H     H_    0.317862 0.483056 0.817557 0.139233
H34   H     H_    0.332143 0.327558 0.800949 0.161928
H35   H     H_    0.233921 0.238699 0.687160 0.139961
H36   H     H_    0.112656 0.303781 0.599123 0.117717
C89   C     C_R   0.426019 0.644125 0.748584 0.145629
C90   C     C_R   0.446490 0.688890 0.681216 -0.114085
C91   C     C_R   0.396208 0.753823 0.647739 -0.108965
C92   C     C_R   0.325106 0.776483 0.681757 -0.117730
C93   C     C_R   0.303751 0.733537 0.749004 -0.156307
C94   C     C_R   0.353260 0.667770 0.781813 -0.138374
H37   H     H_    0.500835 0.673081 0.653900 0.102552
H38   H     H_    0.411807 0.786085 0.594948 0.134912
H39   H     H_    0.286176 0.826719 0.655632 0.133536
H40   H     H_    0.247732 0.750060 0.775023 0.132529
H41   H     H_    0.331744 0.633478 0.831508 0.128067
C95   C     C_R   0.656251 0.404597 0.294572 0.195887
C96   C     C_R   0.741708 0.456679 0.304932 -0.156732
C97   C     C_R   0.820628 0.422816 0.340955 -0.166113
C98   C     C_R   0.814425 0.338366 0.369971 -0.131035
C99   C     C_R   0.729430 0.286756 0.361284 -0.073870
C100  C     C_R   0.650536 0.319431 0.323284 -0.089342
H42   H     H_    0.747220 0.521406 0.280960 0.113507
H43   H     H_    0.886846 0.461255 0.345428 0.138198
H44   H     H_    0.875563 0.312506 0.398105 0.126756
H45   H     H_    0.725177 0.220460 0.381845 0.176154
H46   H     H_    0.585592 0.277217 0.312935 0.146524
C101  C     C_R   0.651336 0.380495 0.128227 0.173874
C102  C     C_R   0.648573 0.291209 0.110461 -0.095010
C103  C     C_R   0.721532 0.261371 0.083509 -0.073749
C104  C     C_R   0.797343 0.320475 0.073864 -0.093534
C105  C     C_R   0.800352 0.409503 0.091234 -0.133272
C106  C     C_R   0.727667 0.439556 0.118284 -0.151774
H47   H     H_    0.590070 0.244957 0.117602 0.129173
H48   H     H_    0.719216 0.192461 0.069896 0.132567
H49   H     H_    0.853658 0.297325 0.052819 0.111663
H50   H     H_    0.858840 0.455287 0.083530 0.116058
H51   H     H_    0.730623 0.508748 0.131197 0.108454
C107  C     C_R   0.502780 0.640819 0.922790 0.143004
C108  C     C_R   0.438076 0.634973 0.972927 -0.176596
C109  C     C_R   0.437223 0.703789 0.026460 -0.103338
C110  C     C_R   0.501366 0.778847 0.030786 -0.097811
C111  C     C_R   0.566694 0.784836 0.981930 -0.142637
C112  C     C_R   0.567845 0.715920 0.928472 -0.159802
H52   H     H_    0.387703 0.577458 0.969551 0.188401
H53   H     H_    0.386835 0.698902 0.064525 0.177740
H54   H     H_    0.500763 0.832161 0.072277 0.147356
H55   H     H_    0.616915 0.842644 0.985998 0.129427
H56   H     H_    0.620563 0.720596 0.893145 0.116344
Cl5   Cl    Cl    0.577529 0.320015 0.890888 -0.555300
Cl6   Cl    Cl    0.311764 0.437941 0.054395 -0.661894
Cl7   Cl    Cl    0.693185 0.060936 0.727129 -0.595193
Cl8   Cl    Cl    0.225339 0.912769 0.379457 -0.721406
Cl9   Cl    Cl    0.584108 0.205698 0.476810 -0.633749
Cl10  Cl    Cl    0.518243 0.805090 0.395707 -0.577580
C113  C     C_R   0.243893 0.270090 0.414922 0.156150
C114  C     C_R   0.174539 0.273992 0.458661 -0.122924
C115  C     C_R   0.099525 0.316274 0.428464 -0.142926
C116  C     C_R   0.093404 0.355138 0.354150 -0.144478
C117  C     C_R   0.162634 0.352297 0.310239 -0.101905
C118  C     C_R   0.238096 0.310277 0.340572 -0.097986
H57   H     H_    0.176532 0.238692 0.513474 0.121596
H58   H     H_    0.044958 0.317071 0.461540 0.125729
H59   H     H_    0.034156 0.386039 0.330340 0.122068
H60   H     H_    0.156380 0.380355 0.251638 0.182533
H61   H     H_    0.289589 0.305437 0.304724 0.141577
C119  C     C_R   0.696950 0.705414 0.666480 0.140795
C120  C     C_R   0.674073 0.678946 0.739867 -0.189354
C121  C     C_R   0.721445 0.619371 0.786419 -0.107393
C122  C     C_R   0.793898 0.587450 0.760968 -0.100956
C123  C     C_R   0.818211 0.614880 0.688887 -0.168788
C124  C     C_R   0.769223 0.672384 0.641486 -0.074299
H62   H     H_    0.620564 0.705665 0.761498 0.120882
H63   H     H_    0.702974 0.599088 0.842714 0.134093
H64   H     H_    0.831609 0.542328 0.797366 0.126644
H65   H     H_    0.875228 0.592285 0.669534 0.133816
H66   H     H_    0.787021 0.691027 0.585158 0.164255
C125  C     C_R   0.734983 0.882259 0.725667 0.204847
C126  C     C_R   0.710145 0.877036 0.801383 -0.092048
C127  C     C_R   0.776886 0.894953 0.871101 -0.109924
C128  C     C_R   0.868415 0.918359 0.865645 -0.112521
C129  C     C_R   0.893393 0.923900 0.790466 -0.153785
C130  C     C_R   0.826937 0.905741 0.720642 -0.099539
H67   H     H_    0.639307 0.859615 0.806131 0.125345
H68   H     H_    0.757724 0.890911 0.929348 0.113954
H69   H     H_    0.919946 0.932448 0.919663 0.117132
H70   H     H_    0.964210 0.942419 0.786285 0.117033
H71   H     H_    0.846673 0.910767 0.662728 0.110272
C131  C     C_R   0.182435 0.087516 0.410053 0.204868
C132  C     C_R   0.134909 0.054005 0.469403 -0.132102
C133  C     C_R   0.039915 0.032476 0.451396 -0.130430
C134  C     C_R   0.991695 0.045019 0.374428 -0.131440
C135  C     C_R   0.038524 0.077698 0.314908 -0.165064
C136  C     C_R   0.133629 0.098386 0.332359 -0.067683
H72   H     H_    0.171392 0.046078 0.529782 0.119243
H73   H     H_    0.003580 0.006968 0.497335 0.125518
H74   H     H_    0.918104 0.028802 0.360729 0.136081
H75   H     H_    0.001088 0.087012 0.255243 0.129275
H76   H     H_    0.169120 0.124438 0.286035 0.126130

loop_
_geom_bond_atom_site_label_1
_geom_bond_atom_site_label_2
_geom_bond_distance
_ccdc_geom_bond_type
C40   Cl3   1.747363 S    
C2    C20   1.494334 S    
C62   C63   1.396017 A    
C103  C104  1.398165 A    
C86   C87   1.393341 A    
C24   C113  1.484631 S    
C100  H46   1.083061 S    
C53   C54   1.404759 A    
C50   C52   1.410823 A    
C74   C75   1.398646 A    
C22   C30   1.420752 A    
C127  C128  1.397990 A    
C14   C107  1.490685 S    
C131  C132  1.406180 A    
C65   C66   1.406090 A    
C130  H71   1.080542 S    
C27   C29   1.426269 A    
C57   C58   1.397542 A    
C78   C79   1.397846 A    
O5    C3    1.310104 A    
C133  H73   1.082366 S    
C68   H19   1.082206 S    
C69   C70   1.398262 A    
C15   C95   1.484987 S    
O1    C1    1.297049 A    
C20   C24   1.427150 A    
C134  H74   1.082335 S    
C18   H1    1.087043 S    
C9    C11   1.392951 A    
C14   C16   1.419090 A    
C112  H56   1.078125 S    
C61   H13   1.082212 S    
C9    Cl6   1.776607 S    
C60   C61   1.398061 A    
C75   H25   1.082369 S    
C107  C108  1.405875 A    
C5    C15   1.433073 A    
C42   C44   1.422648 A    
C91   C92   1.392289 A    
C66   C67   1.397778 A    
C80   H29   1.082408 S    
C128  H69   1.082252 S    
C71   C72   1.406244 A    
C44   C46   1.411644 A    
C33   C35   1.389757 A    
C96   H42   1.080702 S    
C113  C118  1.403402 A    
C135  C136  1.398292 A    
C57   H10   1.078489 S    
C7    C9    1.395250 A    
C10   Cl5   1.773053 S    
C73   C74   1.398355 A    
C88   H36   1.078676 S    
C3    C5    1.492101 S    
C123  H65   1.074730 S    
O4    Zn1   1.934457 S    
C85   C86   1.394839 A    
C49   C51   1.403570 A    
C77   C82   1.408301 A    
C121  H63   1.082058 S    
C53   C58   1.403170 A    
C118  H61   1.083035 S    
C74   H24   1.082268 S    
C51   C53   1.487384 S    
C20   C26   1.402801 A    
C41   H6    1.063176 S    
C16   C89   1.509685 S    
C50   C83   1.476399 S    
C55   H8    1.082405 S    
N1    C39   1.353412 A    
C65   C70   1.405268 A    
C133  C134  1.397374 A    
C63   C64   1.398004 A    
C28   C30   1.411877 A    
C116  C117  1.397834 A    
C11   C17   1.451073 S    
C47   C50   1.446380 A    
C86   H34   1.082043 S    
C104  H49   1.082379 S    
C12   C18   1.452371 S    
C62   H14   1.082409 S    
C103  H48   1.082278 S    
C17   H2    1.087826 S    
C6    C16   1.426198 A    
C102  C103  1.398710 A    
C102  H47   1.082975 S    
O2    C2    1.311201 A    
C37   C45   1.428875 A    
C4    C6    1.449436 S    
C58   H11   1.082560 S    
C75   C76   1.398778 A    
C22   C131  1.488004 S    
C115  H58   1.081646 S    
C93   C94   1.397638 A    
C13   C101  1.490428 S    
C110  H54   1.082331 S    
C37   C39   1.396227 A    
C8    Cl2   1.771773 S    
C106  H51   1.082908 S    
N2    C42   1.361415 A    
C34   C36   1.396673 A    
C43   C45   1.438626 A    
C79   C80   1.397757 A    
C119  C120  1.403809 A    
C47   C48   1.436995 A    
C113  C114  1.399683 A    
C52   C59   1.501118 S    
C111  C112  1.398476 A    
C81   C82   1.398604 A    
C59   C60   1.408275 A    
C128  C129  1.397891 A    
O4    C2    1.318335 A    
C84   H32   1.080318 S    
C54   C55   1.397086 A    
C105  C106  1.397259 A    
O7    Zn2   2.016871 S    
C21   C125  1.481905 S    
C126  C127  1.398254 A    
C92   C93   1.392574 A    
C27   C31   1.410782 A    
C38   C46   1.414205 A    
C37   C65   1.492056 S    
C129  C130  1.397613 A    
C125  C126  1.405623 A    
C44   C48   1.433286 A    
C76   H26   1.083256 S    
C79   H28   1.081627 S    
C94   H41   1.077550 S    
C71   C76   1.404701 A    
C109  H53   1.082476 S    
C55   C56   1.396953 A    
C92   H39   1.082482 S    
Zn1   N2    2.044405 S    
C45   C51   1.420275 A    
C134  C135  1.398433 A    
O5    Zn1   1.990353 S    
O6    C4    1.298456 A    
C26   Cl9   1.777154 S    
C129  H70   1.082261 S    
C33   H3    1.083961 S    
C29   C35   1.426873 A    
C70   H21   1.078153 S    
C23   C119  1.491995 S    
C36   Cl8   1.759634 S    
C30   C36   1.423665 A    
C114  H57   1.079276 S    
C56   C57   1.397353 A    
C77   C78   1.406317 A    
O7    C3    1.316730 A    
C97   C98   1.394999 A    
C108  H52   1.080816 S    
O3    Zn2   1.934454 S    
O8    C4    1.309457 A    
C72   H22   1.082618 S    
N1    C41   1.356699 A    
C89   C94   1.412398 A    
C109  C110  1.396800 A    
C83   C88   1.403687 A    
C10   C12   1.400641 A    
C99   H45   1.081712 S    
C110  C111  1.397404 A    
C127  H68   1.081695 S    
C119  C124  1.396408 A    
C11   C13   1.399351 A    
C31   C32   1.390731 A    
C104  C105  1.397469 A    
C12   C14   1.414795 A    
O1    Zn1   1.962673 S    
C59   C64   1.404942 A    
C35   Cl7   1.760860 S    
C84   C85   1.399760 A    
C111  H55   1.081848 S    
C87   H35   1.082268 S    
C25   Cl10  1.773203 S    
C32   C33   1.401077 A    
C61   C62   1.396149 A    
C117  H60   1.080597 S    
C54   H7    1.080072 S    
C69   H20   1.081745 S    
C5    C7    1.428170 A    
C122  C123  1.395395 A    
C95   C100  1.403352 A    
C99   C100  1.399418 A    
O6    Zn2   1.990354 S    
C132  C133  1.398096 A    
C98   H44   1.081985 S    
C123  C124  1.393646 A    
C90   H37   1.068910 S    
C93   H40   1.082415 S    
C39   Cl4   1.757234 S    
O3    C1    1.318085 A    
O8    Zn1   2.016870 S    
C56   H9    1.082224 S    
C64   H16   1.079849 S    
C60   H12   1.079325 S    
C38   C40   1.395912 A    
C7    Cl1   1.765598 S    
C105  H50   1.081486 S    
C46   C52   1.401143 A    
C120  H62   1.075284 S    
C34   H4    1.082168 S    
C87   C88   1.395466 A    
C43   C47   1.453003 A    
C132  H72   1.083103 S    
C67   C68   1.396533 A    
C38   C71   1.484686 S    
C42   H5    1.071388 S    
C126  H67   1.083000 S    
C125  C130  1.402451 A    
C21   C29   1.427417 A    
C48   C49   1.413173 A    
C83   C84   1.401302 A    
C80   C81   1.397482 A    
C101  C106  1.405115 A    
C97   H43   1.078504 S    
C25   C27   1.398414 A    
C108  C109  1.397051 A    
C131  C136  1.405569 A    
C114  C115  1.396555 A    
C26   C28   1.394488 A    
C81   H30   1.081995 S    
C124  H66   1.072359 S    
C136  H76   1.082829 S    
N2    C40   1.361742 A    
C122  H64   1.081561 S    
C107  C112  1.403431 A    
C19   C23   1.421675 A    
C68   C69   1.396323 A    
C21   C23   1.420295 A    
C22   C24   1.427438 A    
C63   H15   1.082275 S    
C82   H31   1.080861 S    
C67   H18   1.082202 S    
C8    C10   1.379321 A    
C13   C15   1.405909 A    
C78   H27   1.083451 S    
O2    Zn2   1.962676 S    
C31   C34   1.407347 A    
C91   H38   1.077667 S    
C49   C77   1.490995 S    
C101  C102  1.403236 A    
C41   C43   1.423753 A    
C117  C118  1.400138 A    
C116  H59   1.080988 S    
C19   C25   1.384057 A    
C28   C32   1.404921 A    
C121  C122  1.394395 A    
Zn2   N1    2.044405 S    
C6    C8    1.400744 A    
C115  C116  1.393409 A    
C72   C73   1.398274 A    
C98   C99   1.395051 A    
C90   C91   1.397311 A    
C95   C96   1.402199 A    
C85   H33   1.078472 S    
C120  C121  1.397734 A    
C1    C19   1.471179 S    
C96   C97   1.398928 A    
C89   C90   1.403062 A    
C73   H23   1.082300 S    
C66   H17   1.078740 S    
C17   C18   1.334366 D    
C135  H75   1.082193 S    
