data_mof_unit_16911.cif
_audit_creation_date              2012-12-10T18:12:44-0500
_audit_creation_method            fapswitch 2.2
_symmetry_space_group_name_H-M    P1
_symmetry_Int_Tables_number       1
_space_group_crystal_system       triclinic
_cell_length_a                    12.617378
_cell_length_b                    13.14312
_cell_length_c                    15.719079
_cell_angle_alpha                 90.665329
_cell_angle_beta                  102.77611
_cell_angle_gamma                 82.323586
_cell_volume                      2518.96783418

loop_
_atom_site_label
_atom_site_type_symbol
_atom_type_description
_atom_site_fract_x
_atom_site_fract_y
_atom_site_fract_z
_atom_type_partial_charge
C1    C     C_R   0.438789 0.691140 0.486818 0.847514
C2    C     C_R   0.596423 0.200164 0.501207 -0.046643
C3    C     C_R   0.300399 0.838142 0.499708 -0.191349
C4    C     C_R   0.501091 0.500277 0.661906 0.906680
C5    C     C_R   0.272003 0.942880 0.507832 -0.148823
C6    C     C_R   0.345368 0.010147 0.499146 -0.193125
C7    C     C_R   0.447040 0.973406 0.477763 0.084612
C8    C     C_R   0.467268 0.869449 0.456189 0.083294
C9    C     C_R   0.529357 0.036276 0.477026 0.076980
C10   C     C_R   0.621398 0.000048 0.441634 0.174391
C11   C     C_R   0.631399 0.901307 0.408717 -0.254018
C12   C     C_3   0.502632 0.498583 0.917614 0.140519
C13   C     C_R   0.555287 0.836633 0.415813 -0.200693
C14   C     C_R   0.523440 0.133892 0.512104 -0.258261
C15   C     C_R   0.687555 0.164857 0.466697 -0.205577
C16   C     C_R   0.561036 0.308797 0.508675 0.857715
C17   C     C_R   0.399565 0.800698 0.476830 -0.110890
C18   C     C_R   0.088976 0.343878 0.382005 -0.311026
C19   C     C_R   0.799133 0.631467 0.601060 0.026045
C20   C     C_R   0.903228 0.661065 0.621612 -0.252564
C21   C     C_R   0.984838 0.611479 0.583211 -0.197591
C22   C     C_R   0.962389 0.531391 0.523812 0.016239
C23   C     C_3   0.481173 0.405940 0.023619 -0.146868
C24   C     C_R   0.854783 0.504117 0.505165 0.234993
C25   C     C_R   0.041821 0.477595 0.482278 -0.015113
C26   C     C_R   0.012059 0.397969 0.423382 0.195304
C27   C     C_R   0.905934 0.372844 0.406404 -0.295223
C28   C     C_R   0.498944 0.499684 0.338110 0.885726
C29   C     C_R   0.828617 0.425264 0.446751 -0.209486
C30   C     C_R   0.150391 0.499033 0.496742 -0.049717
C31   C     C_R   0.194780 0.368752 0.399297 0.011231
C32   C     C_3   0.419854 0.571623 0.014011 -0.173960
C33   C     C_3   0.519557 0.589025 0.977882 0.271988
C34   C     C_3   0.498549 0.498804 0.082685 0.169998
C35   C     C_1   0.503519 0.500168 0.751384 -0.184121
C36   C     C_1   0.496917 0.498948 0.248721 -0.185349
C37   C     C_3   0.403036 0.478652 0.953074 -0.195033
C38   C     C_3   0.549142 0.764887 0.015836 -0.803509
C39   C     C_3   0.580827 0.426020 0.986591 -0.203294
C40   C     C_3   0.598737 0.518662 0.047778 -0.212699
C41   C     C_1   0.503964 0.499577 0.826842 -0.072894
C42   C     C_1   0.496880 0.498655 0.173336 -0.067219
C43   C     C_R   0.701070 0.064053 0.438359 -0.202226
H1    H     H_    0.459665 0.162180 0.545533 0.149821
H2    H     H_    0.735222 0.669959 0.630444 0.141569
H3    H     H_    0.354835 0.631529 0.026993 0.134477
H4    H     H_    0.064068 0.637511 0.601238 0.135710
H5    H     H_    0.920592 0.722392 0.667027 0.150128
H6    H     H_    0.748726 0.402321 0.430991 0.209753
H7    H     H_    0.677982 0.536364 0.087986 0.140310
H8    H     H_    0.645964 0.366416 0.973350 0.145706
H9    H     H_    0.465176 0.330265 0.044844 0.137433
H10   H     H_    0.323660 0.461734 0.912534 0.145983
H11   H     H_    0.744746 0.216048 0.457637 0.148444
H12   H     H_    0.246468 0.786275 0.514051 0.151654
H13   H     H_    0.699085 0.873399 0.378804 0.149918
H14   H     H_    0.771105 0.037490 0.410763 0.134652
H15   H     H_    0.604273 0.680853 0.917644 0.224345
H16   H     H_    0.559946 0.838475 0.986970 0.242590
H17   H     H_    0.620833 0.741496 0.070297 0.234523
H18   H     H_    0.473170 0.777433 0.041367 0.247484
H19   H     H_    0.319213 0.090515 0.507309 0.134957
H20   H     H_    0.194899 0.971729 0.524603 0.142273
H21   H     H_    0.565378 0.761043 0.388334 0.172839
H22   H     H_    0.255681 0.327464 0.368299 0.137252
H23   H     H_    0.882436 0.312188 0.361664 0.150915
H24   H     H_    0.067547 0.282910 0.337049 0.143416
H25   H     H_    0.180786 0.557585 0.540290 0.124858
N1    N     N_R   0.222180 0.444680 0.455580 -0.102050
N2    N     N_R   0.776980 0.554790 0.543960 -0.131493
N3    N     N_2   0.540751 0.687270 0.949696 -0.307112
O1    O     O_R   0.366730 0.627160 0.478790 -0.616073
O2    O     O_R   0.544830 0.662520 0.507160 -0.618745
O3    O     O_R   0.410960 0.482330 0.609040 -0.611869
O4    O     O_R   0.589060 0.517690 0.637410 -0.612488
O5    O     O_R   0.455170 0.337480 0.492840 -0.616465
O6    O     O_R   0.633270 0.372840 0.521210 -0.635233
O7    O     O_R   0.410940 0.482310 0.362590 -0.607803
O8    O     O_R   0.589040 0.517670 0.390960 -0.636723
Zn1   Zn    Zn3+2 0.381080 0.476390 0.481050 0.940963
Zn2   Zn    Zn3+2 0.618920 0.523610 0.518950 0.928122

loop_
_geom_bond_atom_site_label_1
_geom_bond_atom_site_label_2
_ccdc_geom_bond_type
C39   H8    S    
C8    C13   A    
C27   C29   A    
C36   C42   T    
C19   C20   A    
C34   C42   S    
C24   N2    A    
C7    C8    A    
C29   H6    S    
C26   C27   A    
C34   C40   S    
C5    C6    A    
O7    Zn1   S    
H15   N3    S    
C5    H20   S    
C31   H22   S    
C16   O6    A    
C12   C37   S    
N2    Zn2   S    
C28   O8    A    
C24   C29   A    
C4    O4    A    
C3    H12   S    
C22   C25   A    
C18   C26   A    
C28   O7    A    
C9    C10   A    
C4    O3    A    
C38   H18   S    
C37   H10   S    
C4    C35   S    
O3    Zn1   S    
C21   C22   A    
C2    C14   A    
O2    Zn2   S    
C1    O1    A    
C33   C40   S    
C15   H11   S    
C39   C40   S    
O8    Zn2   S    
C43   H14   S    
O4    Zn2   S    
C18   H24   S    
C23   C37   S    
C32   C34   S    
C9    C14   A    
C12   C41   S    
O6    Zn2   S    
C23   C34   S    
C32   C37   S    
C2    C15   A    
C20   H5    S    
C38   H17   S    
C22   C24   A    
C30   N1    A    
C2    C16   S    
C14   H1    S    
C25   C30   A    
C7    C9    A    
C38   N3    S    
C10   C43   A    
C16   O5    A    
C32   H3    S    
O5    Zn1   S    
C3    C5    A    
C19   H2    S    
C6    C7    A    
C1    C17   S    
C8    C17   A    
C1    O2    A    
C32   C33   S    
C6    H19   S    
C12   C39   S    
C25   C26   A    
C15   C43   A    
O1    Zn1   S    
C27   H23   S    
C11   C13   A    
C23   H9    S    
C13   H21   S    
C40   H7    S    
C3    C17   A    
C35   C41   T    
C10   C11   A    
C33   N3    S    
C38   H16   S    
C31   N1    A    
C20   C21   A    
C28   C36   S    
N1    Zn1   S    
C18   C31   A    
C12   C33   S    
C19   N2    A    
C23   C39   S    
C30   H25   S    
C11   H13   S    
C21   H4    S    
