data_mof_unit_64491.cif
_audit_creation_date              2012-12-10T16:57:55-0500
_audit_creation_method            fapswitch 2.2
_symmetry_space_group_name_H-M    P1
_symmetry_Int_Tables_number       1
_space_group_crystal_system       triclinic
_cell_length_a                    12.918992
_cell_length_b                    13.128943
_cell_length_c                    15.160216
_cell_angle_alpha                 86.308881
_cell_angle_beta                  100.075247
_cell_angle_gamma                 90.639929
_cell_volume                      2526.46013218

loop_
_atom_site_label
_atom_site_type_symbol
_atom_type_description
_atom_site_fract_x
_atom_site_fract_y
_atom_site_fract_z
_atom_type_partial_charge
C1    C     C_R   0.464586 0.773347 0.465328 0.524155
C2    C     C_2   0.526273 0.058148 0.473465 0.215960
C3    C     C_2   0.458610 0.884165 0.444982 -0.109252
C4    C     C_R   0.536091 0.227066 0.533281 0.554514
C5    C     C_2   0.527658 0.946270 0.491714 -0.158022
C6    C     C_2   0.107635 0.468135 0.478138 -0.053278
C7    C     C_2   0.047342 0.549160 0.444274 -0.033593
C8    C     C_2   0.892068 0.555558 0.524427 -0.022422
C9    C     C_2   0.932533 0.552416 0.446453 -0.010405
C10   C     C_R   0.777828 0.537759 0.523577 0.433995
C11   C     C_R   0.221693 0.466711 0.475913 0.527146
C12   C     C_R   0.374314 0.470943 0.111286 -0.108799
C13   C     C_R   0.513300 0.517669 0.740975 0.552925
C14   C     C_R   0.485024 0.481663 0.258823 0.510655
C15   C     C_R   0.521257 0.521398 0.838028 0.031079
C16   C     C_R   0.474820 0.475990 0.162320 0.021361
C17   C     C_R   0.360413 0.478578 0.018586 -0.129885
C18   C     C_2   0.325796 0.496591 0.824233 0.254783
C19   C     C_2   0.862634 0.558832 0.356922 0.265319
C20   C     C_2   0.957910 0.572224 0.613148 0.228075
C21   C     C_2   0.744135 0.549451 0.030300 0.237863
C22   C     C_R   0.562361 0.489157 0.120570 -0.091409
C23   C     C_R   0.549764 0.503949 0.026448 0.046693
C24   C     C_R   0.447026 0.494609 0.974351 0.001619
C25   C     C_R   0.432706 0.503974 0.879647 -0.000943
C26   C     C_R   0.620725 0.534856 0.889302 -0.171272
C27   C     C_R   0.636272 0.528209 0.982813 0.001451
C28   C     C_2   0.545182 0.116194 0.544005 -0.014384
H1    H     H_    0.555771 0.080799 0.611836 0.050138
H2    H     H_    0.271135 0.438213 0.840950 0.097751
H3    H     H_    0.780660 0.580466 0.349816 0.123925
H4    H     H_    0.924105 0.559192 0.673607 0.116432
H5    H     H_    0.811305 0.528959 0.000971 0.113296
H6    H     H_    0.501334 0.049466 0.344314 0.329879
H7    H     H_    0.080275 0.611432 0.407284 0.166280
H8    H     H_    0.074165 0.405707 0.514546 0.116596
H9    H     H_    0.687462 0.549707 0.855706 0.115228
H10   H     H_    0.280613 0.474668 0.982785 0.111661
H11   H     H_    0.305901 0.462065 0.143528 0.140255
H12   H     H_    0.638815 0.491202 0.162779 0.183435
H13   H     H_    0.584010 0.915253 0.548677 0.145097
H14   H     H_    0.399084 0.914628 0.390285 0.127871
O1    O     O_3   0.500000 0.500000 0.500000 -0.449612
O2    O     O_R   0.563230 0.581310 0.697440 -0.537333
O3    O     O_R   0.421030 0.536630 0.288090 -0.539016
O4    O     O_R   0.459330 0.447650 0.700640 -0.521862
O5    O     O_R   0.556410 0.434400 0.313840 -0.529671
O6    O     O_2   0.297632 0.556697 0.759818 -0.449777
O7    O     O_2   0.896860 0.541311 0.289266 -0.459221
O8    O     O_2   0.048336 0.602942 0.620088 -0.467206
O9    O     O_2   0.759308 0.595989 0.098529 -0.465580
O10   O     O_3   0.502489 0.103316 0.387346 -0.667320
O11   O     O_R   0.733070 0.467190 0.476550 -0.550005
O12   O     O_R   0.261010 0.525210 0.419080 -0.535585
O13   O     O_R   0.532760 0.736590 0.530220 -0.531371
O14   O     O_R   0.473150 0.271000 0.574150 -0.551661
O15   O     O_R   0.407210 0.713280 0.414580 -0.530104
O16   O     O_R   0.586880 0.279120 0.481060 -0.491973
O17   O     O_R   0.723250 0.592730 0.566440 -0.543339
O18   O     O_R   0.282660 0.414860 0.537920 -0.513111
Zn1   Zn    Zn3+2 0.592480 0.421540 0.443840 0.973372
Zn2   Zn    Zn3+2 0.578450 0.600910 0.572270 0.955251
Zn3   Zn    Zn3+2 0.430000 0.409940 0.576840 0.988189
Zn4   Zn    Zn3+2 0.399070 0.567610 0.407050 0.975161

loop_
_geom_bond_atom_site_label_1
_geom_bond_atom_site_label_2
_ccdc_geom_bond_type
C12   C17   A    
O5    Zn1   S    
C20   O8    D    
C23   C24   A    
C26   H9    S    
C6    C7    D    
C18   H2    S    
C1    O15   A    
C2    C28   D    
C19   O7    D    
O3    Zn4   S    
H6    O10   S    
O4    Zn3   S    
C19   H3    S    
C12   H11   S    
C10   O17   A    
C1    O13   A    
O14   Zn3   S    
C22   H12   S    
C3    H14   S    
C4    O14   A    
C18   C25   S    
O1    Zn1   S    
C26   C27   A    
C8    C20   S    
C11   O12   A    
C2    O10   S    
O16   Zn1   S    
O18   Zn3   S    
C28   H1    S    
C4    C28   S    
C6    H8    S    
O1    Zn4   S    
C14   O3    A    
C23   C27   A    
C17   H10   S    
C13   C15   S    
C21   C27   S    
C13   O4    A    
C14   C16   S    
C15   C25   A    
C2    C5    S    
C21   H5    S    
O1    Zn3   S    
C11   O18   A    
C17   C24   A    
O13   Zn2   S    
C3    C5    D    
C21   O9    D    
C24   C25   A    
O12   Zn4   S    
O15   Zn4   S    
C8    C10   S    
C20   H4    S    
C4    O16   A    
C6    C11   S    
C7    C9    S    
C10   O11   A    
C5    H13   S    
C22   C23   A    
C15   C26   A    
C16   C22   A    
O17   Zn2   S    
O2    Zn2   S    
C14   O5    A    
C7    H7    S    
O11   Zn1   S    
C9    C19   S    
C13   O2    A    
C12   C16   A    
O1    Zn2   S    
C8    C9    D    
C1    C3    S    
C18   O6    D    
