data_mof_unit_7045.cif
_audit_creation_date              2012-10-26T18:50:46-0400
_audit_creation_method            fapswitch 2.2
_symmetry_space_group_name_H-M    P1
_symmetry_Int_Tables_number       1
_space_group_crystal_system       triclinic
_cell_length_a                    12.450177
_cell_length_b                    13.19962
_cell_length_c                    17.177171
_cell_angle_alpha                 107.407395
_cell_angle_beta                  74.905992
_cell_angle_gamma                 117.383441
_cell_volume                      2366.4980318

loop_
_atom_site_label
_atom_site_type_symbol
_atom_type_description
_atom_site_fract_x
_atom_site_fract_y
_atom_site_fract_z
_atom_type_partial_charge
C1    C     C_R   0.144079 0.714006 0.508425 0.540370
C2    C     C_R   0.028851 0.507289 0.262927 -0.017255
C3    C     C_R   0.717938 0.974966 0.371995 -0.079294
C4    C     C_R   0.986191 0.502014 0.652218 0.583191
C5    C     C_R   0.774582 0.160110 0.469953 -0.009116
C6    C     C_R   0.184000 0.921174 0.569121 -0.132075
C7    C     C_R   0.263456 0.038484 0.585224 -0.146116
C8    C     C_R   0.386808 0.074028 0.552689 -0.053688
C9    C     C_R   0.432818 0.992300 0.501602 0.067167
C10   C     C_R   0.347637 0.876698 0.474862 0.013513
C11   C     C_R   0.559685 0.022654 0.472660 0.067418
C12   C     C_R   0.927136 0.573040 0.800397 -0.173207
C13   C     C_R   0.595035 0.945332 0.405302 -0.041166
C14   C     C_R   0.507445 0.838031 0.371958 -0.136149
C15   C     C_R   0.385820 0.803236 0.406952 -0.108627
C16   C     C_R   0.856226 0.285334 0.487239 0.539490
C17   C     C_R   0.652620 0.124401 0.510295 0.208215
C18   C     C_R   0.807941 0.081437 0.403060 0.193716
C19   C     C_R   0.225363 0.838874 0.515194 -0.002775
C20   C     C_R   0.670494 0.703823 0.614392 -0.155378
C21   C     C_R   0.247759 0.350227 0.386950 -0.009924
C22   C     C_R   0.352333 0.331016 0.352252 -0.085693
C23   C     C_R   0.033074 0.619043 0.171296 0.225881
C24   C     C_R   0.460354 0.399787 0.386276 0.279481
C25   C     C_R   0.459602 0.478742 0.463878 -0.045272
C26   C     C_R   0.353973 0.504615 0.493367 0.170371
C27   C     C_R   0.561050 0.537114 0.510975 0.006561
C28   C     C_R   0.013120 0.496698 0.347766 0.521496
C29   C     C_R   0.570227 0.639091 0.571174 -0.040744
C30   C     C_R   0.476111 0.673350 0.592150 -0.142927
C31   C     C_R   0.365308 0.603178 0.561521 0.288035
C32   C     C_R   0.651862 0.496871 0.503707 0.388132
C33   C     C_R   0.760529 0.664612 0.600614 0.021348
C34   C     C_R   0.009578 0.597585 0.250373 -0.152863
C35   C     C_R   0.979704 0.504495 0.739034 0.052210
C36   C     C_R   0.029075 0.441727 0.761289 0.238839
C37   C     C_R   0.029940 0.453461 0.844852 -0.057747
C38   C     C_R   0.983674 0.527331 0.905391 0.027922
C39   C     C_R   0.928648 0.583890 0.883221 -0.128031
C40   C     C_R   0.072080 0.436410 0.195153 0.230136
C41   C     C_R   0.097864 0.459935 0.116964 -0.109080
C42   C     C_R   0.076547 0.548774 0.104535 0.006475
C43   C     C_2   0.987827 0.541567 0.992502 -0.023593
C44   C     C_2   0.088002 0.557974 0.019293 0.269561
Cu1   Cu    Cu3+1 0.900140 0.524980 0.518800 0.960445
Cu2   Cu    Cu3+1 0.099860 0.475020 0.481200 1.026904
H1    H     H_    0.229915 0.101991 0.624783 0.131164
H2    H     H_    0.744501 0.915582 0.320549 0.151211
H3    H     H_    0.700045 0.231069 0.614594 0.336031
H4    H     H_    0.090292 0.894687 0.599587 0.127384
H5    H     H_    0.443289 0.166585 0.565098 0.208857
H6    H     H_    0.321577 0.719943 0.377857 0.147824
H7    H     H_    0.978567 0.653076 0.302518 0.124165
H8    H     H_    0.484584 0.751200 0.639785 0.111877
H9    H     H_    0.712724 0.393183 0.423444 0.368407
H10   H     H_    0.632890 0.477077 0.348672 0.320676
H11   H     H_    0.292796 0.700253 0.647979 0.303866
H12   H     H_    0.839645 0.715289 0.632341 0.124258
H13   H     H_    0.034352 0.314065 0.251827 0.348989
H14   H     H_    0.258900 0.585791 0.997565 0.329021
H15   H     H_    0.889869 0.638813 0.929897 0.137951
H16   H     H_    0.984439 0.748475 0.211036 0.329228
H17   H     H_    0.887879 0.620876 0.784249 0.135499
H18   H     H_    0.904566 0.534532 0.035530 0.117321
H19   H     H_    0.066033 0.404411 0.862736 0.136684
H20   H     H_    0.678382 0.783665 0.659445 0.112216
H21   H     H_    0.167136 0.300989 0.356745 0.165938
H22   H     H_    0.352095 0.268447 0.294589 0.155964
H23   H     H_    0.105378 0.332189 0.727401 0.316765
H24   H     H_    0.128861 0.404503 0.064752 0.156122
H25   H     H_    0.977954 0.136450 0.408583 0.337406
H26   H     H_    0.533446 0.779370 0.319597 0.121463
N1    N     N_R   0.749710 0.562810 0.547300 -0.233649
N2    N     N_R   0.249640 0.437820 0.453210 -0.232081
O1    O     O_R   0.025490 0.682370 0.523640 -0.522298
O2    O     O_3   0.926337 0.106799 0.364663 -0.697258
O3    O     O_3   0.624702 0.183479 0.588546 -0.704597
O4    O     O_3   0.634816 0.386593 0.459359 -0.643877
O5    O     O_3   0.566111 0.398289 0.336115 -0.665876
O6    O     O_3   0.269546 0.631607 0.601660 -0.633265
O7    O     O_3   0.086992 0.342073 0.201769 -0.676226
O8    O     O_3   0.196103 0.573092 0.965821 -0.698993
O9    O     O_3   0.015555 0.708136 0.157805 -0.689912
O10   O     O_R   0.194150 0.640180 0.491890 -0.453036
O11   O     O_R   0.905900 0.523560 0.631310 -0.526443
O12   O     O_R   0.074570 0.481370 0.599560 -0.367165
O13   O     O_R   0.805850 0.359820 0.508110 -0.465432
O14   O     O_R   0.974510 0.317630 0.476360 -0.507042
O15   O     O_R   0.925430 0.518630 0.400440 -0.534809
O16   O     O_R   0.094100 0.476440 0.368690 -0.502633
O17   O     O_3   0.074055 0.368675 0.701061 -0.677851

loop_
_geom_bond_atom_site_label_1
_geom_bond_atom_site_label_2
_ccdc_geom_bond_type
H16   O9    S    
C33   H12   S    
C27   C29   A    
C41   C42   A    
C35   C36   A    
C31   O6    S    
Cu1   Cu2   S    
C1    O10   A    
C6    C19   A    
C30   H8    S    
C37   C38   A    
C23   C42   A    
C23   O9    S    
C20   H20   S    
C36   C37   A    
Cu1   O13   S    
C44   O8    S    
C10   C15   A    
H25   O2    S    
C4    O12   A    
C3    H2    S    
C3    C18   A    
Cu1   N1    S    
C5    C16   S    
H14   O8    S    
C8    C9    A    
C37   H19   S    
C16   O13   A    
C28   O15   A    
Cu1   O15   S    
C9    C10   A    
C3    C13   A    
C2    C34   A    
C4    C35   S    
C26   C31   A    
C21   C22   A    
C21   H21   S    
H11   O6    S    
C42   C44   S    
C43   H18   S    
Cu2   O14   S    
C20   C29   A    
C39   H15   S    
C1    C19   S    
C1    O1    A    
C7    C8    A    
C24   C25   A    
C32   N1    A    
C12   H17   S    
C4    O11   A    
C25   C26   A    
C21   N2    A    
C7    H1    S    
Cu1   O11   S    
C43   C44   D    
C29   C30   A    
C24   O5    S    
C10   C19   A    
C23   C34   A    
C17   O3    S    
C15   H6    S    
C6    H4    S    
C12   C35   A    
C9    C11   A    
C8    H5    S    
C22   H22   S    
Cu2   O10   S    
C20   C33   A    
C36   O17   S    
C33   N1    A    
C40   C41   A    
C22   C24   A    
Cu2   N2    S    
H9    O4    S    
C11   C17   A    
C18   O2    S    
C27   C32   A    
C14   H26   S    
C40   O7    S    
H13   O7    S    
C28   O16   A    
C6    C7    A    
Cu2   O16   S    
C25   C27   A    
Cu1   O1    S    
C12   C39   A    
H10   O5    S    
C38   C43   S    
H23   O17   S    
C11   C13   A    
C30   C31   A    
C38   C39   A    
C5    C18   A    
C26   N2    A    
H3    O3    S    
C32   O4    S    
C2    C40   A    
C5    C17   A    
C34   H7    S    
C16   O14   A    
C14   C15   A    
C2    C28   S    
C13   C14   A    
C41   H24   S    
Cu2   O12   S    
