data_mof_unit_49916.cif
_audit_creation_date              2012-12-11T17:39:24-0500
_audit_creation_method            fapswitch 2.2
_symmetry_space_group_name_H-M    P1
_symmetry_Int_Tables_number       1
_space_group_crystal_system       triclinic
_cell_length_a                    15.120481
_cell_length_b                    14.946122
_cell_length_c                    14.954058
_cell_angle_alpha                 108.427521
_cell_angle_beta                  110.235382
_cell_angle_gamma                 110.037717
_cell_volume                      2591.71148657

loop_
_atom_site_label
_atom_site_type_symbol
_atom_type_description
_atom_site_fract_x
_atom_site_fract_y
_atom_site_fract_z
_atom_type_partial_charge
C1    C     C_R   0.909405 0.972665 0.721942 -0.125807
C2    C     C_R   0.909856 0.705118 0.511986 -0.134112
C3    C     C_R   0.751542 0.779545 0.187233 -0.124660
C4    C     C_R   0.090561 0.315898 0.555092 -0.132250
C5    C     C_R   0.258719 0.944194 0.535941 -0.141230
C6    C     C_R   0.725510 0.676916 0.177146 0.127997
C7    C     C_R   0.288024 0.966239 0.463965 0.050215
C8    C     C_R   0.000707 0.704859 0.577750 0.066756
C9    C     C_R   0.994783 0.065456 0.196044 0.071549
C10   C     C_R   0.483943 0.601539 0.282632 -0.101261
C11   C     C_R   0.476256 0.695339 0.300645 -0.149580
C12   C     C_R   0.997203 0.325475 0.534244 0.052070
C13   C     C_R   0.446009 0.736169 0.376439 0.118692
C14   C     C_R   0.417686 0.677513 0.429025 -0.162078
C15   C     C_R   0.422300 0.581623 0.408082 -0.125063
C16   C     C_R   0.302196 0.208191 0.799294 -0.140898
C17   C     C_R   0.456398 0.544207 0.335704 -0.082198
C18   C     C_R   0.364931 0.853420 0.413996 -0.250846
C19   C     C_R   0.371793 0.955333 0.447325 0.074720
C20   C     C_R   0.462160 0.048390 0.470576 0.007832
C21   C     C_R   0.543054 0.036579 0.457202 -0.248838
C22   C     C_R   0.539340 0.936721 0.428395 0.068195
C23   C     C_R   0.364386 0.302284 0.801679 0.141506
C24   C     C_R   0.449981 0.842838 0.405392 0.023169
C25   C     C_R   0.460504 0.215041 0.467735 -0.193651
C26   C     C_R   0.492289 0.325410 0.522704 -0.110669
C27   C     C_R   0.552278 0.384439 0.637135 -0.105412
C28   C     C_R   0.699265 0.999012 0.406244 -0.169874
C29   C     C_R   0.579762 0.332848 0.696560 -0.099691
C30   C     C_R   0.545849 0.221915 0.641926 -0.138967
C31   C     C_R   0.486027 0.162231 0.527084 0.133139
C32   C     C_R   0.694731 0.234874 0.219507 -0.129119
C33   C     C_R   0.791494 0.314729 0.318902 -0.127513
C34   C     C_R   0.639154 0.942535 0.440290 0.056816
C35   C     C_R   0.793438 0.336897 0.418338 0.102902
C36   C     C_R   0.697109 0.279253 0.416993 -0.187059
C37   C     C_R   0.601622 0.196683 0.317289 -0.112378
C38   C     C_R   0.600206 0.175057 0.218768 -0.126670
C39   C     C_R   0.897289 0.526318 0.555577 -0.225569
C40   C     C_R   0.301092 0.300389 0.708315 -0.126747
C41   C     C_R   0.997710 0.623126 0.613723 0.048095
C42   C     C_R   0.093175 0.624683 0.677163 0.031102
C43   C     C_R   0.088572 0.524848 0.656839 -0.243078
C44   C     C_R   0.992132 0.426071 0.572063 0.067581
C45   C     C_R   0.751463 0.686890 0.279223 -0.160045
C46   C     C_R   0.893984 0.427498 0.522357 0.020578
C47   C     C_R   0.288787 0.747246 0.741733 -0.200594
C48   C     C_R   0.379543 0.852912 0.800277 -0.117674
C49   C     C_R   0.383512 0.938548 0.878127 -0.114114
C50   C     C_R   0.296976 0.918623 0.898086 -0.138528
C51   C     C_R   0.204528 0.813845 0.837578 -0.138819
C52   C     C_R   0.698758 0.909489 0.500257 -0.129261
C53   C     C_R   0.198747 0.727950 0.757053 0.119619
C54   C     C_2   0.533840 0.472151 0.881910 -0.143171
C55   C     C_2   0.480612 0.378057 0.879416 -0.191281
C56   C     C_R   0.250022 0.030757 0.437360 -0.101313
C57   C     C_2   0.635489 0.567369 0.979240 -0.126532
C58   C     C_2   0.671111 0.573572 0.077531 -0.182527
C59   C     C_R   0.396742 0.275532 0.112437 -0.179555
C60   C     C_R   0.295153 0.211426 0.098821 0.327462
C61   C     C_R   0.207811 0.229423 0.052983 0.053664
C62   C     C_R   0.224665 0.310741 0.022302 -0.197685
C63   C     C_R   0.326057 0.373072 0.035961 -0.074139
C64   C     C_R   0.907667 0.220894 0.468053 -0.126532
C65   C     C_R   0.411834 0.355633 0.081266 -0.195147
C66   C     C_R   0.089134 0.167178 0.124700 -0.218568
C67   C     C_R   0.090835 0.792951 0.597861 -0.143846
C68   C     C_R   0.989988 0.097535 0.111181 0.053670
C69   C     C_R   0.892517 0.049264 0.010084 0.025473
C70   C     C_R   0.900525 0.054142 0.922151 -0.242757
C71   C     C_R   0.002080 0.095044 0.928695 0.050889
C72   C     C_R   0.097909 0.162930 0.033874 0.060430
C73   C     C_R   0.728274 0.867273 0.926661 -0.162706
C74   C     C_R   0.627734 0.802883 0.913765 -0.155898
C75   C     C_R   0.580870 0.852544 0.961997 -0.088800
C76   C     C_R   0.092328 0.061166 0.813118 -0.132312
C77   C     C_R   0.631122 0.966644 0.017548 -0.129607
C78   C     C_R   0.907558 0.003987 0.201908 -0.152758
C79   C     C_R   0.729850 0.031573 0.027462 -0.183849
C80   C     C_R   0.781333 0.982003 0.986517 0.120532
C81   C     C_R   0.002574 0.048947 0.825718 0.059072
C82   C     C_3   0.280496 0.122095 0.128705 -1.098611
C83   C     C_R   0.088536 0.096035 0.289800 -0.133456
H1    H     H_    0.824866 0.940535 0.699196 0.092895
H2    H     H_    0.512362 0.574285 0.228158 0.116608
H3    H     H_    0.497017 0.737825 0.257772 0.116537
H4    H     H_    0.175097 0.381002 0.604149 0.090823
H5    H     H_    0.394819 0.707372 0.488336 0.107079
H6    H     H_    0.401307 0.537388 0.449475 0.102222
H7    H     H_    0.294382 0.783331 0.396852 0.132724
H8    H     H_    0.615176 0.109227 0.480239 0.136863
H9    H     H_    0.415131 0.170544 0.379156 0.110253
H10   H     H_    0.471528 0.365438 0.476576 0.105012
H11   H     H_    0.578228 0.470291 0.679727 0.096668
H12   H     H_    0.257850 0.061548 0.382718 0.102235
H13   H     H_    0.628578 0.379001 0.785004 0.128329
H14   H     H_    0.568622 0.183168 0.688881 0.109605
H15   H     H_    0.525497 0.112544 0.141818 0.098375
H16   H     H_    0.332441 0.176398 0.851071 0.102452
H17   H     H_    0.692776 0.219772 0.143020 0.100978
H18   H     H_    0.864353 0.360698 0.318550 0.111364
H19   H     H_    0.696783 0.297009 0.492889 0.130895
H20   H     H_    0.528440 0.149289 0.315796 0.118641
H21   H     H_    0.821588 0.524480 0.514982 0.125620
H22   H     H_    0.162415 0.525223 0.701747 0.124310
H23   H     H_    0.175815 0.825655 0.651855 0.131241
H24   H     H_    0.285199 0.682756 0.678792 0.114500
H25   H     H_    0.446124 0.868759 0.784001 0.129710
H26   H     H_    0.453323 0.020539 0.922478 0.100014
H27   H     H_    0.300046 0.985197 0.957767 0.127002
H28   H     H_    0.671149 0.025018 0.347613 0.114695
H29   H     H_    0.135501 0.800799 0.849660 0.114406
H30   H     H_    0.494857 0.487487 0.817175 0.116083
H31   H     H_    0.519135 0.358419 0.940083 0.123215
H32   H     H_    0.665832 0.640884 0.973194 0.120529
H33   H     H_    0.645961 0.501717 0.086690 0.117736
H34   H     H_    0.823697 0.979657 0.157071 0.133996
H35   H     H_    0.490729 0.405054 0.093357 0.116576
H36   H     H_    0.464654 0.263624 0.147135 0.136635
H37   H     H_    0.158763 0.325135 0.986911 0.131374
H38   H     H_    0.338412 0.435368 0.011843 0.123738
H39   H     H_    0.328938 0.351225 0.674995 0.089520
H40   H     H_    0.162275 0.218615 0.204799 0.122707
H41   H     H_    0.825166 0.014104 0.845530 0.126822
H42   H     H_    0.766266 0.828045 0.892877 0.115968
H43   H     H_    0.587125 0.714572 0.868169 0.103845
H44   H     H_    0.504705 0.802586 0.954919 0.123119
H45   H     H_    0.171942 0.155407 0.320167 0.085093
H46   H     H_    0.594131 0.004490 0.054059 0.120319
H47   H     H_    0.769694 0.119850 0.072712 0.115060
H48   H     H_    0.670922 0.854692 0.529977 0.104931
H49   H     H_    0.823570 0.194387 0.441740 0.122401
H50   H     H_    0.177715 0.108884 0.873998 0.121760
H51   H     H_    0.741566 0.622745 0.300416 0.102632
H52   H     H_    0.352352 0.110733 0.149208 0.247075
H53   H     H_    0.270938 0.142860 0.201452 0.252500
H54   H     H_    0.207326 0.043237 0.058845 0.262540
H55   H     H_    0.826536 0.658290 0.491567 0.088720
H56   H     H_    0.741201 0.801209 0.123607 0.108707
H57   H     H_    0.279528 0.899526 0.575954 0.104107
H58   H     H_    0.461944 0.471169 0.321201 0.114108
N1    N     N_R   0.941940 0.944580 0.650780 -0.041917
N2    N     N_R   0.204460 0.150250 0.707090 -0.043646
N3    N     N_R   0.794270 0.003240 0.446420 -0.038161
N4    N     N_R   0.204920 0.207570 0.650770 -0.044179
N5    N     N_R   0.793810 0.945920 0.502740 -0.039234
N6    N     N_R   0.943620 0.152590 0.446420 -0.042106
N7    N     N_R   0.055110 0.000900 0.707100 -0.041818
N8    N     N_R   0.795080 0.792430 0.349230 -0.039001
N9    N     N_R   0.206190 0.054080 0.497260 -0.041255
N10   N     N_R   0.056380 0.847410 0.553580 -0.041490
N11   N     N_R   0.944890 0.999100 0.292900 -0.042482
N12   N     N_R   0.058060 0.055420 0.349220 -0.040341
N13   N     N_R   0.943200 0.791100 0.497260 -0.038726
N14   N     N_R   0.795540 0.849750 0.292910 -0.044501
N15   N     N_R   0.205730 0.996760 0.553580 -0.040492
N16   N     N_R   0.056800 0.208900 0.502740 -0.040107
Ni1   Ni    Ni4+2 0.869690 0.869690 0.500000 0.212670
Ni2   Ni    Ni4+2 0.130310 0.130310 0.500000 0.214399
Ni3   Ni    Ni4+2 0.129250 0.998840 0.629170 0.215265
Ni4   Ni    Ni4+2 0.870750 0.001160 0.370830 0.214830

loop_
_geom_bond_atom_site_label_1
_geom_bond_atom_site_label_2
_ccdc_geom_bond_type
C25   C31   A    
C56   H12   S    
C66   C68   A    
C63   C65   A    
C10   H2    S    
C51   H29   S    
C6    C45   A    
N3    Ni4   S    
C27   C29   A    
C41   C42   A    
C6    C58   S    
C35   C36   A    
C83   H45   S    
C38   H15   S    
C3    C6    A    
C54   C57   S    
C78   N11   A    
C39   H21   S    
C57   H32   S    
C4    H4    S    
C48   H25   S    
N14   Ni4   S    
C1    H1    S    
C30   H14   S    
C45   H51   S    
C37   C38   A    
C40   N4    A    
C33   H18   S    
C22   C24   A    
C36   H19   S    
C36   C37   A    
N13   Ni1   S    
C82   H54   S    
C42   C53   S    
N7    Ni3   S    
C30   C31   A    
N4    Ni2   S    
C73   H42   S    
C11   H3    S    
C1    C81   A    
C23   C40   A    
C54   H30   S    
C50   H27   S    
C17   H58   S    
C18   C19   A    
C43   H22   S    
N10   N13   A    
C82   H52   S    
C1    N1    A    
C60   C82   S    
C66   C72   A    
C64   H49   S    
C68   C69   A    
C59   H36   S    
C65   H35   S    
C70   C71   A    
C28   N3    A    
C32   C38   A    
C4    C12   A    
C29   C30   A    
N8    Ni1   S    
C62   H37   S    
N11   Ni4   S    
C47   C53   A    
C26   H10   S    
C28   C34   A    
C59   C60   A    
N16   Ni2   S    
N9    N15   A    
C13   C14   A    
C58   H33   S    
C61   C62   A    
C7    C56   A    
N1    Ni1   S    
C63   H38   S    
C44   C46   A    
C77   C79   A    
C28   H28   S    
C22   C34   S    
C74   C75   A    
C67   N10   A    
C2    H55   S    
N1    N7    A    
N2    Ni3   S    
C16   N2    A    
C8    C41   S    
C39   C41   A    
N9    Ni2   S    
C5    C7    A    
C25   C26   A    
C79   H47   S    
C4    N16   A    
C32   H17   S    
C13   C24   S    
C60   C61   A    
C51   C53   A    
C18   H7    S    
N12   Ni2   S    
C43   C44   A    
C62   C63   A    
C15   H6    S    
C47   C48   A    
N15   Ni3   S    
C78   H34   S    
C3    N14   A    
C50   C51   A    
C26   C27   A    
C16   H16   S    
C77   H46   S    
N11   N12   A    
C23   C55   S    
C75   C77   A    
C9    C83   A    
C39   C46   A    
N5    Ni1   S    
C61   C72   S    
N3    N5    A    
C48   C49   A    
C16   C23   A    
C7    C19   S    
C64   N6    A    
N6    Ni4   S    
C18   C24   A    
C3    H56   S    
C42   C43   A    
C56   N9    A    
N6    N16   A    
C73   C74   A    
C5    H57   S    
C37   H20   S    
C21   H8    S    
N2    N4    A    
C54   C55   D    
C25   H9    S    
C52   N5    A    
C14   C15   A    
C52   H48   S    
C34   C52   A    
C2    C8    A    
C69   C80   S    
C76   C81   A    
C29   H13   S    
C76   H50   S    
C67   H23   S    
C15   C17   A    
C83   N12   A    
C55   H31   S    
C5    N15   A    
C40   H39   S    
C47   H24   S    
N10   Ni3   S    
C19   C20   A    
N8    N14   A    
C49   H26   S    
C14   H5    S    
C71   C72   A    
C12   C44   S    
C32   C33   A    
C11   C13   A    
C57   C58   D    
C74   H43   S    
C12   C64   A    
C33   C35   A    
C73   C80   A    
C45   N8    A    
C9    C78   A    
C82   H53   S    
C69   C70   A    
C9    C68   S    
C10   C11   A    
C79   C80   A    
C70   H41   S    
C20   C21   A    
C76   N7    A    
C8    C67   A    
C2    N13   A    
C49   C50   A    
C66   H40   S    
C27   H11   S    
C10   C17   A    
C21   C22   A    
C35   C46   S    
C20   C31   S    
C59   C65   A    
C71   C81   S    
C75   H44   S    
