data_mof_unit_18832.cif
_audit_creation_date              2012-12-10T18:09:36-0500
_audit_creation_method            fapswitch 2.2
_symmetry_space_group_name_H-M    P1
_symmetry_Int_Tables_number       1
_space_group_crystal_system       triclinic
_cell_length_a                    16.839328
_cell_length_b                    14.06375
_cell_length_c                    9.589335
_cell_angle_alpha                 84.002939
_cell_angle_beta                  89.045066
_cell_angle_gamma                 89.56158
_cell_volume                      2258.20352304

loop_
_atom_site_label
_atom_site_type_symbol
_atom_type_description
_atom_site_fract_x
_atom_site_fract_y
_atom_site_fract_z
_atom_type_partial_charge
C1    C     C_R   0.115985 0.374010 0.503938 0.830362
C2    C     C_R   0.880913 0.620997 0.496179 0.860426
C3    C     C_R   0.381254 0.877819 0.505205 0.819329
C4    C     C_R   0.380908 0.120994 0.496180 0.860542
C5    C     C_3   0.739791 0.338824 0.603931 0.266257
C6    C     C_3   0.832984 0.201151 0.548164 0.281894
C7    C     C_3   0.833666 0.788039 0.534809 0.288592
C8    C     C_3   0.765594 0.698934 0.348580 0.256597
C9    C     C_3   0.239630 0.839112 0.603522 0.266200
C10   C     C_3   0.332872 0.701259 0.548811 0.281849
C11   C     C_3   0.333633 0.288020 0.534862 0.288575
C12   C     C_R   0.116738 0.625228 0.493945 0.843285
C13   C     C_3   0.265586 0.198938 0.348578 0.256602
C14   C     C_3   0.175134 0.761126 0.607911 -0.343475
C15   C     C_3   0.263375 0.636266 0.513661 -0.446270
C16   C     C_3   0.262591 0.357934 0.517736 -0.421077
C17   C     C_3   0.188609 0.257286 0.363616 -0.391721
C18   C     C_3   0.675278 0.260889 0.608162 -0.343735
C19   C     C_3   0.763394 0.136217 0.513243 -0.446046
C20   C     C_3   0.762622 0.857955 0.517689 -0.421117
C21   C     C_3   0.688625 0.757298 0.363613 -0.391681
C22   C     C_3   0.778642 0.317560 0.358317 -0.546317
C23   C     C_R   0.616000 0.874025 0.503934 0.830336
C24   C     C_3   0.748797 0.643742 0.601324 -0.547642
C25   C     C_3   0.278792 0.817308 0.358216 -0.546265
C26   C     C_3   0.248779 0.143717 0.601314 -0.547482
C27   C     C_3   0.810680 0.309868 0.510549 -0.094717
C28   C     C_3   0.810440 0.688004 0.491453 -0.098325
C29   C     C_3   0.310635 0.809933 0.510572 -0.094782
C30   C     C_3   0.310425 0.187992 0.491462 -0.098460
C31   C     C_3   0.186081 0.695609 0.486310 -0.104577
C32   C     C_3   0.184364 0.302238 0.506275 -0.092363
C33   C     C_3   0.686095 0.195587 0.486297 -0.104718
C34   C     C_R   0.616735 0.125231 0.493942 0.843296
C35   C     C_3   0.684387 0.802260 0.506264 -0.092314
C36   C     C_3   0.199974 0.764063 0.345795 0.306568
C37   C     C_3   0.180556 0.215472 0.625629 0.304024
C38   C     C_3   0.699866 0.264213 0.345919 0.306801
C39   C     C_3   0.680579 0.715504 0.625630 0.304060
C40   C     C_3   0.960936 0.585832 0.072007 0.118783
C41   C     C_3   0.960128 0.586251 0.905665 0.059732
C42   C     C_3   0.958002 0.415821 0.097483 0.064898
C43   C     C_3   0.957548 0.417369 0.931017 0.110811
C44   C     C_3   0.460920 0.085823 0.072013 0.118789
C45   C     C_3   0.082223 0.493883 0.080524 -0.208579
C46   C     C_3   0.460113 0.086240 0.905669 0.059734
C47   C     C_3   0.458019 0.915807 0.097478 0.065018
C48   C     C_3   0.457562 0.917353 0.931009 0.110675
C49   C     C_3   0.082545 0.499555 0.915340 -0.204208
C50   C     C_3   0.582227 0.993922 0.080523 -0.208580
C51   C     C_3   0.582546 0.999575 0.915340 -0.204169
C52   C     C_R   0.881285 0.377777 0.505206 0.819378
Cl1   Cl    Cl    0.762607 0.361761 0.778877 -0.543294
Cl2   Cl    Cl    0.854438 0.168228 0.728061 -0.464325
Cl3   Cl    Cl    0.919036 0.839635 0.444756 -0.487171
Cl4   Cl    Cl    0.819411 0.755830 0.202105 -0.512174
Cl5   Cl    Cl    0.262242 0.862555 0.778339 -0.543365
Cl6   Cl    Cl    0.353851 0.668697 0.728981 -0.464639
Cl7   Cl    Cl    0.418987 0.339641 0.444841 -0.487172
Cl8   Cl    Cl    0.319395 0.255875 0.202139 -0.512128
Cu1   Cu    Cu3+1 0.000100 0.500000 0.642410 1.012679
Cu2   Cu    Cu3+1 0.000100 0.500000 0.357590 0.999408
Cu3   Cu    Cu3+1 0.500100 0.000000 0.642410 1.012723
Cu4   Cu    Cu3+1 0.500100 0.000000 0.357590 0.999407
H1    H     H_    0.714672 0.407552 0.555616 0.117441
H2    H     H_    0.252958 0.577665 0.599230 0.213911
H3    H     H_    0.270748 0.409070 0.421873 0.233081
H4    H     H_    0.183882 0.313383 0.273673 0.241776
H5    H     H_    0.677231 0.215866 0.710650 0.257467
H6    H     H_    0.753044 0.077595 0.598810 0.213825
H7    H     H_    0.770774 0.909078 0.421815 0.233030
H8    H     H_    0.683902 0.813396 0.273666 0.241757
H9    H     H_    0.116393 0.797059 0.600993 0.209160
H10   H     H_    0.279872 0.599489 0.420238 0.186026
H11   H     H_    0.259902 0.401651 0.607810 0.178453
H12   H     H_    0.886532 0.183317 0.486384 0.148340
H13   H     H_    0.137593 0.209260 0.355103 0.197907
H14   H     H_    0.616554 0.296865 0.601477 0.209122
H15   H     H_    0.779738 0.099460 0.419728 0.186027
H16   H     H_    0.759941 0.901681 0.607753 0.178517
H17   H     H_    0.637604 0.709278 0.355113 0.197953
H18   H     H_    0.772334 0.393781 0.315059 0.201221
H19   H     H_    0.825421 0.288251 0.292003 0.232988
H20   H     H_    0.777001 0.618651 0.702479 0.234734
H21   H     H_    0.725686 0.577312 0.563735 0.186177
H22   H     H_    0.272596 0.893443 0.314496 0.201459
H23   H     H_    0.849203 0.779503 0.647257 0.165066
H24   H     H_    0.325626 0.787721 0.292314 0.233012
H25   H     H_    0.276980 0.118615 0.702465 0.234899
H26   H     H_    0.225671 0.077299 0.563697 0.186341
H27   H     H_    0.898031 0.586302 0.109250 0.137697
H28   H     H_    0.896416 0.584704 0.876934 0.122824
H29   H     H_    0.894549 0.420359 0.130229 0.122031
H30   H     H_    0.894698 0.422063 0.898536 0.167691
H31   H     H_    0.398014 0.086271 0.109255 0.137648
H32   H     H_    0.396402 0.084679 0.876935 0.122917
H33   H     H_    0.394566 0.920322 0.130227 0.122023
H34   H     H_    0.750013 0.626710 0.319990 0.118796
H35   H     H_    0.394706 0.922009 0.898517 0.167779
H36   H     H_    0.119120 0.550459 0.113959 0.207453
H37   H     H_    0.115090 0.564983 0.873408 0.201869
H38   H     H_    0.112230 0.426522 0.121159 0.195964
H39   H     H_    0.117516 0.439193 0.880771 0.207481
H40   H     H_    0.619113 0.050525 0.113943 0.207407
H41   H     H_    0.615083 0.065005 0.873395 0.201771
H42   H     H_    0.612255 0.926577 0.121169 0.195962
H43   H     H_    0.617524 0.939215 0.880783 0.207502
H44   H     H_    0.214555 0.907735 0.554773 0.117438
H45   H     H_    0.386566 0.683275 0.487548 0.148294
H46   H     H_    0.349164 0.279471 0.647312 0.165039
H47   H     H_    0.250019 0.126722 0.319955 0.118809
H48   H     H_    0.177040 0.716265 0.710538 0.257621
I1    I     I_    0.112172 0.878252 0.309278 -0.156612
I2    I     I_    0.995267 0.721837 0.792441 -0.204997
I3    I     I_    0.994860 0.278212 0.208960 -0.271113
I4    I     I_    0.993098 0.287841 0.857208 -0.057401
I5    I     I_    0.505528 0.212612 0.144092 -0.028998
I6    I     I_    0.495248 0.221831 0.792458 -0.205136
I7    I     I_    0.494909 0.778215 0.208946 -0.271037
I8    I     I_    0.493146 0.787837 0.857185 -0.057856
I9    I     I_    0.218308 0.695634 0.155495 -0.222672
I10   I     I_    0.200444 0.257194 0.834755 -0.269564
I11   I     I_    0.071963 0.133664 0.621245 -0.181976
I12   I     I_    0.611950 0.378275 0.309860 -0.156546
I13   I     I_    0.718150 0.195967 0.155425 -0.222828
I14   I     I_    0.700489 0.757250 0.834738 -0.269675
I15   I     I_    0.571978 0.633694 0.621261 -0.182958
I16   I     I_    0.005583 0.712591 0.144070 -0.028964
N1    N     N_3   0.001260 0.500000 0.143650 -0.224944
N2    N     N_3   0.001260 0.500000 0.856350 -0.225387
N3    N     N_3   0.501260 0.000000 0.143650 -0.224934
N4    N     N_3   0.501260 0.000000 0.856350 -0.225336
O1    O     O_R   0.091250 0.408820 0.620260 -0.561885
O2    O     O_R   0.908940 0.408800 0.379740 -0.608885
O3    O     O_R   0.908940 0.591200 0.620260 -0.593729
O4    O     O_R   0.908940 0.591200 0.379740 -0.554466
O5    O     O_R   0.408940 0.908800 0.620260 -0.518695
O6    O     O_R   0.408940 0.908800 0.379740 -0.608856
O7    O     O_R   0.408940 0.091200 0.620260 -0.593644
O8    O     O_R   0.408940 0.091200 0.379740 -0.554499
O9    O     O_R   0.091250 0.408820 0.379740 -0.584090
O10   O     O_R   0.091250 0.591180 0.620260 -0.584432
O11   O     O_R   0.091250 0.591180 0.379740 -0.552569
O12   O     O_R   0.591250 0.908820 0.620260 -0.561839
O13   O     O_R   0.591250 0.908820 0.379740 -0.584083
O14   O     O_R   0.591250 0.091180 0.620260 -0.584476
O15   O     O_R   0.591250 0.091180 0.379740 -0.552600
O16   O     O_R   0.908940 0.408800 0.620260 -0.518762

loop_
_geom_bond_atom_site_label_1
_geom_bond_atom_site_label_2
_ccdc_geom_bond_type
C40   N1    S    
C50   H40   S    
Cu4   O13   S    
C16   H11   S    
C52   O2    A    
C7    Cl3   S    
C41   I2    S    
C8    Cl4   S    
Cu1   O1    S    
C48   I8    S    
C13   Cl8   S    
Cu4   O6    S    
C9    H44   S    
C14   H48   S    
C6    C19   S    
C23   O13   A    
C22   H18   S    
C5    Cl1   S    
C10   Cl6   S    
Cu1   O16   S    
C10   C15   S    
C49   H37   S    
C41   N2    S    
C1    O1    A    
C42   H29   S    
C43   H30   S    
C46   I6    S    
C10   H45   S    
C11   C16   S    
Cu2   O4    S    
C3    C29   S    
C8    H34   S    
C37   I11   S    
C20   C35   S    
Cu4   O15   S    
C7    H23   S    
C6    C27   S    
C11   C30   S    
Cu3   O12   S    
C20   H7    S    
C3    O5    A    
C24   H21   S    
C14   C31   S    
Cu3   O14   S    
C51   H41   S    
C18   H5    S    
C47   I7    S    
C52   O16   A    
C39   I14   S    
C5    C27   S    
C11   H46   S    
Cu3   O5    S    
Cu2   N1    S    
C6    Cl2   S    
C11   Cl7   S    
C36   I1    S    
C44   C46   S    
C8    C21   S    
C25   C29   S    
C39   I15   S    
C20   H16   S    
C21   H8    S    
C14   H9    S    
C13   C30   S    
C33   C34   S    
C5    H1    S    
C19   C33   S    
C3    O6    A    
C5    C18   S    
Cu3   N4    S    
C15   H2    S    
C15   C31   S    
C25   H24   S    
C2    O4    A    
C7    C28   S    
C37   I10   S    
C2    O3    A    
C47   N3    S    
C44   N3    S    
C40   I16   S    
C35   C39   S    
C9    C14   S    
C43   I4    S    
C4    O8    A    
C34   O15   A    
Cu1   O10   S    
C47   C48   S    
Cu4   N3    S    
C45   C49   S    
C18   H14   S    
C15   H10   S    
C17   H13   S    
C50   C51   S    
C16   H3    S    
C32   C37   S    
C19   H15   S    
Cu1   N2    S    
C40   C41   S    
C21   H17   S    
C26   C30   S    
C23   C35   S    
C22   C27   S    
C12   C31   S    
C8    C28   S    
C23   O12   A    
C26   H26   S    
C42   C43   S    
Cu2   O9    S    
C38   I13   S    
C27   C52   S    
Cu1   O3    S    
Cu4   O8    S    
C48   H35   S    
C17   H4    S    
Cu3   O7    S    
C45   H38   S    
C43   N2    S    
C24   C28   S    
C45   H36   S    
C49   H39   S    
C51   N4    S    
C26   C37   S    
C6    H12   S    
C21   C35   S    
C9    C29   S    
C16   C32   S    
C49   N2    S    
C33   C38   S    
C47   H33   S    
C12   O11   A    
C13   C17   S    
C22   H19   S    
Cu2   O2    S    
C36   I9    S    
C24   H20   S    
C26   H25   S    
C13   H47   S    
C44   H31   S    
C4    O7    A    
C46   N4    S    
C34   O14   A    
C10   C29   S    
C44   I5    S    
C45   N1    S    
C25   H22   S    
C12   O10   A    
C42   N1    S    
C9    Cl5   S    
C1    C32   S    
C40   H27   S    
Cu1   Cu2   S    
C18   C33   S    
C4    C30   S    
C1    O9    A    
C50   N3    S    
C25   C36   S    
Cu3   Cu4   S    
C42   I3    S    
C41   H28   S    
C46   H32   S    
Cu2   O11   S    
C51   H43   S    
C7    C20   S    
C50   H42   S    
C17   C32   S    
C31   C36   S    
C48   N4    S    
C19   H6    S    
C2    C28   S    
C24   C39   S    
C38   I12   S    
C22   C38   S    
