data_mof_unit_63648.cif
_audit_creation_date              2012-12-10T16:42:45-0500
_audit_creation_method            fapswitch 2.2
_symmetry_space_group_name_H-M    P1
_symmetry_Int_Tables_number       1
_space_group_crystal_system       triclinic
_cell_length_a                    18.954207
_cell_length_b                    19.105626
_cell_length_c                    18.843862
_cell_angle_alpha                 109.324657
_cell_angle_beta                  109.266057
_cell_angle_gamma                 109.657567
_cell_volume                      5263.73156225

loop_
_atom_site_label
_atom_site_type_symbol
_atom_type_description
_atom_site_fract_x
_atom_site_fract_y
_atom_site_fract_z
_atom_type_partial_charge
C1    C     C_R   0.384568 0.383084 0.502629 0.825306
C2    C     C_R   0.757683 0.579472 0.755073 0.067740
C3    C     C_R   0.812180 0.500204 0.812673 -0.148657
C4    C     C_R   0.741683 0.421349 0.739569 0.005993
C5    C     C_R   0.673538 0.421765 0.680127 0.081605
C6    C     C_R   0.683911 0.500673 0.685589 -0.154648
C7    C     C_R   0.737110 0.341609 0.724172 -0.230152
C8    C     C_R   0.662331 0.264241 0.658126 0.501647
C9    C     C_R   0.591394 0.265207 0.605732 -0.202322
C10   C     C_R   0.596640 0.342748 0.616319 -0.226844
C11   C     C_2   0.258021 0.184109 0.508066 -0.143420
C12   C     C_R   0.617997 0.500448 0.618311 0.775668
C13   C     C_2   0.181033 0.177792 0.491321 -0.301573
C14   C     C_2   0.318976 0.244931 0.496161 -0.144594
C15   C     C_2   0.322847 0.319968 0.510165 -0.296945
C16   C     C_2   0.167900 0.429702 0.191451 -0.343543
C17   C     C_2   0.183508 0.480552 0.156513 0.270517
C18   C     C_2   0.236649 0.422377 0.248860 0.035282
C19   C     C_2   0.307638 0.494463 0.317710 -0.242618
C20   C     C_2   0.748815 0.738074 0.420562 0.465217
C21   C     C_2   0.818544 0.808138 0.493902 -0.439337
C22   C     C_2   0.690908 0.668404 0.426461 -0.181809
C23   C     C_R   0.615725 0.617364 0.498012 0.881835
C24   C     C_2   0.676061 0.684660 0.493293 -0.388780
C25   C     C_R   0.996278 0.383047 0.878174 0.847091
C26   C     C_R   0.878848 0.499978 0.878810 0.777799
C27   C     C_R   0.000248 0.616511 0.117991 0.836062
C28   C     C_R   0.115242 0.494545 0.108827 0.752731
C29   C     C_R   0.998038 0.115641 0.617316 0.837350
C30   C     C_R   0.117203 0.115603 0.497850 0.826261
C31   C     C_R   0.002469 0.885077 0.382252 0.829010
C32   C     C_R   0.882793 0.879473 0.496959 0.908621
C33   C     C_2   0.925332 0.182508 0.675926 -0.115073
C34   C     C_R   0.378908 0.496988 0.381956 0.838022
C35   C     C_2   0.996758 0.177928 0.686220 -0.325892
C36   C     C_2   0.925126 0.243358 0.748453 -0.118088
C37   C     C_2   0.995642 0.319860 0.808287 -0.320845
C38   C     C_2   0.073140 0.814886 0.322939 -0.220374
C39   C     C_2   0.003979 0.825274 0.310910 -0.161797
C40   C     C_2   0.075164 0.755892 0.250372 -0.164248
C41   C     C_2   0.006153 0.677808 0.193285 -0.292754
C42   C     C_R   0.772806 0.659021 0.759099 -0.141058
C43   C     C_R   0.840219 0.736162 0.832715 -0.130548
C44   C     C_R   0.893833 0.735933 0.903532 -0.120586
C45   C     C_R   0.883256 0.658570 0.899060 -0.130645
C46   C     C_R   0.818156 0.579239 0.822824 0.069715
Cu1   Cu    Cu3+1 0.500390 0.438990 0.439360 1.015261
Cu2   Cu    Cu3+1 0.499610 0.561010 0.560640 0.985763
Cu3   Cu    Cu3+1 0.935830 0.439030 0.996840 1.014257
Cu4   Cu    Cu3+1 0.057850 0.561040 0.996790 1.027966
Cu5   Cu    Cu3+1 0.061410 0.000010 0.561410 0.991007
Cu6   Cu    Cu3+1 0.938590 0.999990 0.438590 1.063338
H1    H     H_    0.532220 0.205928 0.555507 0.189684
H2    H     H_    0.160589 0.214265 0.464355 0.159575
H3    H     H_    0.363948 0.229702 0.480176 0.161024
H4    H     H_    0.284672 0.339378 0.535480 0.157635
H5    H     H_    0.103449 0.395178 0.181060 0.158985
H6    H     H_    0.310086 0.555486 0.331979 0.175816
H7    H     H_    0.834515 0.809841 0.555579 0.127049
H8    H     H_    0.656769 0.603251 0.373133 0.223549
H9    H     H_    0.733608 0.663038 0.705707 0.146586
H10   H     H_    0.704008 0.750179 0.543340 0.163802
H11   H     H_    0.864976 0.137886 0.615161 0.203186
H12   H     H_    0.054501 0.215929 0.749594 0.168770
H13   H     H_    0.865142 0.226907 0.749893 0.222994
H14   H     H_    0.052936 0.340116 0.801805 0.170634
H15   H     H_    0.130709 0.852855 0.386421 0.177003
H16   H     H_    0.133392 0.775765 0.245473 0.181609
H17   H     H_    0.952633 0.655547 0.205172 0.177867
H18   H     H_    0.850036 0.796323 0.835246 0.144114
H19   H     H_    0.944612 0.795907 0.961745 0.146471
H20   H     H_    0.926195 0.662208 0.956394 0.152686
H21   H     H_    0.791340 0.338129 0.762279 0.170428
H22   H     H_    0.539319 0.339574 0.574314 0.164248
H23   H     H_    0.274672 0.140987 0.525926 0.170683
O1    O     O_R   0.411310 0.359450 0.448800 -0.581767
O2    O     O_R   0.048900 0.462510 0.908320 -0.564338
O3    O     O_R   0.855710 0.448510 0.907250 -0.574767
O4    O     O_R   0.958760 0.551540 0.907200 -0.593410
O5    O     O_R   0.944780 0.537560 0.085320 -0.576668
O6    O     O_R   0.047820 0.640590 0.085270 -0.589208
O7    O     O_R   0.034920 0.448530 0.086440 -0.609438
O8    O     O_R   0.137970 0.551560 0.086390 -0.513365
O9    O     O_R   0.051300 0.089020 0.640330 -0.582636
O10   O     O_R   0.947570 0.089010 0.536620 -0.577524
O11   O     O_R   0.140880 0.089030 0.551840 -0.581679
O12   O     O_R   0.410660 0.462490 0.551220 -0.584146
O13   O     O_R   0.037150 0.089020 0.448130 -0.588644
O14   O     O_R   0.052430 0.910990 0.463380 -0.591071
O15   O     O_R   0.948700 0.910980 0.359670 -0.555977
O16   O     O_R   0.962850 0.910980 0.551870 -0.593784
O17   O     O_R   0.859120 0.910970 0.448160 -0.514905
O18   O     O_R   0.589930 0.448490 0.538390 -0.585528
O19   O     O_R   0.589280 0.551530 0.640800 -0.587645
O20   O     O_R   0.589340 0.537510 0.448780 -0.572140
O21   O     O_R   0.588690 0.640550 0.551200 -0.588465
O22   O     O_R   0.410720 0.448470 0.359200 -0.548695
O23   O     O_R   0.410070 0.551510 0.461610 -0.588525
O24   O     O_R   0.945860 0.359480 0.908360 -0.574636
S1    S     S_3+6 0.282705 0.524325 0.155575 0.031515
O25   O     O_2   0.342733 0.613822 0.231278 -0.284263
O26   O     O_2   0.324911 0.470799 0.160874 -0.257961
O27   O     O_3   0.263736 0.527972 0.063474 -0.509341
H24   H     H_    0.321551 0.557071 0.069986 0.382062
C47   C     C_1   0.221652 0.338258 0.234405 0.303464
N1    N     N_1   0.209657 0.270931 0.222880 -0.266089
S2    S     S_3+6 0.727796 0.721115 0.315626 0.034889
O28   O     O_2   0.701445 0.782795 0.299727 -0.244187
O29   O     O_2   0.807777 0.735270 0.309041 -0.319725
O30   O     O_3   0.647594 0.620447 0.240093 -0.520741
H25   H     H_    0.640419 0.616307 0.184090 0.385756
C48   C     C_1   0.932745 0.787913 0.224214 0.352299
N2    N     N_1   0.876134 0.758436 0.155464 -0.255637
S3    S     S_3+6 0.657695 0.166261 0.641893 -0.012968
O31   O     O_2   0.705333 0.148904 0.594559 -0.312683
O32   O     O_2   0.699768 0.171789 0.728071 -0.301846
O33   O     O_3   0.554496 0.086177 0.582869 -0.530389
H26   H     H_    0.557880 0.033804 0.575423 0.386496

loop_
_geom_bond_atom_site_label_1
_geom_bond_atom_site_label_2
_ccdc_geom_bond_type
C1    O12   A    
C38   C40   S    
C10   H22   S    
Cu6   O15   S    
Cu4   O4    S    
C33   C36   S    
S3    O31   D    
C7    C8    A    
C7    H21   S    
C45   C46   A    
C23   O21   A    
C26   O3    A    
Cu2   O19   S    
C25   O2    A    
C36   C37   D    
Cu1   O1    S    
C21   H7    S    
C6    C12   S    
C5    C6    A    
C33   C35   D    
C11   C14   S    
C32   O16   A    
C34   O22   A    
Cu3   O3    S    
C44   H19   S    
C18   C19   D    
O30   H25   S    
Cu5   O16   S    
C25   O24   A    
C23   O20   A    
C16   C17   D    
C31   O14   A    
S2    O28   D    
C35   H12   S    
C1    C15   S    
C30   O11   A    
C9    C10   A    
C29   O10   A    
C8    S3    S    
C20   S2    S    
C25   C37   S    
C14   H3    S    
C28   O8    A    
S2    O29   D    
C12   O19   A    
C2    C6    A    
C4    C7    A    
Cu5   O11   S    
C48   N2    T    
Cu4   O8    S    
C19   H6    S    
C38   C39   D    
C21   C32   S    
C28   O7    A    
Cu5   Cu6   S    
C13   C30   S    
Cu6   O13   S    
Cu6   O10   S    
C29   O9    A    
C27   O5    A    
C36   H13   S    
C8    C9    A    
S1    O27   S    
C2    C46   A    
Cu3   O7    S    
C43   C44   A    
Cu3   O24   S    
C27   C41   S    
Cu1   Cu2   S    
C27   O6    A    
C33   H11   S    
C31   O15   A    
C37   H14   S    
C17   C28   S    
S1    O26   D    
Cu1   O18   S    
Cu2   O12   S    
C20   C21   D    
C42   H9    S    
C39   C48   S    
C20   C22   S    
C43   H18   S    
S2    O30   S    
C22   C24   D    
C12   O18   A    
Cu6   O17   S    
C9    H1    S    
C42   C43   A    
C30   O13   A    
C3    C4    A    
Cu4   O2    S    
C44   C45   A    
C41   H17   S    
C13   H2    S    
C40   C41   D    
C24   H10   S    
Cu2   O21   S    
C1    O1    A    
C3    C26   S    
C4    C5    A    
C19   C34   S    
S3    O32   D    
Cu2   O23   S    
C47   N1    T    
C29   C35   S    
C3    C46   A    
C26   O4    A    
Cu1   O22   S    
Cu3   O5    S    
C15   H4    S    
C18   C47   S    
C5    C10   A    
C11   H23   S    
O33   H26   S    
Cu5   O14   S    
C22   H8    S    
C11   C13   D    
C32   O17   A    
C2    C42   A    
S1    O25   D    
C34   O23   A    
C31   C39   S    
C16   H5    S    
C17   S1    S    
S3    O33   S    
C23   C24   S    
C38   H15   S    
C16   C18   S    
Cu3   Cu4   S    
C40   H16   S    
O27   H24   S    
Cu1   O20   S    
C14   C15   D    
Cu5   O9    S    
Cu4   O6    S    
C45   H20   S    
