data_mof_unit_44364.cif
_audit_creation_date              2012-12-11T17:01:22-0500
_audit_creation_method            fapswitch 2.2
_symmetry_space_group_name_H-M    P1
_symmetry_Int_Tables_number       1
_space_group_crystal_system       triclinic
_cell_length_a                    19.096629
_cell_length_b                    7.086382
_cell_length_c                    18.018255
_cell_angle_alpha                 90.000615
_cell_angle_beta                  108.531956
_cell_angle_gamma                 89.997437
_cell_volume                      2311.90221703

loop_
_atom_site_label
_atom_site_type_symbol
_atom_type_description
_atom_site_fract_x
_atom_site_fract_y
_atom_site_fract_z
_atom_type_partial_charge
O1    O     O_R   0.413720 0.494330 0.415730 -0.546064
O2    O     O_R   0.586280 0.994330 0.584270 -0.546059
O3    O     O_R   0.560210 0.819300 0.430070 -0.547872
O4    O     O_R   0.439790 0.319300 0.569930 -0.547872
C1    C     C_R   0.582241 0.655219 0.415429 0.729846
C2    C     C_R   0.417756 0.155226 0.584568 0.729771
O5    O     O_R   0.412670 0.823730 0.406310 -0.523624
O6    O     O_R   0.587330 0.323730 0.593690 -0.523670
O7    O     O_R   0.437690 0.998790 0.560340 -0.534860
O8    O     O_R   0.562310 0.498790 0.439660 -0.534854
C3    C     C_R   0.385354 0.655434 0.383496 0.715306
C4    C     C_R   0.614646 0.155430 0.616504 0.715190
O9    O     O_3   0.508380 0.662350 0.550560 -0.352136
O10   O     O_3   0.491620 0.162350 0.449440 -0.352142
V1    V     V_3+5 0.498450 0.935370 0.490620 1.549501
V2    V     V_3+5 0.501550 0.435370 0.509380 1.549481
C5    C     C_R   0.696380 0.996059 0.737981 0.129191
C6    C     C_R   0.303626 0.496048 0.262025 0.129273
C7    C     C_R   0.681951 0.148529 0.686135 -0.137715
C8    C     C_R   0.318053 0.648537 0.313861 -0.137665
C9    C     C_R   0.733836 0.297246 0.703646 -0.089048
C10   C     C_R   0.266166 0.797259 0.296339 -0.089159
H1    H     H_    0.724625 0.420744 0.666508 0.115667
H2    H     H_    0.275374 0.920769 0.333471 0.115709
C11   C     C_R   0.799904 0.284498 0.767332 -0.178955
C12   C     C_R   0.200099 0.784497 0.232656 -0.178950
H3    H     H_    0.838764 0.400364 0.778200 0.125019
H4    H     H_    0.161236 0.900368 0.221781 0.125052
C13   C     C_R   0.817462 0.119969 0.813759 -0.116126
C14   C     C_R   0.182543 0.619953 0.186237 -0.116039
C15   C     C_R   0.763332 0.977941 0.797935 0.179757
C16   C     C_R   0.236678 0.477917 0.202068 0.179493
C17   C     C_3   0.765634 0.770775 0.780424 -0.530905
C18   C     C_3   0.234391 0.270748 0.219593 -0.531097
C19   C     C_3   0.688384 0.790766 0.722013 0.312931
C20   C     C_3   0.311634 0.290767 0.278012 0.312955
H5    H     H_    0.767356 0.672867 0.828507 0.250453
H6    H     H_    0.232690 0.172808 0.171527 0.250499
H7    H     H_    0.807877 0.739480 0.751558 0.120105
H8    H     H_    0.192145 0.239449 0.248452 0.120174
H9    H     H_    0.683874 0.750386 0.661089 0.021694
H10   H     H_    0.316139 0.250417 0.338936 0.021702
C21   C     C_R   0.319883 0.993020 0.627779 -0.188730
C22   C     C_R   0.680094 0.492979 0.372189 -0.188703
C23   C     C_R   0.366989 0.148373 0.631977 -0.070789
C24   C     C_R   0.632996 0.648351 0.368010 -0.070746
C25   C     C_R   0.363145 0.302938 0.679296 -0.184992
C26   C     C_R   0.636841 0.802931 0.320703 -0.184956
C27   C     C_R   0.314686 0.301452 0.723476 0.095670
C28   C     C_R   0.685296 0.801450 0.276520 0.095631
C29   C     C_R   0.267899 0.145081 0.719733 0.103701
C30   C     C_R   0.732070 0.645059 0.280237 0.103708
C31   C     C_R   0.269517 0.992186 0.670403 0.070154
C32   C     C_R   0.730453 0.492146 0.329557 0.070171
C33   C     C_R   0.311704 0.455535 0.770629 -0.165411
C34   C     C_R   0.688302 0.955582 0.229407 -0.165478
C35   C     C_R   0.266362 0.450272 0.817652 -0.048375
C36   C     C_R   0.733658 0.950361 0.182400 -0.048314
C37   C     C_R   0.223768 0.289095 0.819981 0.004891
C38   C     C_R   0.776219 0.789147 0.180018 0.004912
C39   C     C_R   0.220287 0.141218 0.766051 0.027080
C40   C     C_R   0.779678 0.641211 0.233915 0.027049
C41   C     C_R   0.170823 0.988536 0.759536 0.028184
C42   C     C_R   0.829137 0.488517 0.240415 0.028145
C43   C     C_R   0.168160 0.842646 0.704245 -0.012760
C44   C     C_R   0.831812 0.342625 0.295708 -0.012837
C45   C     C_R   0.219638 0.843141 0.662945 -0.238375
C46   C     C_R   0.780336 0.343104 0.337009 -0.238416
C47   C     C_R   0.185655 0.271429 0.875351 0.364212
C48   C     C_R   0.814348 0.771532 0.124653 0.364134
C49   C     C_R   0.132300 0.125561 0.866202 -0.170355
C50   C     C_R   0.867673 0.625589 0.133769 -0.170402
C51   C     C_R   0.126566 0.985401 0.809181 -0.204987
C52   C     C_R   0.873386 0.485381 0.190764 -0.204754
H11   H     H_    0.321181 0.874946 0.589970 0.117619
H12   H     H_    0.678797 0.374894 0.409992 0.117616
H13   H     H_    0.398645 0.424235 0.682572 0.162866
H14   H     H_    0.601351 0.924248 0.317445 0.162872
H15   H     H_    0.344805 0.580302 0.771524 0.147829
H16   H     H_    0.655223 0.080379 0.228547 0.147862
H17   H     H_    0.263652 0.575953 0.850612 0.183237
H18   H     H_    0.736423 0.076130 0.149520 0.183216
H19   H     H_    0.089047 0.869774 0.806388 0.182688
H20   H     H_    0.910889 0.369719 0.193541 0.182745
H21   H     H_    0.219104 0.729401 0.622478 0.155830
H22   H     H_    0.780879 0.229363 0.377477 0.155842
O11   O     O_R   0.937800 0.775460 0.060470 -0.529494
O12   O     O_R   0.062200 0.275460 0.939530 -0.529570
O13   O     O_R   0.087350 0.441340 0.093710 -0.557814
O14   O     O_R   0.912650 0.941340 0.906290 -0.557779
C53   C     C_R   0.114061 0.610007 0.117510 0.758601
C54   C     C_R   0.885943 0.110014 0.882487 0.758688
O15   O     O_R   0.939820 0.446010 0.069950 -0.529002
O16   O     O_R   0.060180 0.946010 0.930050 -0.529065
O17   O     O_R   0.913690 0.271230 0.915700 -0.533753
O18   O     O_R   0.086310 0.771230 0.084300 -0.533722
C55   C     C_R   0.917598 0.614801 0.084225 0.724190
C56   C     C_R   0.082390 0.114793 0.915761 0.724484
O19   O     O_3   0.991670 0.603050 0.949510 -0.376595
O20   O     O_3   0.008330 0.103050 0.050490 -0.376455
V3    V     V_3+5 0.001550 0.329940 0.009370 1.537165
V4    V     V_3+5 0.998450 0.829940 0.990630 1.537153
S1    S     S_3+6 0.219200 0.393306 0.966302 0.038276
O21   O     O_2   0.296600 0.465464 0.982223 -0.280958
O22   O     O_2   0.169415 0.556609 0.967798 -0.350310
O23   O     O_3   0.221555 0.238577 0.037304 -0.475541
H23   H     H_    0.175819 0.260700 0.050113 0.333377
S2    S     S_3+6 0.780899 0.893755 0.033766 0.038317
O24   O     O_2   0.703576 0.966446 0.017894 -0.281023
O25   O     O_2   0.830849 0.056736 0.032352 -0.350246
O26   O     O_3   0.778365 0.739185 0.962659 -0.475340
H24   H     H_    0.824210 0.760651 0.949988 0.333230
C57   C     C_2   0.111196 0.691315 0.685312 0.751974
O27   O     O_2   0.127186 0.532353 0.669691 -0.562572
O28   O     O_R   0.038228 0.732452 0.680345 -0.669075
H25   H     H_    0.004738 0.618056 0.665952 0.296507
C58   C     C_2   0.888808 0.191353 0.314661 0.751990
O29   O     O_2   0.872853 0.032388 0.330314 -0.562558
O30   O     O_R   0.961767 0.232562 0.319617 -0.669064
H26   H     H_    0.995285 0.118218 0.334040 0.296521
S3    S     S_3+6 0.616912 0.699390 0.757192 0.057228
O31   O     O_2   0.543238 0.772584 0.707109 -0.331574
O32   O     O_2   0.616514 0.487703 0.754657 -0.321564
O33   O     O_3   0.631464 0.770603 0.849901 -0.423796
H27   H     H_    0.590990 0.712811 0.865437 0.393211
S4    S     S_3+6 0.383128 0.199400 0.242859 0.057218
O34   O     O_2   0.456772 0.273002 0.292834 -0.331479
O35   O     O_2   0.383664 0.987728 0.245594 -0.321744
O36   O     O_3   0.368481 0.270134 0.150075 -0.423769
H28   H     H_    0.408861 0.211945 0.134496 0.393295

loop_
_geom_bond_atom_site_label_1
_geom_bond_atom_site_label_2
_ccdc_geom_bond_type
C44   C46   A    
C41   C43   A    
S4    O34   D    
C2    C23   S    
O18   V4    S    
C46   H22   S    
C20   H10   S    
O26   H24   S    
O1    C3    A    
O2    C4    A    
C48   S2    S    
C2    O7    A    
O12   V3    S    
C25   C27   A    
O5    C3    A    
C17   H7    S    
C18   H8    S    
C7    C9    A    
O36   H28   S    
C36   H18   S    
C35   C37   A    
C32   C46   A    
O23   H23   S    
O16   C56   A    
C36   C38   A    
O28   H25   S    
S2    O24   D    
C38   C40   A    
C26   H14   S    
C47   C49   A    
O14   V4    S    
S3    O33   S    
C40   C42   A    
C17   C19   S    
C53   O18   A    
C21   C31   A    
C22   C24   A    
C27   C29   A    
C44   C58   S    
C29   C39   A    
C28   C30   A    
C15   C17   S    
O13   C53   A    
C18   C20   S    
O5    V1    S    
O6    V2    S    
C21   H11   S    
C19   H9    S    
C30   C32   A    
C50   C55   S    
C23   C25   A    
C11   C13   A    
C49   C56   S    
C24   C26   A    
C3    C8    S    
C45   H21   S    
C37   C39   A    
C19   S3    S    
O4    C2    A    
O15   V3    S    
C49   C51   A    
C58   O30   S    
C41   C51   A    
S4    O36   S    
C43   C45   A    
C27   C33   A    
C54   O17   A    
C17   H5    S    
C57   O28   S    
C29   C31   A    
C42   C44   A    
O4    V2    S    
O11   V4    S    
C33   H15   S    
O14   C54   A    
C38   C48   A    
O6    C4    A    
O20   V4    S    
S1    O22   D    
O1    V2    S    
O2    V1    S    
C21   C23   A    
S3    O31   D    
C37   C47   A    
C50   C52   A    
O19   V3    S    
C8    C10   A    
C12   C14   A    
C9    H1    S    
C5    C15   A    
C10   H2    S    
C6    C16   A    
C25   H13   S    
O15   C55   A    
O3    V1    S    
C57   O27   D    
C9    C11   A    
S4    O35   D    
O13   V3    S    
C18   H6    S    
C47   S1    S    
C43   C57   S    
C39   C41   A    
C20   S4    S    
C52   H20   S    
C14   C53   S    
O3    C1    A    
C48   C50   A    
O30   H26   S    
S2    O25   D    
C11   H3    S    
C1    C24   S    
C12   H4    S    
C34   H16   S    
S2    O26   S    
C33   C35   A    
O7    V1    S    
C1    O8    A    
C13   C15   A    
C30   C40   A    
C58   O29   D    
C14   C16   A    
C4    C7    S    
C26   C28   A    
O20   V3    S    
C5    C7    A    
C34   C36   A    
S1    O23   S    
C6    C8    A    
C31   C45   A    
C35   H17   S    
C28   C34   A    
S3    O32   D    
C22   C32   A    
O19   V4    S    
O16   V4    S    
C10   C12   A    
O9    V2    S    
S1    O21   D    
C42   C52   A    
O10   V1    S    
O8    V2    S    
C5    C19   S    
C22   H12   S    
C6    C20   S    
C51   H19   S    
C13   C54   S    
O12   C56   A    
O17   V3    S    
C16   C18   S    
O33   H27   S    
O11   C55   A    
