data_mof_unit_11162.cif
_audit_creation_date              2012-10-26T18:51:45-0400
_audit_creation_method            fapswitch 2.2
_symmetry_space_group_name_H-M    P1
_symmetry_Int_Tables_number       1
_space_group_crystal_system       triclinic
_cell_length_a                    11.677478
_cell_length_b                    14.720785
_cell_length_c                    14.882089
_cell_angle_alpha                 64.304133
_cell_angle_beta                  104.156851
_cell_angle_gamma                 101.796273
_cell_volume                      2221.03811411

loop_
_atom_site_label
_atom_site_type_symbol
_atom_type_description
_atom_site_fract_x
_atom_site_fract_y
_atom_site_fract_z
_atom_type_partial_charge
C1    C     C_R   0.477945 0.120114 0.312518 0.548128
C2    C     C_R   0.519758 0.615437 0.099549 -0.131753
C3    C     C_R   0.745933 0.324420 0.571138 -0.163666
C4    C     C_R   0.275032 0.711945 0.348824 -0.168393
C5    C     C_R   0.695581 0.226217 0.586310 0.036144
C6    C     C_R   0.318706 0.794548 0.374825 0.034432
C7    C     C_R   0.501069 0.276641 0.536168 0.136603
C8    C     C_R   0.494489 0.717217 0.474201 0.135067
C9    C     C_R   0.548715 0.381506 0.506202 0.011300
C10   C     C_R   0.460596 0.639358 0.435849 0.019210
C11   C     C_R   0.673965 0.402920 0.526974 0.029705
C12   C     C_R   0.515945 0.880289 0.687355 0.537931
C13   C     C_R   0.343914 0.632234 0.382266 0.026753
C14   C     C_R   0.479003 0.465816 0.459500 0.005777
C15   C     C_R   0.533032 0.562446 0.457036 0.014812
C16   C     C_R   0.284478 0.000579 0.499995 0.548392
C17   C     C_R   0.715557 0.999316 0.500191 0.547737
C18   C     C_R   0.657204 0.581563 0.466918 -0.145028
C19   C     C_R   0.361660 0.460845 0.406317 -0.153253
C20   C     C_R   0.726802 0.502818 0.502721 -0.136171
C21   C     C_R   0.296972 0.544491 0.364682 -0.131461
C22   C     C_1   0.162995 0.001202 0.500408 -0.037835
C23   C     C_R   0.385956 0.325683 0.004759 0.051992
C24   C     C_1   0.837125 0.998540 0.500105 -0.031954
C25   C     C_1   0.060231 0.000518 0.500449 -0.056075
C26   C     C_1   0.939949 0.999183 0.500270 -0.051193
C27   C     C_R   0.452200 0.189237 0.205234 -0.004985
C28   C     C_R   0.514421 0.813323 0.794523 -0.006834
C29   C     C_R   0.367218 0.220793 0.030345 -0.135303
C30   C     C_R   0.553242 0.784546 0.971582 -0.134813
C31   C     C_R   0.399234 0.152870 0.130207 -0.138020
C32   C     C_R   0.554376 0.850172 0.870535 -0.140532
C33   C     C_R   0.473341 0.293826 0.179244 -0.135264
C34   C     C_R   0.513709 0.681131 0.997876 0.050137
C35   C     C_R   0.469318 0.711453 0.820323 -0.142372
C36   C     C_R   0.437258 0.363718 0.080143 0.029856
C37   C     C_R   0.469412 0.643111 0.921690 0.030662
C38   C     C_3   0.594587 0.702910 0.565913 -0.215832
C39   C     C_3   0.567820 0.605581 0.658732 -0.314581
C40   C     C_3   0.660499 0.598850 0.753067 -0.454308
C41   C     C_3   0.379822 0.242432 0.568191 -0.228306
C42   C     C_3   0.386451 0.159955 0.676708 -0.278423
C43   C     C_3   0.264185 0.126328 0.707585 -0.462009
C44   C     C_R   0.454514 0.470213 0.053508 0.029715
C45   C     C_R   0.433115 0.537454 0.949536 0.031608
C46   C     C_R   0.377436 0.496566 0.877157 -0.143572
C47   C     C_R   0.491684 0.511715 0.127246 -0.138342
C48   C     C_R   0.353934 0.392605 0.904657 -0.137171
Cu1   Cu    Cu3+1 0.469550 0.918260 0.475690 0.915002
Cu2   Cu    Cu3+1 0.530450 0.081740 0.524310 0.910885
H1    H     H_    0.312136 0.364433 0.846696 0.102621
H2    H     H_    0.586008 0.814175 0.029456 0.105758
H3    H     H_    0.348113 0.542936 0.798565 0.098850
H4    H     H_    0.498071 0.466092 0.207405 0.112875
H5    H     H_    0.822662 0.520129 0.512339 0.108898
H6    H     H_    0.207794 0.538678 0.322663 0.111434
H7    H     H_    0.265548 0.856639 0.346536 0.132635
H8    H     H_    0.754081 0.168020 0.614844 0.135148
H9    H     H_    0.841661 0.339564 0.589392 0.090499
H10   H     H_    0.187264 0.710120 0.303368 0.093881
H11   H     H_    0.749266 0.593991 0.741779 0.154788
H12   H     H_    0.549814 0.644030 0.158391 0.115173
H13   H     H_    0.665428 0.666325 0.769600 0.159209
H14   H     H_    0.635943 0.529911 0.819182 0.158710
H15   H     H_    0.478520 0.604120 0.673018 0.157878
H16   H     H_    0.567069 0.536969 0.645480 0.173783
H17   H     H_    0.682319 0.705303 0.549656 0.107225
H18   H     H_    0.610208 0.765340 0.588905 0.217169
H19   H     H_    0.227578 0.191449 0.705233 0.144247
H20   H     H_    0.202115 0.094673 0.655944 0.165850
H21   H     H_    0.271896 0.066711 0.786005 0.141231
H22   H     H_    0.422329 0.092591 0.684028 0.219265
H23   H     H_    0.700960 0.658198 0.441718 0.108428
H24   H     H_    0.447094 0.190243 0.730203 0.143432
H25   H     H_    0.345016 0.305947 0.570390 0.119420
H26   H     H_    0.314282 0.218516 0.512717 0.161568
H27   H     H_    0.321026 0.394208 0.392380 0.104988
H28   H     H_    0.438119 0.686678 0.759749 0.125453
H29   H     H_    0.520082 0.319151 0.237639 0.128139
H30   H     H_    0.587587 0.929305 0.852118 0.124975
H31   H     H_    0.381521 0.072186 0.148748 0.128080
H32   H     H_    0.327077 0.191319 0.973128 0.102250
N1    N     N_R   0.576230 0.204580 0.560790 -0.231647
N2    N     N_R   0.423770 0.795420 0.439210 -0.229848
O1    O     O_R   0.459870 0.022090 0.338120 -0.500060
O2    O     O_R   0.540130 0.977910 0.661880 -0.515410
O3    O     O_R   0.511290 0.160150 0.379180 -0.494171
O4    O     O_R   0.488710 0.839850 0.620820 -0.521307
O5    O     O_R   0.311490 0.930960 0.479480 -0.497972
O6    O     O_R   0.688510 0.069040 0.520520 -0.504942
O7    O     O_R   0.362910 0.069020 0.520540 -0.510227
O8    O     O_R   0.637090 0.930980 0.479460 -0.512674

loop_
_geom_bond_atom_site_label_1
_geom_bond_atom_site_label_2
_ccdc_geom_bond_type
C1    O3    A    
C15   C18   A    
C7    N1    A    
C34   C37   A    
C41   C42   S    
Cu1   O4    S    
C45   C46   A    
C27   C33   A    
C40   H13   S    
C5    H8    S    
C12   C28   S    
C23   C29   A    
Cu1   N2    S    
C35   C37   A    
C24   C26   T    
C10   C15   A    
C38   C39   S    
C5    N1    A    
C41   H25   S    
C33   C36   A    
C4    C13   A    
C19   H27   S    
Cu2   O6    S    
C48   H1    S    
C28   C35   A    
C22   C25   T    
C43   H21   S    
C44   C47   A    
C2    C34   A    
C16   O5    A    
C43   H19   S    
C39   H15   S    
C6    H7    S    
C17   O8    A    
C8    C38   S    
C20   H5    S    
Cu2   N1    S    
C1    O1    A    
C46   C48   A    
C11   C20   A    
C42   H24   S    
C17   C24   S    
C6    N2    A    
C30   C34   A    
C27   C31   A    
Cu1   O1    S    
C28   C32   A    
C4    C6    A    
C39   C40   S    
C12   O4    A    
C33   H29   S    
C25   C26   S    
C40   H11   S    
C9    C14   A    
C32   H30   S    
C4    H10   S    
C42   H22   S    
C13   C21   A    
C9    C11   A    
Cu2   O3    S    
C47   H4    S    
C38   H18   S    
C23   C36   A    
C18   H23   S    
C39   H16   S    
C36   C44   A    
C42   C43   S    
Cu1   O8    S    
C37   C45   A    
C44   C45   A    
C7    C9    A    
C30   H2    S    
C16   C22   S    
C23   C48   A    
C19   C21   A    
C8    N2    A    
C14   C19   A    
C17   O6    A    
Cu1   O5    S    
C3    C5    A    
C10   C13   A    
C40   H14   S    
C21   H6    S    
C2    C47   A    
C43   H20   S    
C35   H28   S    
C31   H31   S    
C12   O2    A    
C29   H32   S    
C29   C31   A    
C41   H26   S    
C30   C32   A    
C46   H3    S    
C18   C20   A    
C7    C41   S    
C3    C11   A    
Cu2   O2    S    
Cu2   O7    S    
C38   H17   S    
C16   O7    A    
C8    C10   A    
Cu1   Cu2   S    
C1    C27   S    
C14   C15   A    
C2    H12   S    
C3    H9    S    
