data_mof_unit_57697.cif
_audit_creation_date              2012-10-26T21:15:54-0400
_audit_creation_method            fapswitch 2.2
_symmetry_space_group_name_H-M    P1
_symmetry_Int_Tables_number       1
_space_group_crystal_system       triclinic
_cell_length_a                    19.345744
_cell_length_b                    10.911841
_cell_length_c                    9.682731
_cell_angle_alpha                 90.969787
_cell_angle_beta                  89.465461
_cell_angle_gamma                 91.227569
_cell_volume                      2043.1580367

loop_
_atom_site_label
_atom_site_type_symbol
_atom_type_description
_atom_site_fract_x
_atom_site_fract_y
_atom_site_fract_z
_atom_type_partial_charge
C1    C     C_R   0.497807 0.265430 0.498741 0.544413
C2    C     C_R   0.854358 0.501379 0.508558 -0.000161
C3    C     C_2   0.500158 0.932123 0.391216 -0.143170
C4    C     C_R   0.367634 0.502187 0.500622 0.544061
C5    C     C_2   0.512210 0.868920 0.506409 0.243815
C6    C     C_2   0.508215 0.065530 0.387788 -0.135474
C7    C     C_2   0.488934 0.134047 0.496530 -0.075608
C8    C     C_2   0.450098 0.452734 0.922863 0.028700
C9    C     C_2   0.458447 0.430087 0.076908 0.441415
C10   C     C_R   0.502624 0.735366 0.501668 0.525359
C11   C     C_R   0.632633 0.499317 0.499424 0.560154
C12   C     C_R   0.292021 0.510075 0.502520 0.011917
C13   C     C_R   0.254678 0.460448 0.613819 -0.179845
C14   C     C_R   0.182836 0.462735 0.616296 -0.136975
C15   C     C_R   0.146858 0.514008 0.506961 -0.013451
C16   C     C_R   0.184141 0.566105 0.396667 -0.094827
C17   C     C_R   0.256387 0.567724 0.395243 0.263779
C18   C     C_3   0.511515 0.911477 0.743207 0.000294
C19   C     C_3   0.533566 0.013887 0.843257 -0.397624
C20   C     C_3   0.417755 0.227935 0.068614 -0.024659
C21   C     C_3   0.344708 0.196452 0.018015 -0.257708
C22   C     C_3   0.342974 0.076507 0.934563 -0.486025
C23   C     C_R   0.930532 0.505577 0.508733 0.371051
C24   C     C_3   0.587291 0.631717 0.119530 0.037798
C25   C     C_3   0.613265 0.729656 0.020631 -0.416650
C26   C     C_3   0.321494 0.734188 0.323647 0.032302
C27   C     C_3   0.273453 0.839262 0.290899 -0.283091
C28   C     C_3   0.307654 0.963504 0.324506 -0.480828
C29   C     C_3   0.835676 0.451459 0.848949 -0.001122
C30   C     C_3   0.882502 0.469658 0.973201 -0.329756
C31   C     C_3   0.712868 0.319494 0.232294 -0.002254
C32   C     C_3   0.665295 0.288798 0.111676 -0.378452
C33   C     C_R   0.070722 0.511975 0.507654 0.342020
C34   C     C_R   0.815727 0.519082 0.631236 0.252041
C35   C     C_R   0.743483 0.521181 0.624719 -0.168205
C36   C     C_R   0.708837 0.498068 0.499910 -0.023571
C37   C     C_R   0.747595 0.472794 0.379032 0.234099
C38   C     C_R   0.819807 0.478334 0.383673 -0.155461
Cu1   Cu    Cu3+1 0.500010 0.500020 0.638630 0.908493
Cu2   Cu    Cu3+1 0.499990 0.499980 0.361370 1.041583
H1    H     H_    0.281050 0.417474 0.697928 0.127752
H2    H     H_    0.483381 0.886006 0.296621 0.102467
H3    H     H_    0.525912 0.824370 0.791309 0.185995
H4    H     H_    0.454263 0.913600 0.731269 0.109523
H5    H     H_    0.520818 0.104620 0.801550 0.157930
H6    H     H_    0.506363 0.002059 0.943824 0.084455
H7    H     H_    0.590184 0.011183 0.860587 0.161419
H8    H     H_    0.432967 0.155973 0.141331 0.146184
H9    H     H_    0.455616 0.223488 0.981197 0.091871
H10   H     H_    0.309231 0.187873 0.108420 0.178190
H11   H     H_    0.325813 0.270964 0.952469 0.157119
H12   H     H_    0.528385 0.107190 0.294194 0.120807
H13   H     H_    0.375456 0.085537 0.839919 0.142165
H14   H     H_    0.289034 0.054141 0.903304 0.153586
H15   H     H_    0.362219 0.000270 0.997271 0.147604
H16   H     H_    0.618282 0.548173 0.100948 0.158587
H17   H     H_    0.596430 0.668184 0.225099 0.199999
H18   H     H_    0.583203 0.814433 0.036059 0.147756
H19   H     H_    0.668656 0.751299 0.040706 0.122178
H20   H     H_    0.608160 0.696870 0.912035 0.152710
H21   H     H_    0.369911 0.746092 0.262266 0.181679
H22   H     H_    0.336763 0.740004 0.434500 0.101618
H23   H     H_    0.464350 0.093185 0.585907 0.119479
H24   H     H_    0.260090 0.835197 0.179485 0.178320
H25   H     H_    0.224978 0.829679 0.352582 0.163462
H26   H     H_    0.321200 0.969908 0.435691 0.147311
H27   H     H_    0.271410 0.037773 0.301320 0.157544
H28   H     H_    0.355306 0.976784 0.261225 0.142084
H29   H     H_    0.846506 0.359919 0.801440 0.132703
H30   H     H_    0.781187 0.452705 0.886489 0.124016
H31   H     H_    0.871284 0.558023 0.026559 0.172805
H32   H     H_    0.873494 0.393704 0.046527 0.090957
H33   H     H_    0.937548 0.470044 0.939544 0.186962
H34   H     H_    0.402288 0.423832 0.873735 0.123833
H35   H     H_    0.692104 0.270385 0.324514 0.135024
H36   H     H_    0.765404 0.285708 0.206538 0.125407
H37   H     H_    0.683505 0.337273 0.017764 0.134904
H38   H     H_    0.664920 0.188481 0.090275 0.094618
H39   H     H_    0.611746 0.316804 0.137131 0.158078
H40   H     H_    0.547397 0.504706 0.890561 0.224765
H41   H     H_    0.155499 0.422022 0.702782 0.148640
H42   H     H_    0.157420 0.607210 0.311849 0.147848
H43   H     H_    0.714509 0.542793 0.717903 0.137436
H44   H     H_    0.848860 0.462410 0.289231 0.136620
N1    N     N_R   0.035233 0.540630 0.392750 -0.235615
N2    N     N_R   0.966460 0.537234 0.393193 -0.243958
N3    N     N_R   0.966028 0.476690 0.623409 -0.176773
N4    N     N_R   0.034756 0.479728 0.622884 -0.235519
N5    N     N_2   0.499250 0.498660 0.846910 -0.356200
N6    N     N_2   0.499230 0.498630 0.153040 -0.051230
O1    O     O_R   0.500010 0.321960 0.617040 -0.511212
O2    O     O_3   0.418016 0.341249 0.142329 -0.543899
O3    O     O_3   0.516170 0.608411 0.097652 -0.514841
O4    O     O_3   0.290870 0.619870 0.283976 -0.547461
O5    O     O_3   0.848821 0.546772 0.754510 -0.530249
O6    O     O_3   0.715292 0.447772 0.254658 -0.563922
O7    O     O_R   0.499990 0.321920 0.382900 -0.480371
O8    O     O_R   0.400160 0.500010 0.617110 -0.522061
O9    O     O_R   0.400130 0.499970 0.382960 -0.415358
O10   O     O_R   0.500010 0.678080 0.617100 -0.500101
O11   O     O_R   0.499990 0.678040 0.382960 -0.522204
O12   O     O_R   0.599870 0.500030 0.617040 -0.521463
O13   O     O_R   0.599840 0.499990 0.382890 -0.481736
O14   O     O_3   0.547215 0.926550 0.616083 -0.558620

loop_
_geom_bond_atom_site_label_1
_geom_bond_atom_site_label_2
_ccdc_geom_bond_type
C26   O4    S    
N3    N4    A    
C3    H2    S    
C4    O8    A    
C6    C7    D    
C35   C36   A    
C3    C6    S    
Cu2   O9    S    
C13   H1    S    
C30   H31   S    
C31   H36   S    
C19   H6    S    
C22   H14   S    
N1    N2    A    
C12   C13   A    
C20   O2    S    
C26   C27   S    
C29   C30   S    
N6    O3    S    
C36   C37   A    
C28   H28   S    
C37   C38   A    
C18   C19   S    
C19   H7    S    
C31   O6    S    
C33   N4    A    
C34   C35   A    
H40   N5    S    
C33   N1    A    
C32   H37   S    
C8    C9    S    
C23   N2    A    
C12   C17   A    
C25   H20   S    
C4    C12   S    
Cu2   O13   S    
C24   O3    S    
C2    C34   A    
Cu2   O11   S    
C5    O14   S    
C1    O1    A    
C23   N3    A    
C21   C22   S    
C9    O2    S    
Cu1   O1    S    
C21   H10   S    
C22   H13   S    
C29   H29   S    
C28   H27   S    
C34   O5    S    
C1    O7    A    
Cu1   Cu2   S    
C29   O5    S    
C30   H33   S    
C35   H43   S    
C24   H17   S    
Cu1   O8    S    
C8    H34   S    
C37   O6    S    
C28   H26   S    
C20   H9    S    
C27   H25   S    
C18   H4    S    
C2    C38   A    
C31   H35   S    
C31   C32   S    
C16   H42   S    
C18   O14   S    
C24   C25   S    
C10   O10   A    
C7    H23   S    
C20   H8    S    
C25   H18   S    
C21   H11   S    
Cu1   O12   S    
C29   H30   S    
C11   C36   S    
C38   H44   S    
C1    C7    S    
C26   H21   S    
C10   O11   A    
C3    C5    D    
C9    N6    D    
C30   H32   S    
C19   H5    S    
C22   H15   S    
C17   O4    S    
C24   H16   S    
C6    H12   S    
C26   H22   S    
C5    C10   S    
Cu2   O7    S    
C18   H3    S    
C32   H39   S    
Cu1   O10   S    
C16   C17   A    
C15   C33   S    
C11   O12   A    
C27   H24   S    
C32   H38   S    
C20   C21   S    
C4    O9    A    
C2    C23   S    
C14   C15   A    
C11   O13   A    
C8    N5    D    
C25   H19   S    
C14   H41   S    
Cu2   N6    S    
C13   C14   A    
Cu1   N5    S    
C15   C16   A    
C27   C28   S    
