data_mof_unit_59800.cif
_audit_creation_date              2013-03-05T16:45:56-0500
_audit_creation_method            fapswitch 2.2
_symmetry_space_group_name_H-M    P1
_symmetry_Int_Tables_number       1
_space_group_crystal_system       triclinic
_cell_length_a                    9.915535
_cell_length_b                    10.686854
_cell_length_c                    16.829104
_cell_angle_alpha                 88.396192
_cell_angle_beta                  95.377502
_cell_angle_gamma                 91.314029
_cell_volume                      1774.39698698

loop_
_atom_site_label
_atom_site_type_symbol
_atom_site_description
_atom_site_fract_x
_atom_site_fract_y
_atom_site_fract_z
_atom_type_partial_charge
O1    O     O_R   0.614690 0.316790 0.499990 -0.630269
O2    O     O_R   0.385350 0.316760 0.500000 -0.619716
C1    C     C_R   0.498462 0.260580 0.500639 0.866472
O3    O     O_R   0.627460 0.498860 0.616130 -0.569350
O4    O     O_R   0.398120 0.498820 0.616130 -0.624354
C2    C     C_R   0.518523 0.498580 0.652913 0.870136
Zn1   Zn    Zn3+2 0.653130 0.500020 0.499990 0.998415
Zn2   Zn    Zn3+2 0.346870 0.499980 0.500010 0.967188
O5    O     O_R   0.614650 0.683240 0.500000 -0.595553
O6    O     O_R   0.385310 0.683210 0.500010 -0.593822
O7    O     O_R   0.601880 0.501180 0.383870 -0.597863
O8    O     O_R   0.372540 0.501140 0.383870 -0.613934
C3    C     C_R   0.501039 0.739855 0.500247 0.872068
C4    C     C_R   0.481125 0.499037 0.346924 0.859899
C5    C     C_R   0.530683 0.492769 0.738786 -0.065032
C6    C     C_R   0.442646 0.413546 0.777320 -0.232543
C7    C     C_R   0.450174 0.408991 0.859538 -0.172026
C8    C     C_R   0.545041 0.485347 0.904188 0.236531
C9    C     C_R   0.637632 0.562198 0.865586 0.209899
C10   C     C_R   0.627973 0.566603 0.782254 -0.127672
C11   C     C_R   0.558740 0.416485 0.143175 -0.165510
C12   C     C_R   0.569677 0.427952 0.225043 -0.247828
C13   C     C_R   0.444497 0.462910 0.096798 0.325878
N1    N     N_2   0.549910 0.484611 0.987919 -0.211105
N2    N     N_2   0.437073 0.464716 0.013131 -0.201300
C14   C     C_R   0.466796 0.485324 0.261284 -0.026608
H1    H     H_    0.658257 0.391724 0.259940 0.155798
H2    H     H_    0.640086 0.373421 0.115788 0.150231
H3    H     H_    0.693702 0.629595 0.751255 0.185496
C15   C     C_R   0.349080 0.524615 0.215637 -0.220133
C16   C     C_R   0.337866 0.512638 0.133348 -0.189724
H4    H     H_    0.267634 0.566922 0.243216 0.147300
H5    H     H_    0.381478 0.346188 0.888416 0.166326
H6    H     H_    0.248840 0.546603 0.097748 0.140950
H7    H     H_    0.368610 0.354710 0.743735 0.156526
C17   C     C_R   0.570729 0.069595 0.446269 0.120149
C18   C     C_R   0.492111 0.129232 0.496942 -0.079018
C19   C     C_R   0.400637 0.060775 0.540341 -0.220139
H8    H     H_    0.332736 0.106806 0.576522 0.157150
C20   C     C_R   0.405114 0.931445 0.541959 -0.229841
H9    H     H_    0.339326 0.878082 0.578834 0.172352
C21   C     C_R   0.499466 0.872358 0.499179 -0.094766
C22   C     C_R   0.573165 0.941814 0.446281 0.116726
C23   C     C_3   0.720325 0.943743 0.433922 -0.500776
C24   C     C_3   0.717305 0.085194 0.434904 -0.474046
H10   H     H_    0.784140 0.902094 0.485390 0.217826
H11   H     H_    0.736712 0.910177 0.373774 0.201218
H12   H     H_    0.777951 0.125058 0.487545 0.213643
H13   H     H_    0.734112 0.131005 0.376427 0.196927
C25   C     C_R   0.074859 0.405943 0.537694 0.097758
N3    N     N_R   0.142860 0.499130 0.500540 -0.113449
C26   C     C_R   0.067524 0.581531 0.451914 0.199294
C27   C     C_R   0.921767 0.578564 0.450014 0.209969
N4    N     N_R   0.857210 0.499170 0.500530 -0.106233
C28   C     C_R   0.933715 0.406872 0.538659 0.025790
C29   C     C_3   0.944307 0.363868 0.624619 0.160740
C30   C     C_3   0.097787 0.362710 0.622529 -0.520993
H14   H     H_    0.897860 0.269390 0.633725 0.097263
H15   H     H_    0.154164 0.433189 0.660848 0.242857
H16   H     H_    0.139581 0.266930 0.628255 0.161653
N5    N     N_2   0.135835 0.663477 0.400285 -0.257785
H17   H     H_    0.124446 0.640738 0.340981 0.206784
C31   C     C_3   0.134953 0.796352 0.414982 -0.751980
H18   H     H_    0.059468 0.843576 0.372114 0.207199
H19   H     H_    0.235453 0.838163 0.404950 0.254174
H20   H     H_    0.113144 0.814478 0.477217 0.240035
N6    N     N_2   0.842719 0.659217 0.397346 -0.252756
H21   H     H_    0.867035 0.751368 0.406705 0.214249
C32   C     C_3   0.833508 0.628745 0.313651 -0.776211
H22   H     H_    0.910772 0.682673 0.282550 0.209154
H23   H     H_    0.732475 0.655404 0.285114 0.253613
H24   H     H_    0.846907 0.527005 0.305735 0.232323
N7    N     N_R   0.903637 0.456280 0.679623 0.242007
O9    O     O_R   0.929480 0.575156 0.668299 -0.423341
O10   O     O_R   0.864483 0.417166 0.747774 -0.427245
N8    N     N_2   0.733958 0.641134 0.909655 -0.327234
H25   H     H_    0.716203 0.655290 0.968080 0.236023
C33   C     C_3   0.874619 0.616549 0.900786 -0.693520
H26   H     H_    0.940690 0.681847 0.937971 0.218440
H27   H     H_    0.896868 0.631724 0.837797 0.288338
H28   H     H_    0.898847 0.518875 0.920686 0.250910

loop_
_geom_bond_atom_site_label_1
_geom_bond_atom_site_label_2
_geom_bond_distance
_ccdc_geom_bond_type
C19   C20   1.383290 A    
C28   C29   1.500502 S    
C31   H19   1.108187 S    
N7    O9    1.302533 A    
C9    C10   1.396225 A    
C27   N4    1.374444 A    
C26   C27   1.442254 A    
Zn1   O7    1.972326 S    
C8    N1    1.405218 S    
C17   C18   1.385250 A    
N8    C33   1.447277 S    
C26   N5    1.421686 S    
C6    H7    1.083826 S    
C15   C16   1.388165 A    
O7    C4    1.296439 A    
C33   H27   1.109615 S    
C30   H15   1.111749 S    
C5    C6    1.393132 A    
C29   C30   1.525875 S    
C32   H23   1.109355 S    
C8    C9    1.409537 A    
N5    C31   1.448563 S    
O5    C3    1.291275 A    
C2    C5    1.438598 S    
C6    C7    1.378215 A    
C23   H11   1.110645 S    
C20   C21   1.403961 A    
C31   H20   1.112203 S    
C11   C12   1.380530 A    
N7    O10   1.300032 A    
C32   H22   1.109520 S    
C7    H5    1.083266 S    
O3    Zn1   1.994212 S    
C3    C21   1.416078 S    
C23   H10   1.112359 S    
C7    C8    1.407819 A    
C10   H3    1.083531 S    
C5    C10   1.397677 A    
N6    H21   1.021500 S    
C19   H8    1.083892 S    
N1    N2    1.245006 D    
O3    C2    1.294235 A    
C33   H26   1.111035 S    
C30   H16   1.111388 S    
C4    C14   1.446151 S    
N3    C26   1.370541 A    
N6    C32   1.448620 S    
C13   C16   1.394498 A    
C32   H24   1.111592 S    
C22   C23   1.492691 S    
C18   C19   1.398267 A    
C24   H13   1.111745 S    
Zn2   O8    1.994212 S    
C25   N3    1.360410 A    
C16   H6    1.083199 S    
C17   C24   1.488590 S    
N8    H25   1.030846 S    
Zn2   N3    2.023535 S    
C20   H9    1.083916 S    
C11   H2    1.083232 S    
O8    C4    1.293717 A    
C14   C15   1.401844 A    
C12   H1    1.082792 S    
C11   C13   1.406009 A    
C21   C22   1.391954 A    
C23   C24   1.513230 S    
C24   H12   1.112406 S    
Zn1   O5    2.003450 S    
N4    C28   1.366670 A    
C9    N8    1.428006 S    
C29   N7    1.460900 S    
O1    Zn1   1.986305 S    
C25   C30   1.486789 S    
O2    Zn2   2.003451 S    
O6    C3    1.284790 A    
O4    Zn2   1.972326 S    
C25   C28   1.401405 A    
O2    C1    1.283253 A    
C15   H4    1.082020 S    
C33   H28   1.111889 S    
O4    C2    1.292301 A    
C29   H14   1.112782 S    
C13   N2    1.402668 S    
N5    H17   1.029114 S    
C27   N6    1.414520 S    
C31   H18   1.109553 S    
C1    C18   1.406525 S    
Zn2   O6    1.986305 S    
C12   C14   1.398142 A    
C17   C22   1.366334 A    
Zn1   N4    2.022959 S    
O1    C1    1.288171 A    
