data_mof_unit_12147.cif
_audit_creation_date              2012-12-10T17:04:37-0500
_audit_creation_method            fapswitch 2.2
_symmetry_space_group_name_H-M    P1
_symmetry_Int_Tables_number       1
_space_group_crystal_system       triclinic
_cell_length_a                    14.898402
_cell_length_b                    10.634942
_cell_length_c                    10.036586
_cell_angle_alpha                 89.030238
_cell_angle_beta                  90.133016
_cell_angle_gamma                 89.985854
_cell_volume                      1590.00110603

loop_
_atom_site_label
_atom_site_type_symbol
_atom_type_description
_atom_site_fract_x
_atom_site_fract_y
_atom_site_fract_z
_atom_type_partial_charge
C1    C     C_R   0.505301 0.262589 0.501332 0.948094
C2    C     C_R   0.186964 0.396582 0.522694 -0.279731
C3    C     C_R   0.231814 0.508985 0.498640 -0.074309
C4    C     C_R   0.327227 0.502988 0.499709 0.887520
C5    C     C_R   0.186398 0.623368 0.473711 0.028144
C6    C     C_2   0.562014 0.934798 0.406524 0.209776
C7    C     C_2   0.510616 0.870050 0.494524 -0.387931
C8    C     C_2   0.547964 0.069898 0.397838 -0.170711
C9    C     C_2   0.526722 0.132462 0.507231 -0.397068
C10   C     C_2   0.554406 0.568046 0.923971 -0.121024
C11   C     C_2   0.551269 0.572705 0.073862 -0.128575
C12   C     C_R   0.904099 0.615636 0.481594 0.153428
C13   C     C_R   0.505198 0.737243 0.498686 0.906952
C14   C     C_R   0.672703 0.498955 0.500194 0.870317
C15   C     C_R   0.811497 0.613098 0.481587 -0.274475
C16   C     C_R   0.767665 0.499587 0.500707 -0.033987
C17   C     C_R   0.813444 0.387078 0.520652 -0.273430
C18   C     C_R   0.907084 0.386121 0.521159 0.088263
C19   C     C_R   0.952603 0.502517 0.501361 0.036863
C20   C     C_3   0.912537 0.145190 0.557865 -0.432064
C21   C     C_3   0.880386 0.124830 0.701713 -0.325886
C22   C     C_3   0.830607 0.000136 0.718031 -0.891112
C23   C     C_R   0.956450 0.273133 0.539829 0.099493
C24   C     C_3   0.238112 0.743932 0.440752 -0.428499
C25   C     C_3   0.246220 0.828771 0.562615 -0.340294
C26   C     C_3   0.266405 0.964623 0.520898 -0.915974
C27   C     C_3   0.629709 0.876282 0.312536 -0.366030
C28   C     C_3   0.721744 0.938812 0.323707 -0.930409
C29   C     C_R   0.050040 0.279118 0.540868 -0.250895
C30   C     C_R   0.094437 0.393694 0.521659 0.094259
C31   C     C_R   0.046327 0.506230 0.500566 0.021334
C32   C     C_R   0.091792 0.622251 0.477989 0.110341
C33   C     C_R   0.041217 0.733287 0.459694 -0.233021
C34   C     C_R   0.948417 0.729740 0.461840 -0.237699
H1    H     H_    0.773207 0.699017 0.467363 0.138196
H2    H     H_    0.088714 0.193630 0.556444 0.145018
H3    H     H_    0.224840 0.310520 0.540200 0.141038
H4    H     H_    0.071939 0.824338 0.444442 0.161212
H5    H     H_    0.911182 0.816559 0.447410 0.148963
H6    H     H_    0.768455 0.001175 0.656761 0.261814
H7    H     H_    0.873998 0.920719 0.687541 0.265155
H8    H     H_    0.811595 0.985611 0.824080 0.253436
H9    H     H_    0.939341 0.124578 0.769851 0.225371
H10   H     H_    0.834935 0.202193 0.731491 0.227599
H11   H     H_    0.856522 0.134277 0.485770 0.202261
H12   H     H_    0.464523 0.915483 0.561873 0.140587
H13   H     H_    0.961172 0.069351 0.534223 0.194760
H14   H     H_    0.325526 0.969089 0.453897 0.272492
H15   H     H_    0.207666 0.006211 0.467885 0.255620
H16   H     H_    0.280487 0.021171 0.610556 0.250682
H17   H     H_    0.183267 0.827680 0.621788 0.229053
H18   H     H_    0.301103 0.792826 0.628147 0.228104
H19   H     H_    0.306671 0.724385 0.403776 0.207758
H20   H     H_    0.205263 0.793909 0.355650 0.205838
H21   H     H_    0.718410 0.039117 0.291502 0.266784
H22   H     H_    0.746445 0.932695 0.428002 0.258995
H23   H     H_    0.554094 0.116981 0.301311 0.175739
H24   H     H_    0.770397 0.889992 0.258755 0.253088
H25   H     H_    0.640188 0.774787 0.333401 0.217160
H26   H     H_    0.604902 0.887069 0.208493 0.197040
H27   H     H_    0.529896 0.088758 0.605801 0.160811
H28   H     H_    0.604101 0.626094 0.873554 0.162827
H29   H     H_    0.451045 0.450807 0.898510 0.163114
H30   H     H_    0.595241 0.639188 0.122331 0.152351
H31   H     H_    0.462381 0.434128 0.103270 0.164224
H32   H     H_    0.774700 0.301955 0.535306 0.143893
N1    N     N_2   0.500970 0.501330 0.852150 -0.193135
N2    N     N_2   0.500990 0.501360 0.147810 -0.192191
O1    O     O_R   0.499990 0.319060 0.613040 -0.616922
O2    O     O_R   0.500010 0.319100 0.386900 -0.612415
O3    O     O_R   0.367830 0.499950 0.613080 -0.612599
O4    O     O_R   0.367860 0.499990 0.386940 -0.615831
O5    O     O_R   0.499990 0.680900 0.613100 -0.609754
O6    O     O_R   0.500010 0.680940 0.386960 -0.621570
O7    O     O_R   0.632140 0.500010 0.613060 -0.612961
O8    O     O_R   0.632170 0.500050 0.386920 -0.619875
Zn1   Zn    Zn3+2 0.499980 0.499970 0.650990 0.941322
Zn2   Zn    Zn3+2 0.500020 0.500030 0.349010 0.933290

loop_
_geom_bond_atom_site_label_1
_geom_bond_atom_site_label_2
_ccdc_geom_bond_type
O2    Zn2   S    
O1    Zn1   S    
N1    Zn1   S    
C4    O4    A    
C19   C31   A    
C28   H22   S    
C10   N1    D    
C29   H2    S    
C17   H32   S    
C9    H27   S    
C23   C29   A    
O8    Zn2   S    
C27   H26   S    
C26   H16   S    
C30   C31   A    
C22   H7    S    
C24   H20   S    
C15   C16   A    
C18   C19   A    
O4    Zn2   S    
C21   H9    S    
C31   C32   A    
C8    C9    D    
C12   C15   A    
C20   H11   S    
C26   H14   S    
C5    C32   A    
C21   C22   S    
C10   H28   S    
C15   H1    S    
C28   H21   S    
C17   C18   A    
N2    Zn2   S    
H29   N1    S    
C18   C23   A    
C7    H12   S    
C1    C9    S    
C24   C25   S    
C11   H30   S    
C26   H15   S    
C16   C17   A    
C6    C8    S    
C25   C26   S    
C1    O1    A    
C34   H5    S    
C14   O8    A    
C25   H17   S    
C29   C30   A    
C8    H23   S    
C21   H10   S    
C6    C27   S    
C20   C23   S    
H31   N2    S    
C22   H6    S    
C33   C34   A    
C13   O6    A    
O7    Zn1   S    
C13   O5    A    
C14   C16   S    
C12   C34   A    
C3    C4    S    
O3    Zn1   S    
C11   N2    D    
C33   H4    S    
C3    C5    A    
C6    C7    D    
C28   H24   S    
C1    O2    A    
C2    C30   A    
C14   O7    A    
C2    C3    A    
C24   H19   S    
C25   H18   S    
C27   H25   S    
C32   C33   A    
C2    H3    S    
C22   H8    S    
C5    C24   S    
C12   C19   A    
C20   H13   S    
C10   C11   S    
C7    C13   S    
C20   C21   S    
O6    Zn2   S    
C27   C28   S    
O5    Zn1   S    
C4    O3    A    
