data_mof_unit_41727.cif
_audit_creation_date              2012-12-10T18:46:14-0500
_audit_creation_method            fapswitch 2.2
_symmetry_space_group_name_H-M    P1
_symmetry_Int_Tables_number       1
_space_group_crystal_system       triclinic
_cell_length_a                    9.915405
_cell_length_b                    10.628937
_cell_length_c                    13.296588
_cell_angle_alpha                 91.131116
_cell_angle_beta                  71.159895
_cell_angle_gamma                 90.248118
_cell_volume                      1325.99030385

loop_
_atom_site_label
_atom_site_type_symbol
_atom_type_description
_atom_site_fract_x
_atom_site_fract_y
_atom_site_fract_z
_atom_type_partial_charge
C1    C     C_R   0.500856 0.739243 0.498969 0.840169
C2    C     C_R   0.441416 0.532740 0.982838 -0.034705
C3    C     C_R   0.483609 0.546162 0.871838 -0.027222
C4    C     C_R   0.550709 0.520616 0.029364 0.029396
C5    C     C_R   0.690376 0.486412 0.965296 -0.066355
C6    C     C_R   0.732311 0.517799 0.858738 -0.179324
C7    C     C_R   0.630963 0.562765 0.817273 -0.049238
C8    C     C_R   0.530949 0.554679 0.134399 0.414656
C9    C     C_R   0.750964 0.445597 0.123120 -0.155363
C10   C     C_R   0.379076 0.540355 0.819393 -0.330393
C11   C     C_R   0.584156 0.934048 0.408650 -0.158525
C12   C     C_R   0.422601 0.512898 0.703295 0.888730
C13   C     C_R   0.587347 0.065070 0.412399 0.475429
C14   C     C_R   0.497959 0.128136 0.502340 -0.264322
C15   C     C_R   0.410398 0.066462 0.592642 -0.156778
C16   C     C_R   0.416442 0.935951 0.593258 0.496254
C17   C     C_R   0.501718 0.871840 0.500654 -0.277551
C18   C     C_R   0.948382 0.406301 0.449821 -0.063217
C19   C     C_R   0.092156 0.406942 0.447184 0.461211
C20   C     C_R   0.047758 0.592872 0.552876 0.425266
C21   C     C_R   0.906801 0.594467 0.549023 -0.114791
C22   C     C_R   0.499301 0.260711 0.500787 0.966537
C23   C     C_R   0.578165 0.502092 0.297544 0.909783
C24   C     C_R   0.787579 0.438810 0.012954 0.541323
C25   C     C_R   0.624735 0.505881 0.183321 -0.314394
C26   C     C_R   0.234048 0.556286 0.880686 0.380543
C27   C     C_R   0.192660 0.557284 0.991560 0.481743
C28   C     C_R   0.293146 0.528396 0.041925 0.300760
H1    H     H_    0.820876 0.404048 0.161445 0.214476
H2    H     H_    0.910802 0.331740 0.409063 0.188774
H3    H     H_    0.836261 0.670917 0.587414 0.171382
H4    H     H_    0.843502 0.518709 0.810178 0.174591
H5    H     H_    0.670108 0.610520 0.742984 0.166330
N1    N     N_R   0.142790 0.500030 0.500030 -0.203055
N2    N     N_R   0.857180 0.499940 0.500010 -0.159757
O1    O     O_R   0.385370 0.683250 0.500010 -0.590858
O2    O     O_R   0.614700 0.683220 0.500010 -0.637661
O3    O     O_R   0.328400 0.499990 0.653620 -0.642921
O4    O     O_R   0.557730 0.499960 0.653620 -0.625354
O5    O     O_R   0.385300 0.316780 0.499990 -0.629619
O6    O     O_R   0.614630 0.316750 0.499990 -0.593266
O7    O     O_R   0.442270 0.500040 0.346380 -0.615219
O8    O     O_R   0.671600 0.500010 0.346380 -0.603652
Zn1   Zn    Zn3+2 0.346870 0.500020 0.500000 0.982183
Zn2   Zn    Zn3+2 0.653130 0.499980 0.500000 0.956438
O9    O     O_3   0.674346 0.134904 0.329789 -0.733034
H6    H     H_    0.762940 0.086654 0.295005 0.369246
C29   C     C_2   0.319719 0.139207 0.687798 0.548477
H7    H     H_    0.338663 0.238531 0.697479 0.007861
O10   O     O_2   0.221530 0.089887 0.756100 -0.458368
O11   O     O_3   0.339602 0.874437 0.685007 -0.661872
H8    H     H_    0.376629 0.788250 0.685002 0.320251
O12   O     O_3   0.177148 0.311045 0.390286 -0.736046
H9    H     H_    0.276460 0.339444 0.369383 0.389208
O13   O     O_3   0.084562 0.686223 0.611919 -0.698057
H10   H     H_    0.164578 0.654736 0.632842 0.401412
O14   O     O_3   0.913886 0.380141 0.956380 -0.714274
H11   H     H_    0.909349 0.353440 0.885785 0.326911
O15   O     O_3   0.425661 0.641230 0.184769 -0.676862
H12   H     H_    0.453993 0.687451 0.240232 0.349563
O16   O     O_3   0.130378 0.572213 0.834078 -0.672876
H13   H     H_    0.118242 0.488895 0.803436 0.345257
O17   O     O_3   0.242087 0.486571 0.145032 -0.712440
H14   H     H_    0.308466 0.421574 0.153904 0.356830
O18   O     O_3   0.050341 0.575928 0.047977 -0.679574
H15   H     H_    0.037967 0.584505 0.124770 0.369839
C30   C     C_2   0.658536 0.862302 0.308352 0.406963
H16   H     H_    0.696815 0.767460 0.310805 0.082059
O19   O     O_2   0.672782 0.906651 0.221500 -0.502906

loop_
_geom_bond_atom_site_label_1
_geom_bond_atom_site_label_2
_ccdc_geom_bond_type
C2    C4    A    
O13   H10   S    
O11   H8    S    
C9    C24   A    
O3    Zn1   S    
C6    C7    A    
C27   O18   S    
C9    H1    S    
O8    Zn2   S    
C18   N2    A    
C1    C17   S    
C14   C15   A    
C16   O11   S    
C1    O2    A    
C4    C8    A    
C22   O5    A    
C10   C26   A    
C12   O4    A    
C29   O10   D    
C2    C3    A    
O14   H11   S    
C9    C25   A    
O15   H12   S    
C3    C10   A    
C13   C14   A    
C8    C25   A    
C21   H3    S    
C19   O12   S    
C26   C27   A    
C13   O9    S    
C23   O7    A    
O7    Zn1   S    
C15   C29   S    
C20   O13   S    
C21   N2    A    
C5    C6    A    
C10   C12   S    
O17   H14   S    
C29   H7    S    
C26   O16   S    
C11   C30   S    
C18   C19   A    
C3    C7    A    
C23   C25   S    
C8    O15   S    
C12   O3    A    
O16   H13   S    
O1    Zn1   S    
C11   C13   A    
C7    H5    S    
C18   H2    S    
O2    Zn2   S    
C30   H16   S    
C22   O6    A    
C28   O17   S    
O5    Zn1   S    
N1    Zn1   S    
C20   C21   A    
C1    O1    A    
C14   C22   S    
O18   H15   S    
C24   O14   S    
C20   N1    A    
C27   C28   A    
O6    Zn2   S    
O9    H6    S    
C5    C24   A    
C2    C28   A    
C30   O19   D    
C23   O8    A    
C4    C5    A    
O4    Zn2   S    
C11   C17   A    
C15   C16   A    
O12   H9    S    
C16   C17   A    
C6    H4    S    
C19   N1    A    
N2    Zn2   S    
