data_mof_unit_47705.cif
_audit_creation_date              2012-12-10T20:46:50-0500
_audit_creation_method            fapswitch 2.2
_symmetry_space_group_name_H-M    P1
_symmetry_Int_Tables_number       1
_space_group_crystal_system       triclinic
_cell_length_a                    12.843503
_cell_length_b                    8.934691
_cell_length_c                    8.117508
_cell_angle_alpha                 90.079952
_cell_angle_beta                  98.535376
_cell_angle_gamma                 90.255603
_cell_volume                      921.178070944

loop_
_atom_site_label
_atom_site_type_symbol
_atom_type_description
_atom_site_fract_x
_atom_site_fract_y
_atom_site_fract_z
_atom_type_partial_charge
C1    C     C_R   0.500178 0.218024 0.499991 0.954580
C2    C     C_R   0.870721 0.620171 0.658228 -0.166561
C3    C     C_R   0.127689 0.588414 0.507936 -0.047933
C4    C     C_R   0.867945 0.398594 0.477106 -0.083778
C5    C     C_R   0.026198 0.552191 0.538807 0.036095
C6    C     C_R   0.975272 0.420940 0.464983 -0.074399
C7    C     C_1   0.500039 0.065190 0.499941 -0.132075
C8    C     C_1   0.499994 0.934804 0.500127 -0.155368
C9    C     C_2   0.806179 0.271389 0.392249 0.566183
C10   C     C_2   0.171629 0.743830 0.529934 0.573714
C11   C     C_2   0.816327 0.733860 0.748492 0.390536
C12   C     C_R   0.500015 0.781977 0.500083 0.916338
C13   C     C_2   0.202363 0.238884 0.285227 0.461319
C14   C     C_R   0.297932 0.495482 0.465580 0.821478
C15   C     C_R   0.702466 0.504726 0.534903 0.957650
C16   C     C_R   0.815823 0.504960 0.562835 -0.158339
C17   C     C_R   0.185811 0.478790 0.440827 -0.255433
C18   C     C_R   0.034023 0.314881 0.386240 0.460383
C19   C     C_R   0.978230 0.638411 0.652401 0.451375
C20   C     C_R   0.139830 0.345284 0.372446 -0.123543
H1    H     H_    0.807430 0.249581 0.261010 0.120495
H2    H     H_    0.255564 0.763320 0.562499 0.029591
H3    H     H_    0.831850 0.851888 0.731142 0.120848
H4    H     H_    0.285403 0.222654 0.328541 0.050343
H5    H     H_    0.044417 0.099312 0.358294 0.398374
H6    H     H_    0.004603 0.755035 0.859804 0.347809
N1    N     N_1   0.500020 0.500000 0.073640 -0.013894
N2    N     N_1   0.499980 0.500000 0.926360 -0.002252
O1    O     O_R   0.499990 0.285340 0.636850 -0.615874
O2    O     O_2   0.114311 0.852377 0.502775 -0.549825
O3    O     O_2   0.760067 0.697294 0.850354 -0.522581
O4    O     O_2   0.162104 0.171546 0.160692 -0.515810
O5    O     O_3   0.990026 0.177718 0.336491 -0.746226
O6    O     O_3   0.039866 0.733532 0.761979 -0.726072
O7    O     O_R   0.500010 0.714660 0.363150 -0.610400
O8    O     O_R   0.500010 0.285340 0.363150 -0.617785
O9    O     O_R   0.499990 0.714660 0.636850 -0.605021
O10   O     O_R   0.346350 0.500000 0.614250 -0.616764
O11   O     O_R   0.653650 0.500000 0.385750 -0.633555
O12   O     O_R   0.346360 0.500000 0.340500 -0.619408
O13   O     O_R   0.653640 0.500000 0.659500 -0.554737
O14   O     O_2   0.753125 0.191078 0.469056 -0.589687
Zn1   Zn    Zn3+2 0.499990 0.500000 0.682780 1.054078
Zn2   Zn    Zn3+2 0.500010 0.500000 0.317220 1.026132

loop_
_geom_bond_atom_site_label_1
_geom_bond_atom_site_label_2
_ccdc_geom_bond_type
C4    C16   A    
O9    Zn1   S    
O11   Zn2   S    
C5    C19   A    
C14   O10   A    
C2    C16   A    
C10   O2    D    
N2    Zn1   S    
O12   Zn2   S    
C8    C12   S    
C9    H1    S    
C1    O1    A    
C2    C19   A    
C11   O3    D    
C7    C8    T    
C3    C10   S    
O1    Zn1   S    
C12   O7    A    
O7    Zn2   S    
O13   Zn1   S    
C14   C17   S    
C15   O11   A    
C9    O14   D    
C2    C11   S    
C11   H3    S    
C3    C17   A    
C18   C20   A    
C1    O8    A    
C5    C6    A    
C6    C18   A    
C18   O5    S    
O8    Zn2   S    
C14   O12   A    
C15   C16   S    
O10   Zn1   S    
C17   C20   A    
C15   O13   A    
C4    C6    A    
C12   O9    A    
C13   O4    D    
C13   C20   S    
C3    C5    A    
C4    C9    S    
C1    C7    S    
N1    Zn2   S    
H6    O6    S    
C10   H2    S    
C13   H4    S    
H5    O5    S    
N1    N2    T    
C19   O6    S    
