data_mof_unit_11438.cif
_audit_creation_date              2012-12-10T18:05:57-0500
_audit_creation_method            fapswitch 2.2
_symmetry_space_group_name_H-M    P1
_symmetry_Int_Tables_number       1
_space_group_crystal_system       triclinic
_cell_length_a                    12.577474
_cell_length_b                    13.13458
_cell_length_c                    14.999638
_cell_angle_alpha                 90.673918
_cell_angle_beta                  102.689591
_cell_angle_gamma                 82.040536
_cell_volume                      2393.67778637

loop_
_atom_site_label
_atom_site_type_symbol
_atom_type_description
_atom_site_fract_x
_atom_site_fract_y
_atom_site_fract_z
_atom_type_partial_charge
C1    C     C_R   0.438455 0.691157 0.484175 0.853908
C2    C     C_R   0.401092 0.503825 0.796700 -0.253729
C3    C     C_R   0.500767 0.502050 0.769244 -0.077249
C4    C     C_R   0.500444 0.500758 0.673115 0.898382
C5    C     C_R   0.600126 0.500377 0.833470 -0.249794
C6    C     C_R   0.717563 0.052636 0.466329 -0.246998
C7    C     C_R   0.599187 0.196751 0.510803 -0.132358
C8    C     C_R   0.292934 0.839299 0.479996 -0.192467
C9    C     C_R   0.260472 0.944701 0.479873 -0.137057
C10   C     C_R   0.335168 0.011814 0.473899 -0.191229
C11   C     C_R   0.442791 0.973754 0.463308 0.089484
C12   C     C_R   0.600125 0.496521 0.111394 0.118997
C13   C     C_R   0.467714 0.868292 0.447061 0.084204
C14   C     C_R   0.527986 0.035542 0.471352 0.080475
C15   C     C_R   0.629750 0.995080 0.450301 0.145439
C16   C     C_R   0.561947 0.307904 0.511992 0.882327
C17   C     C_R   0.643899 0.895951 0.416846 -0.234711
C18   C     C_R   0.563198 0.833370 0.414282 -0.196075
C19   C     C_R   0.516571 0.134699 0.504473 -0.261785
C20   C     C_R   0.705187 0.152360 0.500448 -0.038758
C21   C     C_R   0.397908 0.800444 0.466741 -0.115109
C22   C     C_R   0.085914 0.352057 0.367986 -0.301239
C23   C     C_R   0.300545 0.502477 0.009196 -0.214600
C24   C     C_R   0.800046 0.628636 0.609688 0.026604
C25   C     C_R   0.904695 0.657271 0.631843 -0.250804
C26   C     C_R   0.985793 0.609492 0.589483 -0.199093
C27   C     C_R   0.962159 0.532306 0.524434 0.013795
C28   C     C_R   0.499584 0.499209 0.326896 0.869878
C29   C     C_R   0.854059 0.506161 0.504219 0.249261
C30   C     C_R   0.041015 0.479875 0.479130 -0.014421
C31   C     C_R   0.009417 0.404932 0.413013 0.177999
C32   C     C_R   0.902271 0.382212 0.393477 -0.286187
C33   C     C_R   0.826652 0.430391 0.440112 -0.181812
C34   C     C_R   0.300779 0.503964 0.916610 -0.213664
C35   C     C_R   0.150892 0.497889 0.497009 -0.049637
C36   C     C_R   0.193224 0.373358 0.389039 0.001896
C37   C     C_R   0.599068 0.495876 0.203372 -0.263974
C38   C     C_R   0.499378 0.497686 0.230810 -0.067806
C39   C     C_R   0.400077 0.499087 0.166585 -0.256262
C40   C     C_R   0.399610 0.499967 0.074163 0.116875
C41   C     C_R   0.500000 0.498894 0.046413 0.062425
C42   C     C_2   0.806067 0.201537 0.531196 0.905031
C43   C     C_R   0.400104 0.502843 0.888692 0.116623
C44   C     C_R   0.500251 0.500359 0.953666 0.061215
C45   C     C_R   0.600637 0.499302 0.925911 0.116436
C46   C     C_R   0.699720 0.496681 0.990894 -0.212485
C47   C     C_R   0.699474 0.495261 0.083489 -0.217448
H1    H     H_    0.676034 0.493978 0.253432 0.164500
H2    H     H_    0.877501 0.324570 0.343780 0.178754
H3    H     H_    0.063058 0.294658 0.317531 0.151456
H4    H     H_    0.323123 0.500751 0.188341 0.162448
H5    H     H_    0.182746 0.552933 0.545830 0.121697
H6    H     H_    0.736450 0.665600 0.642116 0.140169
H7    H     H_    0.065431 0.634845 0.608750 0.134087
H8    H     H_    0.922884 0.716413 0.681530 0.153190
H9    H     H_    0.747722 0.405183 0.425756 0.207481
H10   H     H_    0.223167 0.503391 0.029993 0.147639
H11   H     H_    0.223566 0.505887 0.866924 0.150519
H12   H     H_    0.719172 0.865295 0.396173 0.152441
H13   H     H_    0.324069 0.506041 0.746599 0.160316
H14   H     H_    0.677069 0.498714 0.811694 0.168284
H15   H     H_    0.777105 0.495713 0.970101 0.149243
H16   H     H_    0.776682 0.493320 0.133195 0.149418
H17   H     H_    0.961764 0.209485 0.520036 0.347674
H18   H     H_    0.797018 0.017908 0.455491 0.177989
H19   H     H_    0.442344 0.166298 0.525338 0.166365
H20   H     H_    0.236964 0.788316 0.492784 0.155486
H21   H     H_    0.305876 0.092736 0.476290 0.134805
H22   H     H_    0.178870 0.974491 0.488808 0.155898
H23   H     H_    0.577086 0.757050 0.387475 0.176231
H24   H     H_    0.253864 0.333452 0.355035 0.136993
N1    N     N_R   0.222190 0.444670 0.452360 -0.102390
N2    N     N_R   0.776970 0.554790 0.547140 -0.127506
O1    O     O_R   0.366740 0.627160 0.477250 -0.617109
O2    O     O_R   0.895417 0.175804 0.489901 -0.833952
O3    O     O_R   0.544830 0.662520 0.507680 -0.622436
O4    O     O_R   0.410940 0.482340 0.616930 -0.626124
O5    O     O_R   0.589030 0.517700 0.647360 -0.616112
O6    O     O_R   0.455170 0.337480 0.492320 -0.619830
O7    O     O_R   0.633260 0.372840 0.522750 -0.595819
O8    O     O_R   0.410970 0.482300 0.352640 -0.621005
O9    O     O_R   0.589060 0.517660 0.383070 -0.657779
O10   O     O_2   0.814835 0.258194 0.596897 -0.607079
Zn1   Zn    Zn3+2 0.381090 0.476390 0.479680 0.938452
Zn2   Zn    Zn3+2 0.618910 0.523610 0.520320 0.951105

loop_
_geom_bond_atom_site_label_1
_geom_bond_atom_site_label_2
_ccdc_geom_bond_type
C18   H23   S    
C39   H4    S    
C1    C21   S    
C27   C29   A    
O7    Zn2   S    
C45   C46   A    
C42   O2    S    
C37   C38   A    
C30   C35   A    
C46   H15   S    
C1    O1    A    
C9    H22   S    
C47   H16   S    
O6    Zn1   S    
C11   C14   A    
C2    H13   S    
C24   N2    A    
C29   N2    A    
C23   C40   A    
C29   C33   A    
C19   H19   S    
C23   H10   S    
C12   C37   A    
C6    C15   A    
C6    H18   S    
C8    C9    A    
C9    C10   A    
C36   H24   S    
C22   H3    S    
C33   H9    S    
C27   C30   A    
C12   C47   A    
C26   H7    S    
C8    C21   A    
C38   C39   A    
C22   C31   A    
C34   C43   A    
C28   O9    A    
C24   C25   A    
C39   C40   A    
O4    Zn1   S    
C24   H6    S    
C5    C45   A    
C16   O7    A    
C43   C44   A    
C4    O5    A    
C12   C41   A    
C31   C32   A    
C28   C38   S    
C2    C43   A    
C23   C34   A    
C17   C18   A    
C26   C27   A    
C5    H14   S    
C37   H1    S    
N2    Zn2   S    
N1    Zn1   S    
C17   H12   S    
C13   C18   A    
O5    Zn2   S    
C7    C16   S    
C35   N1    A    
C7    C19   A    
C41   C44   A    
C3    C4    S    
O8    Zn1   S    
C22   C36   A    
C44   C45   A    
C15   C17   A    
C46   C47   A    
C40   C41   A    
C28   O8    A    
C1    O3    A    
C14   C19   A    
C42   O10   D    
C25   H8    S    
O1    Zn1   S    
C3    C5    A    
C20   C42   S    
C10   H21   S    
O9    Zn2   S    
C6    C20   A    
C16   O6    A    
C32   C33   A    
C2    C3    A    
C25   C26   A    
C4    O4    A    
C13   C21   A    
C11   C13   A    
C30   C31   A    
H17   O2    S    
C32   H2    S    
C10   C11   A    
C8    H20   S    
C7    C20   A    
C35   H5    S    
C34   H11   S    
C14   C15   A    
O3    Zn2   S    
C36   N1    A    
