data_mof_unit_15776.cif
_audit_creation_date              2012-12-10T16:48:07-0500
_audit_creation_method            fapswitch 2.2
_symmetry_space_group_name_H-M    P1
_symmetry_Int_Tables_number       1
_space_group_crystal_system       triclinic
_cell_length_a                    15.80862
_cell_length_b                    8.782452
_cell_length_c                    7.617056
_cell_angle_alpha                 103.775959
_cell_angle_beta                  95.293197
_cell_angle_gamma                 94.937097
_cell_volume                      1016.33835292

loop_
_atom_site_label
_atom_site_type_symbol
_atom_type_description
_atom_site_fract_x
_atom_site_fract_y
_atom_site_fract_z
_atom_type_partial_charge
C1    C     C_R   0.496719 0.200541 0.453419 0.803270
C2    C     C_R   0.503281 0.799459 0.546581 0.803271
C3    C     C_R   0.340412 0.500300 0.500344 0.804801
C4    C     C_R   0.659588 0.499700 0.499655 0.804800
C5    C     C_2   0.485595 0.032466 0.431382 -0.235814
C6    C     C_2   0.514405 0.967534 0.568618 -0.235816
C7    C     C_3   0.972783 0.422891 0.622463 -0.215279
C8    C     C_3   0.027217 0.577108 0.377538 -0.215334
C9    C     C_3   0.020171 0.352664 0.457954 -0.170551
C10   C     C_3   0.979829 0.647333 0.542047 -0.170547
C11   C     C_1   0.250963 0.501977 0.501891 -0.037110
C12   C     C_1   0.749037 0.498022 0.498109 -0.037111
C13   C     C_3   0.037031 0.573901 0.665991 0.436312
C14   C     C_3   0.962970 0.426096 0.334010 0.436187
C15   C     C_3   0.083839 0.502548 0.503359 -0.066459
C16   C     C_3   0.916161 0.497450 0.496642 -0.066439
C17   C     C_1   0.175524 0.503046 0.503476 0.111518
C18   C     C_1   0.824476 0.496952 0.496524 0.111521
Cu1   Cu    Cu3+1 0.509330 0.517380 0.684380 1.166258
Cu2   Cu    Cu3+1 0.490670 0.482620 0.315620 1.166259
H1    H     H_    0.948680 0.358453 0.719192 0.264100
H2    H     H_    0.051318 0.641549 0.280809 0.264088
N1    N     N_2   0.476600 0.456420 0.038510 0.076051
N2    N     N_2   0.523400 0.543580 0.961490 0.076048
O1    O     O_R   0.506070 0.286130 0.619780 -0.564612
O2    O     O_R   0.493930 0.713870 0.380220 -0.564612
O3    O     O_R   0.490300 0.256770 0.308360 -0.554035
O4    O     O_R   0.509700 0.743230 0.691640 -0.554035
O5    O     O_R   0.386960 0.514660 0.655680 -0.521736
O6    O     O_R   0.613040 0.485340 0.344320 -0.521738
O7    O     O_R   0.371190 0.485310 0.344260 -0.538013
O8    O     O_R   0.628810 0.514690 0.655740 -0.538016
C19   C     C_1   0.044239 0.191381 0.412110 0.357213
N3    N     N_1   0.063532 0.064497 0.375610 -0.221720
C20   C     C_1   0.955763 0.808617 0.587907 0.357360
N4    N     N_1   0.936470 0.935502 0.624420 -0.221607
S1    S     S_3+6 0.913379 0.326388 0.112252 0.043220
O9    O     O_2   0.845518 0.199898 0.124939 -0.277860
O10   O     O_2   0.873117 0.442536 0.024032 -0.216449
O11   O     O_3   0.987716 0.245111 0.987059 -0.516437
H3    H     H_    0.996541 0.146720 0.024667 0.352004
S2    S     S_3+6 0.086622 0.673611 0.887746 0.043190
O12   O     O_2   0.126869 0.557462 0.975988 -0.216484
O13   O     O_2   0.154496 0.800076 0.875049 -0.277944
O14   O     O_3   0.012284 0.754924 0.012910 -0.516468
H4    H     H_    0.003585 0.853460 0.975524 0.352085
C21   C     C_1   0.433898 0.943194 0.264549 0.386075
N5    N     N_1   0.392778 0.872815 0.131687 -0.166216
C22   C     C_1   0.566102 0.056806 0.735451 0.386080
N6    N     N_1   0.607222 0.127185 0.868313 -0.166211
S3    S     S_3+6 0.375444 0.362942 0.943144 0.161842
O15   O     O_2   0.314149 0.484866 0.944415 -0.238569
O16   O     O_2   0.372723 0.259483 0.755202 -0.298911
O17   O     O_3   0.341333 0.242997 0.070571 -0.497839
H5    H     H_    0.279770 0.212426 0.027288 0.374932
S4    S     S_3+6 0.624556 0.637058 0.056856 0.161849
O18   O     O_2   0.627277 0.740517 0.244798 -0.298902
O19   O     O_2   0.685850 0.515134 0.055585 -0.238573
O20   O     O_3   0.658667 0.757004 0.929429 -0.497831
H6    H     H_    0.720233 0.787554 0.972692 0.374946

loop_
_geom_bond_atom_site_label_1
_geom_bond_atom_site_label_2
_ccdc_geom_bond_type
C8    H2    S    
C9    C14   S    
Cu2   N1    S    
S2    O14   S    
C15   C17   S    
C10   C20   S    
S3    O15   D    
Cu2   O3    S    
C4    C12   S    
C2    O4    A    
N1    S3    S    
Cu1   Cu2   S    
S4    O20   S    
N1    N2    D    
S3    O17   S    
Cu1   N2    S    
C9    C15   S    
C4    O6    A    
O20   H6    S    
C2    O2    A    
C10   C16   S    
O14   H4    S    
C14   S1    S    
C1    O1    A    
Cu1   O4    S    
C5    C21   S    
C3    O5    A    
C2    C6    S    
S2    O13   D    
C20   N4    T    
C9    C19   S    
C1    C5    S    
C3    O7    A    
C16   C18   S    
O11   H3    S    
S1    O9    D    
S4    O19   D    
C19   N3    T    
S1    O11   S    
C13   C15   S    
C6    C22   S    
C5    C6    D    
Cu1   O1    S    
C14   C16   S    
N2    S4    S    
S2    O12   D    
Cu1   O8    S    
C4    O8    A    
Cu1   O5    S    
C7    C9    S    
C7    C13   S    
C3    C11   S    
S4    O18   D    
S1    O10   D    
C22   N6    T    
C12   C18   T    
C1    O3    A    
O17   H5    S    
C13   S2    S    
Cu2   O6    S    
C8    C15   S    
C8    C14   S    
S3    O16   D    
C7    H1    S    
C10   C13   S    
C8    C10   S    
C7    C16   S    
C21   N5    T    
Cu2   O2    S    
Cu2   O7    S    
C11   C17   T    
