data_mof_unit_28619.cif
_audit_creation_date              2012-12-10T20:35:46-0500
_audit_creation_method            fapswitch 2.2
_symmetry_space_group_name_H-M    P1
_symmetry_Int_Tables_number       1
_space_group_crystal_system       triclinic
_cell_length_a                    15.735381
_cell_length_b                    10.691899
_cell_length_c                    9.872039
_cell_angle_alpha                 89.683205
_cell_angle_beta                  90.113555
_cell_angle_gamma                 90.12355
_cell_volume                      1660.85027212

loop_
_atom_site_label
_atom_site_type_symbol
_atom_type_description
_atom_site_fract_x
_atom_site_fract_y
_atom_site_fract_z
_atom_type_partial_charge
C1    C     C_R   0.502170 0.259990 0.500332 0.884721
C2    C     C_3   0.952276 0.560872 0.624182 -0.393829
C3    C     C_3   0.917321 0.493686 0.497264 0.311623
C4    C     C_3   0.950121 0.560926 0.368271 -0.435303
C5    C     C_3   0.048758 0.561280 0.367581 -0.060028
C6    C     C_1   0.825893 0.496103 0.499044 -0.100127
C7    C     C_1   0.174398 0.494124 0.497993 -0.038050
C8    C     C_1   0.249623 0.497508 0.499526 -0.151874
C9    C     C_R   0.511173 0.062847 0.623260 0.118480
C10   C     C_R   0.514399 0.128533 0.501310 -0.065290
C11   C     C_R   0.532713 0.065449 0.380502 -0.215023
C12   C     C_R   0.338366 0.500172 0.499956 0.925825
C13   C     C_R   0.532595 0.936031 0.380017 -0.199281
C14   C     C_R   0.513741 0.871334 0.500168 -0.077511
C15   C     C_R   0.509681 0.935395 0.622330 0.039868
C16   C     C_3   0.447924 0.928134 0.737838 -0.215058
C17   C     C_3   0.449907 0.070502 0.738737 -0.542219
C18   C     C_R   0.425814 0.484048 0.071036 0.174928
C19   C     C_R   0.571732 0.527068 0.071915 -0.140016
C20   C     C_R   0.571725 0.527093 0.928157 -0.137432
C21   C     C_R   0.425996 0.484419 0.928373 0.238118
C22   C     C_3   0.368005 0.374761 0.919925 -0.484892
C23   C     C_R   0.502182 0.739891 0.499682 0.882115
C24   C     C_3   0.368356 0.371559 0.073832 -0.154111
C25   C     C_R   0.661707 0.499958 0.500038 0.899997
C26   C     C_3   0.050242 0.561246 0.621864 -0.480619
C27   C     C_3   0.047675 0.353011 0.504235 -0.155231
C28   C     C_3   0.948858 0.356577 0.496421 -0.446314
C29   C     C_1   0.750591 0.498134 0.499987 -0.188571
C30   C     C_3   0.082839 0.490398 0.495296 0.251022
H1    H     H_    0.929609 0.512648 0.717654 0.176440
H2    H     H_    0.073712 0.659618 0.621078 0.187063
H3    H     H_    0.928678 0.658919 0.627292 0.177237
H4    H     H_    0.923982 0.514483 0.276488 0.173308
H5    H     H_    0.541837 0.115077 0.285646 0.166259
H6    H     H_    0.541887 0.887705 0.285041 0.168414
H7    H     H_    0.476972 0.885582 0.829953 0.154879
H8    H     H_    0.389173 0.116638 0.709646 0.226068
H9    H     H_    0.480689 0.108597 0.831199 0.190345
H10   H     H_    0.630031 0.547173 0.125710 0.155826
H11   H     H_    0.074799 0.516685 0.716343 0.183578
H12   H     H_    0.630022 0.547160 0.874461 0.153914
H13   H     H_    0.305764 0.400141 0.873906 0.218982
H14   H     H_    0.399135 0.292494 0.873989 0.188230
H15   H     H_    0.398524 0.286299 0.117681 0.181253
H16   H     H_    0.064208 0.315727 0.606607 0.118910
H17   H     H_    0.922018 0.304689 0.584691 0.163250
H18   H     H_    0.923691 0.310230 0.404216 0.220905
H19   H     H_    0.070307 0.660543 0.374701 0.161957
H20   H     H_    0.926769 0.659170 0.365980 0.164297
N1    N     N_R   0.499430 0.499140 0.142800 -0.118049
N2    N     N_R   0.499430 0.499180 0.857150 -0.106122
O1    O     O_R   0.500010 0.316790 0.614690 -0.618943
O2    O     O_R   0.500000 0.316760 0.385350 -0.627645
O3    O     O_R   0.377150 0.500020 0.614720 -0.603104
O4    O     O_R   0.377140 0.499990 0.385380 -0.621701
O5    O     O_R   0.500000 0.683240 0.614650 -0.614284
O6    O     O_R   0.499990 0.683210 0.385310 -0.617010
O7    O     O_R   0.622860 0.500010 0.614620 -0.625862
O8    O     O_R   0.622850 0.499980 0.385280 -0.625107
Zn1   Zn    Zn3+2 0.500010 0.500020 0.653130 0.964047
Zn2   Zn    Zn3+2 0.499990 0.499980 0.346870 0.949998
C31   C     C_2   0.362490 0.872659 0.701654 0.972170
O9    O     O_2   0.322696 0.911249 0.603372 -0.622066
O10   O     O_R   0.329707 0.775305 0.780933 -0.807653
H21   H     H_    0.272869 0.743874 0.746346 0.331611
N3    N     N_3   0.283719 0.396786 0.128963 -0.409884
H22   H     H_    0.283202 0.369702 0.230732 0.245892
H23   H     H_    0.270103 0.492513 0.124631 0.212285
C32   C     C_2   0.087799 0.261725 0.405189 0.919499
O11   O     O_2   0.163215 0.236126 0.416319 -0.625567
O12   O     O_R   0.039342 0.203292 0.304671 -0.832881
H24   H     H_    0.074180 0.144491 0.246875 0.349913
N4    N     N_3   0.083296 0.510567 0.241224 -0.457126
H25   H     H_    0.072572 0.575889 0.163827 0.182056
H26   H     H_    0.050397 0.429712 0.213685 0.228503

loop_
_geom_bond_atom_site_label_1
_geom_bond_atom_site_label_2
_ccdc_geom_bond_type
O6    Zn2   S    
C23   O6    A    
C31   O10   S    
C28   H17   S    
C26   H2    S    
C18   C21   A    
C19   C20   A    
C3    C6    S    
C7    C8    T    
N4    H26   S    
C18   C24   S    
C24   H15   S    
C3    C28   S    
N2    Zn1   S    
C15   C16   S    
O8    Zn2   S    
C17   H9    S    
C5    N4    S    
C1    O1    A    
C24   N3    S    
O1    Zn1   S    
C22   H14   S    
C16   C17   S    
C32   O11   D    
C16   C31   S    
C9    C10   A    
C16   H7    S    
C7    C30   S    
C13   C14   A    
C27   C30   S    
C5    H19   S    
N1    Zn2   S    
C18   N1    A    
C25   C29   S    
C4    H4    S    
O7    Zn1   S    
N4    H25   S    
N3    H22   S    
C13   H6    S    
C10   C11   A    
O12   H24   S    
O2    Zn2   S    
C4    H20   S    
C2    H1    S    
N3    H23   S    
C14   C23   S    
C1    O2    A    
C22   H13   S    
C8    C12   S    
C2    C26   S    
C12   O4    A    
C27   C32   S    
C2    H3    S    
C9    C17   S    
C25   O8    A    
C26   C30   S    
C22   C24   S    
C3    C4    S    
C27   H16   S    
C5    C30   S    
C23   O5    A    
C28   H18   S    
C1    C10   S    
C4    C5    S    
C20   H12   S    
O5    Zn1   S    
C11   H5    S    
C2    C3    S    
C9    C15   A    
C20   N2    A    
C11   C13   A    
O3    Zn1   S    
O4    Zn2   S    
C17   H8    S    
C12   O3    A    
C19   H10   S    
C31   O9    D    
C19   N1    A    
C6    C29   T    
O10   H21   S    
C27   C28   S    
C14   C15   A    
C32   O12   S    
C25   O7    A    
C21   C22   S    
C21   N2    A    
C26   H11   S    
