data_mof_unit_62587.cif
_audit_creation_date              2012-12-10T20:27:11-0500
_audit_creation_method            fapswitch 2.2
_symmetry_space_group_name_H-M    P1
_symmetry_Int_Tables_number       1
_space_group_crystal_system       triclinic
_cell_length_a                    25.709905
_cell_length_b                    25.709905
_cell_length_c                    39.913583
_cell_angle_alpha                 89.999676
_cell_angle_beta                  90.00008
_cell_angle_gamma                 90.000091
_cell_volume                      26382.8470347

loop_
_atom_site_label
_atom_site_type_symbol
_atom_type_description
_atom_site_fract_x
_atom_site_fract_y
_atom_site_fract_z
_atom_type_partial_charge
C1    C     C_1   0.171443 0.328557 0.250000 -0.024436
C2    C     C_1   0.828559 0.328559 0.250000 -0.022177
C3    C     C_1   0.500000 0.000000 0.515056 -0.002302
C4    C     C_1   0.500003 0.000000 0.984944 -0.002302
C5    C     C_1   0.500003 1.000000 0.015054 -0.002288
C6    C     C_1   1.000000 0.500000 0.984944 -0.002302
C7    C     C_1   1.000000 0.500000 0.015054 -0.002288
C8    C     C_R   0.500000 1.000000 0.340987 0.807457
C9    C     C_R   0.500000 1.000000 0.659014 0.807495
C10   C     C_R   1.000000 0.500000 0.340987 0.807456
C11   C     C_R   1.000000 0.500000 0.659014 0.807494
C12   C     C_R   0.000000 0.500000 0.840986 0.807494
C13   C     C_1   0.671441 0.828559 0.750000 -0.022058
C14   C     C_R   1.000000 0.500000 0.159013 0.807456
C15   C     C_R   0.500000 1.000000 0.840986 0.807494
C16   C     C_R   0.500000 1.000000 0.159013 0.807456
C17   C     C_R   0.598964 0.098964 0.250000 0.829711
C18   C     C_R   0.401035 0.901035 0.750000 0.824311
C19   C     C_R   0.901035 0.598965 0.250000 0.824313
C20   C     C_R   0.098964 0.401035 0.750000 0.829778
C21   C     C_R   0.401035 0.901036 0.250000 0.829680
C22   C     C_R   0.598965 0.098965 0.750000 0.824329
C23   C     C_R   0.098965 0.401035 0.250000 0.824280
C24   C     C_1   0.328557 0.171443 0.250000 -0.024436
C25   C     C_R   0.901035 0.598964 0.750000 0.829780
C26   C     C_R   0.598964 0.901036 0.750000 0.829780
C27   C     C_R   0.401035 0.098965 0.250000 0.824280
C28   C     C_R   0.901035 0.401035 0.750000 0.824329
C29   C     C_R   0.098964 0.598964 0.250000 0.829680
C30   C     C_R   0.401035 0.098964 0.750000 0.829778
C31   C     C_R   0.598965 0.901035 0.250000 0.824313
C32   C     C_R   0.098965 0.598965 0.750000 0.824311
C33   C     C_R   0.901035 0.401036 0.250000 0.829711
C34   C     C_R   0.211119 0.249881 0.274939 -0.053694
C35   C     C_1   0.828557 0.328557 0.750000 -0.024410
C36   C     C_R   0.771045 0.732281 0.719415 -0.054002
C37   C     C_R   0.733168 0.228067 0.280537 -0.054104
C38   C     C_R   0.249679 0.789083 0.725190 -0.053692
C39   C     C_R   0.788007 0.749245 0.275484 -0.053668
C40   C     C_R   0.228968 0.267732 0.719414 -0.053998
C41   C     C_R   0.266461 0.772303 0.280505 -0.054144
C42   C     C_R   0.749767 0.211471 0.724834 -0.053676
C43   C     C_R   0.210917 0.750321 0.725190 -0.053693
C44   C     C_R   0.771934 0.266832 0.280537 -0.054105
C45   C     C_R   0.732281 0.771046 0.719415 -0.054001
C46   C     C_1   0.171441 0.671441 0.250000 -0.022206
C47   C     C_R   0.249881 0.211119 0.274939 -0.053697
C48   C     C_R   0.788529 0.250233 0.724834 -0.053675
C49   C     C_R   0.227697 0.733539 0.280505 -0.054142
C50   C     C_R   0.267732 0.228968 0.719414 -0.053999
C51   C     C_R   0.749245 0.788006 0.275484 -0.053665
C52   C     C_R   0.728954 0.767719 0.780585 -0.054002
C53   C     C_R   0.288881 0.250119 0.225061 -0.053694
C54   C     C_R   0.250321 0.710917 0.774810 -0.053692
C55   C     C_R   0.766832 0.271934 0.219463 -0.054104
C56   C     C_R   0.271032 0.232267 0.780586 -0.053998
C57   C     C_1   0.328559 0.171441 0.750000 -0.022055
C58   C     C_R   0.711993 0.750755 0.224516 -0.053668
C59   C     C_R   0.750233 0.288529 0.775166 -0.053676
C60   C     C_R   0.233539 0.727696 0.219495 -0.054143
C61   C     C_R   0.728066 0.233168 0.219463 -0.054105
C62   C     C_R   0.289083 0.749679 0.774810 -0.053693
C63   C     C_R   0.250119 0.288881 0.225061 -0.053697
C64   C     C_R   0.767719 0.728954 0.780585 -0.054001
C65   C     C_R   0.272303 0.766461 0.219495 -0.054142
C66   C     C_R   0.711471 0.249767 0.775166 -0.053675
C67   C     C_R   0.750755 0.711994 0.224516 -0.053665
C68   C     C_1   0.671442 0.828558 0.250000 -0.024401
C69   C     C_R   0.232268 0.271032 0.780586 -0.053999
C70   C     C_1   0.066733 0.569432 0.449520 0.197494
C71   C     C_1   0.066797 0.430629 0.550482 0.197510
C72   C     C_1   0.430569 0.933264 0.449519 0.197493
C73   C     C_1   0.569370 0.933200 0.550483 0.197530
C74   C     C_1   0.933260 0.430570 0.449519 0.197512
C75   C     C_1   0.933198 0.569371 0.550483 0.197534
C76   C     C_1   0.569431 0.066737 0.449519 0.197513
C77   C     C_1   0.430630 0.066800 0.550483 0.197514
C78   C     C_1   0.433202 0.069370 0.949517 0.197510
C79   C     C_R   0.211270 0.288730 0.250000 0.027865
C80   C     C_1   0.433266 0.930569 0.050480 0.197494
C81   C     C_1   0.930630 0.566799 0.949517 0.197530
C82   C     C_1   0.069432 0.566735 0.050480 0.197493
C83   C     C_1   0.566802 0.930630 0.949517 0.197534
C84   C     C_1   0.566740 0.069429 0.050481 0.197512
C85   C     C_1   0.069370 0.433200 0.949517 0.197514
C86   C     C_1   0.930568 0.433265 0.050480 0.197513
C87   C     C_1   0.068460 0.568490 0.378128 0.213645
C88   C     C_1   0.068521 0.431573 0.621876 0.213571
C89   C     C_1   0.431511 0.931539 0.378127 0.213665
C90   C     C_R   0.788730 0.711270 0.750000 0.029139
C91   C     C_1   0.568426 0.931477 0.621876 0.213574
C92   C     C_1   0.931536 0.431512 0.378126 0.213663
C93   C     C_1   0.931477 0.568427 0.621877 0.213587
C94   C     C_1   0.568488 0.068463 0.378127 0.213643
C95   C     C_1   0.431574 0.068523 0.621876 0.213583
C96   C     C_1   0.431478 0.068426 0.878124 0.213570
C97   C     C_1   0.431540 0.931510 0.121872 0.213644
C98   C     C_1   0.931574 0.568522 0.878124 0.213574
C99   C     C_1   0.068490 0.568460 0.121873 0.213666
C100  C     C_1   0.568523 0.931574 0.878123 0.213586
C101  C     C_R   0.711270 0.211270 0.250000 0.029131
C102  C     C_1   0.568465 0.068487 0.121873 0.213663
C103  C     C_1   0.068426 0.431478 0.878124 0.213583
C104  C     C_1   0.931511 0.431538 0.121873 0.213644
C105  C     C_1   0.249811 0.171093 0.300578 0.200584
C106  C     C_1   0.714005 0.792741 0.687975 0.201763
C107  C     C_1   0.794542 0.284196 0.311928 0.201828
C108  C     C_1   0.170683 0.750598 0.699684 0.200588
C109  C     C_1   0.748416 0.827132 0.301683 0.200593
C110  C     C_1   0.286022 0.207286 0.687973 0.201769
C111  C     C_1   0.204708 0.716557 0.311862 0.201837
C112  C     C_1   0.828559 0.671441 0.750000 -0.022058
C113  C     C_R   0.288730 0.788730 0.750000 0.027884
C114  C     C_1   0.828192 0.250526 0.698961 0.200597
C115  C     C_1   0.249401 0.829317 0.699684 0.200588
C116  C     C_1   0.715804 0.205458 0.311929 0.201806
C117  C     C_1   0.792741 0.714005 0.687974 0.201777
C118  C     C_1   0.171094 0.249811 0.300578 0.200579
C119  C     C_1   0.749474 0.171807 0.698962 0.200597
C120  C     C_1   0.283443 0.795293 0.311862 0.201860
C121  C     C_1   0.207286 0.286022 0.687973 0.201756
C122  C     C_1   0.827132 0.748416 0.301683 0.200598
C123  C     C_1   0.785995 0.707259 0.812025 0.201763
C124  C     C_R   0.788730 0.711270 0.250000 0.027849
C125  C     C_1   0.250189 0.328907 0.199422 0.200584
C126  C     C_1   0.329317 0.749402 0.800316 0.200588
C127  C     C_1   0.705457 0.215804 0.188072 0.201828
C128  C     C_1   0.213978 0.292714 0.812027 0.201769
C129  C     C_1   0.751584 0.672868 0.198317 0.200593
C130  C     C_1   0.671807 0.249474 0.801038 0.200597
C131  C     C_1   0.295292 0.783443 0.188138 0.201837
C132  C     C_1   0.784196 0.294542 0.188071 0.201806
C133  C     C_1   0.250599 0.670683 0.800316 0.200588
C134  C     C_1   0.328906 0.250189 0.199422 0.200579
C135  C     C_R   0.211270 0.288730 0.750000 0.029139
C136  C     C_1   0.707259 0.785994 0.812026 0.201777
C137  C     C_1   0.216557 0.704707 0.188138 0.201860
C138  C     C_1   0.750526 0.328193 0.801038 0.200597
C139  C     C_1   0.672867 0.751584 0.198317 0.200598
C140  C     C_1   0.292714 0.213978 0.812027 0.201756
C141  C     C_R   0.288730 0.788731 0.250000 0.029102
C142  C     C_R   0.711270 0.211270 0.750000 0.027877
C143  C     C_R   0.211270 0.711270 0.750000 0.027884
C144  C     C_R   0.788730 0.288730 0.250000 0.029131
C145  C     C_R   0.711270 0.788730 0.750000 0.029139
C146  C     C_R   0.288730 0.211270 0.250000 0.027866
C147  C     C_R   0.788730 0.288730 0.750000 0.027877
C148  C     C_1   0.671441 0.171441 0.250000 -0.022177
C149  C     C_R   0.211270 0.711269 0.250000 0.029102
C150  C     C_R   0.288730 0.211270 0.750000 0.029139
C151  C     C_R   0.711270 0.788730 0.250000 0.027849
C152  C     C_R   0.032858 0.534298 0.431214 -0.031713
C153  C     C_R   0.032890 0.465732 0.568788 -0.031712
C154  C     C_R   0.465703 0.967139 0.431214 -0.031716
C155  C     C_R   0.534267 0.967108 0.568789 -0.031724
C156  C     C_R   0.967136 0.465704 0.431213 -0.031726
C157  C     C_R   0.967106 0.534267 0.568789 -0.031728
C158  C     C_R   0.534297 0.032861 0.431214 -0.031723
C159  C     C_1   0.328557 0.828557 0.750000 -0.024430
C160  C     C_R   0.465733 0.032892 0.568788 -0.031715
C161  C     C_R   0.467110 0.034267 0.931212 -0.031712
C162  C     C_R   0.467141 0.965703 0.068786 -0.031713
C163  C     C_R   0.965733 0.532892 0.931211 -0.031724
C164  C     C_R   0.034297 0.532860 0.068786 -0.031717
C165  C     C_R   0.532894 0.965733 0.931211 -0.031727
C166  C     C_R   0.532864 0.034296 0.068787 -0.031726
C167  C     C_R   0.034267 0.467108 0.931212 -0.031715
C168  C     C_R   0.965702 0.467140 0.068786 -0.031723
C169  C     C_1   0.361669 0.138331 0.250000 -0.115655
C170  C     C_1   0.828557 0.671442 0.250000 -0.024401
C171  C     C_1   0.638329 0.861671 0.750000 -0.108589
C172  C     C_1   0.861671 0.361671 0.250000 -0.108641
C173  C     C_1   0.138331 0.638331 0.750000 -0.115655
C174  C     C_1   0.638331 0.861669 0.250000 -0.115637
C175  C     C_1   0.361671 0.138329 0.750000 -0.108590
C176  C     C_1   0.138329 0.638329 0.250000 -0.108640
C177  C     C_1   0.861669 0.361669 0.750000 -0.115643
C178  C     C_1   0.361669 0.861669 0.750000 -0.115654
C179  C     C_1   0.638329 0.138329 0.250000 -0.108642
C180  C     C_1   0.861671 0.638329 0.750000 -0.108589
C181  C     C_1   0.171441 0.328559 0.750000 -0.022055
C182  C     C_1   0.138331 0.361669 0.250000 -0.115655
C183  C     C_1   0.638331 0.138331 0.750000 -0.115643
C184  C     C_1   0.361671 0.861671 0.250000 -0.108639
C185  C     C_1   0.138329 0.361671 0.750000 -0.108590
C186  C     C_1   0.861669 0.638331 0.250000 -0.115637
C187  C     C_R   0.999999 0.500000 0.378104 -0.116815
C188  C     C_R   0.999999 0.500000 0.621897 -0.116790
C189  C     C_R   0.500000 1.000000 0.378104 -0.116815
C190  C     C_R   0.500000 1.000000 0.621897 -0.116789
C191  C     C_R   0.500001 1.000000 0.878103 -0.116790
C192  C     C_1   0.328559 0.828559 0.250000 -0.022206
C193  C     C_R   0.500001 1.000000 0.121896 -0.116815
C194  C     C_R   0.000000 0.500000 0.878103 -0.116790
C195  C     C_R   1.000000 0.500000 0.121896 -0.116816
C196  C     C_R   0.033011 0.534308 0.395931 -0.075809
C197  C     C_R   0.033042 0.465722 0.604071 -0.075838
C198  C     C_R   0.465693 0.966987 0.395931 -0.075822
C199  C     C_R   0.534277 0.966956 0.604071 -0.075839
C200  C     C_R   0.966985 0.465693 0.395931 -0.075831
C201  C     C_R   0.966955 0.534278 0.604071 -0.075848
C202  C     C_R   0.534307 0.033013 0.395931 -0.075818
C203  C     C_1   0.671443 0.171443 0.750000 -0.024410
C204  C     C_R   0.465723 0.033044 0.604071 -0.075846
C205  C     C_R   0.466957 0.034277 0.895929 -0.075838
C206  C     C_R   0.466988 0.965692 0.104069 -0.075809
C207  C     C_R   0.965722 0.533043 0.895929 -0.075839
C208  C     C_R   0.034308 0.533012 0.104069 -0.075822
C209  C     C_R   0.533045 0.965723 0.895929 -0.075848
C210  C     C_R   0.533015 0.034306 0.104069 -0.075830
C211  C     C_R   0.034278 0.466956 0.895929 -0.075846
C212  C     C_R   0.965692 0.466987 0.104069 -0.075818
C213  C     C_R   0.999997 0.500001 0.448758 0.018046
C214  C     C_1   0.171443 0.671443 0.750000 -0.024430
C215  C     C_R   0.999998 0.500000 0.551244 0.018032
C216  C     C_R   0.500000 0.000000 0.448758 0.018046
C217  C     C_R   0.500000 0.000000 0.551244 0.018032
C218  C     C_R   0.500002 0.000000 0.948756 0.018032
C219  C     C_R   0.500003 0.999999 0.051242 0.018046
C220  C     C_R   1.000000 0.500000 0.948756 0.018032
C221  C     C_R   1.000000 0.500000 0.051242 0.018046
C222  C     C_1   0.999997 0.500000 0.484946 -0.002288
C223  C     C_1   0.999997 0.500000 0.515056 -0.002302
C224  C     C_1   0.500000 0.000000 0.484946 -0.002288
N1    N     N_1   0.093721 0.597425 0.464129 -0.167732
N2    N     N_1   0.406279 0.902576 0.035871 -0.167732
N3    N     N_1   0.902662 0.593813 0.964125 -0.167623
N4    N     N_1   0.097425 0.593723 0.035872 -0.167730
N5    N     N_1   0.593817 0.902662 0.964125 -0.167613
N6    N     N_1   0.593729 0.097422 0.035873 -0.167672
N7    N     N_1   0.097338 0.406187 0.964125 -0.167683
N8    N     N_1   0.902575 0.406277 0.035872 -0.167674
N9    N     N_1   0.096740 0.595737 0.363946 -0.165254
N10   N     N_1   0.096826 0.404354 0.636059 -0.165078
N11   N     N_1   0.404264 0.903258 0.363945 -0.165235
N12   N     N_1   0.093810 0.402661 0.535874 -0.167692
N13   N     N_1   0.595645 0.903173 0.636060 -0.165074
N14   N     N_1   0.903255 0.404267 0.363944 -0.165169
N15   N     N_1   0.903173 0.595646 0.636060 -0.165062
N16   N     N_1   0.595733 0.096744 0.363945 -0.165189
N17   N     N_1   0.404355 0.096827 0.636060 -0.165067
N18   N     N_1   0.403173 0.095645 0.863941 -0.165079
N19   N     N_1   0.403259 0.904264 0.136054 -0.165254
N20   N     N_1   0.904355 0.596827 0.863940 -0.165074
N21   N     N_1   0.095737 0.596740 0.136055 -0.165234
N22   N     N_1   0.596828 0.904355 0.863939 -0.165062
N23   N     N_1   0.402577 0.906276 0.464128 -0.167730
N24   N     N_1   0.596746 0.095732 0.136056 -0.165170
N25   N     N_1   0.095645 0.403173 0.863940 -0.165066
N26   N     N_1   0.904265 0.403258 0.136055 -0.165188
N27   N     N_1   0.249776 0.139164 0.321017 -0.167762
N28   N     N_1   0.699412 0.810060 0.662915 -0.160371
N29   N     N_1   0.812586 0.298059 0.336947 -0.160116
N30   N     N_1   0.138590 0.750799 0.679351 -0.167786
N31   N     N_1   0.747734 0.858346 0.322570 -0.167859
N32   N     N_1   0.300626 0.189979 0.662913 -0.160380
N33   N     N_1   0.186355 0.702992 0.336856 -0.160043
N34   N     N_1   0.597338 0.906186 0.535875 -0.167623
N35   N     N_1   0.859832 0.250779 0.678337 -0.167833
N36   N     N_1   0.249200 0.861410 0.679351 -0.167789
N37   N     N_1   0.701941 0.187415 0.336947 -0.160135
N38   N     N_1   0.810060 0.699413 0.662915 -0.160361
N39   N     N_1   0.139165 0.249776 0.321017 -0.167779
N40   N     N_1   0.749221 0.140168 0.678337 -0.167830
N41   N     N_1   0.297007 0.813646 0.336855 -0.160024
N42   N     N_1   0.189979 0.300627 0.662913 -0.160391
N43   N     N_1   0.858347 0.747733 0.322570 -0.167843
N44   N     N_1   0.800588 0.689940 0.837085 -0.160372
N45   N     N_1   0.906272 0.402577 0.464127 -0.167672
N46   N     N_1   0.250223 0.360836 0.178983 -0.167762
N47   N     N_1   0.361410 0.749201 0.820649 -0.167786
N48   N     N_1   0.687414 0.201942 0.163053 -0.160116
N49   N     N_1   0.199374 0.310021 0.837087 -0.160381
N50   N     N_1   0.752266 0.641653 0.177429 -0.167859
N51   N     N_1   0.640168 0.249221 0.821663 -0.167833
N52   N     N_1   0.313645 0.797007 0.163144 -0.160043
N53   N     N_1   0.798058 0.312586 0.163053 -0.160135
N54   N     N_1   0.250800 0.638590 0.820649 -0.167789
N55   N     N_1   0.360835 0.250224 0.178982 -0.167779
N56   N     N_1   0.906184 0.597339 0.535875 -0.167613
N57   N     N_1   0.689940 0.800587 0.837085 -0.160361
N58   N     N_1   0.202993 0.686354 0.163145 -0.160024
N59   N     N_1   0.750779 0.359832 0.821663 -0.167830
N60   N     N_1   0.641653 0.752267 0.177430 -0.167843
N61   N     N_1   0.310021 0.199373 0.837087 -0.160391
N62   N     N_1   0.597423 0.093725 0.464128 -0.167674
N63   N     N_1   0.402662 0.093814 0.535874 -0.167683
N64   N     N_1   0.406188 0.097338 0.964126 -0.167692
O1    O     O_3   0.500000 1.000000 0.250000 -0.495571
O2    O     O_R   0.457230 1.000000 0.675160 -0.630319
O3    O     O_R   0.000000 0.542770 0.324840 -0.630252
O4    O     O_R   1.000000 0.457230 0.675160 -0.630292
O5    O     O_R   0.957230 0.500000 0.824840 -0.630291
O6    O     O_R   0.042770 0.500000 0.175160 -0.630292
O7    O     O_R   0.500000 0.957230 0.824840 -0.630318
O8    O     O_R   0.500000 0.042770 0.175160 -0.630307
O9    O     O_R   0.042770 0.500000 0.824840 -0.630319
O10   O     O_R   0.957230 0.500000 0.175160 -0.630267
O11   O     O_R   0.500000 0.042770 0.824840 -0.630292
O12   O     O_3   0.500000 1.000000 0.750000 -0.495559
O13   O     O_R   0.500000 0.957230 0.175160 -0.630252
O14   O     O_R   0.602770 0.060140 0.269640 -0.628418
O15   O     O_R   0.397230 0.939860 0.730360 -0.630683
O16   O     O_R   0.939860 0.602770 0.269640 -0.630679
O17   O     O_R   0.060140 0.397230 0.730360 -0.628429
O18   O     O_R   0.397230 0.939860 0.269640 -0.628366
O19   O     O_R   0.602770 0.060140 0.730360 -0.630687
O20   O     O_R   0.060140 0.397230 0.269640 -0.630679
O21   O     O_R   0.939860 0.602770 0.730360 -0.628403
O22   O     O_R   0.602770 0.939860 0.730360 -0.628429
O23   O     O_3   0.000000 0.500000 0.250000 -0.495571
O24   O     O_R   0.397230 0.060140 0.269640 -0.630671
O25   O     O_R   0.939860 0.397230 0.730360 -0.630688
O26   O     O_R   0.060140 0.602770 0.269640 -0.628406
O27   O     O_R   0.397230 0.060140 0.730360 -0.628403
O28   O     O_R   0.602770 0.939860 0.269640 -0.630688
O29   O     O_R   0.060140 0.602770 0.730360 -0.630682
O30   O     O_R   0.939860 0.397230 0.269640 -0.628377
O31   O     O_R   0.102770 0.560140 0.769640 -0.630683
O32   O     O_R   0.897230 0.439860 0.230360 -0.628418
O33   O     O_R   0.439860 0.102770 0.769640 -0.628429
O34   O     O_3   0.000000 0.500000 0.750000 -0.495558
O35   O     O_R   0.560140 0.897230 0.230360 -0.630679
O36   O     O_R   0.897230 0.439860 0.769640 -0.630687
O37   O     O_R   0.102770 0.560140 0.230360 -0.628365
O38   O     O_R   0.560140 0.897230 0.769640 -0.628403
O39   O     O_R   0.439860 0.102770 0.230360 -0.630679
O40   O     O_R   0.102770 0.439860 0.230360 -0.630671
O41   O     O_R   0.897230 0.560140 0.769640 -0.628428
O42   O     O_R   0.439860 0.897230 0.230360 -0.628406
O43   O     O_R   0.560140 0.102770 0.769640 -0.630688
O44   O     O_R   0.897230 0.560140 0.230360 -0.630688
O45   O     O_R   0.457230 0.000000 0.324840 -0.630292
O46   O     O_R   0.102770 0.439860 0.769640 -0.628403
O47   O     O_R   0.560140 0.102770 0.230360 -0.628377
O48   O     O_R   0.439860 0.897230 0.769640 -0.630682
O49   O     O_R   0.542770 1.000000 0.675160 -0.630292
O50   O     O_R   0.000000 0.457230 0.324840 -0.630307
O51   O     O_R   0.000000 0.542770 0.675160 -0.630318
O52   O     O_R   0.542770 0.000000 0.324840 -0.630267
Zn1   Zn    Zn3+2 0.500000 0.061050 0.221990 1.002570
Zn2   Zn    Zn3+2 1.000000 0.438950 0.278010 1.002570
Zn3   Zn    Zn3+2 0.438950 1.000000 0.721990 1.002575
Zn4   Zn    Zn3+2 0.561050 0.000000 0.278010 1.002566
Zn5   Zn    Zn3+2 1.000000 0.438950 0.721990 1.002573
Zn6   Zn    Zn3+2 0.000000 0.561050 0.278010 1.002582
Zn7   Zn    Zn3+2 0.561050 1.000000 0.721990 1.002574
Zn8   Zn    Zn3+2 0.438950 0.000000 0.278010 1.002586
Zn9   Zn    Zn3+2 0.500000 0.938950 0.778010 1.002577
Zn10  Zn    Zn3+2 0.938950 0.500000 0.221990 1.002566
Zn11  Zn    Zn3+2 0.061050 0.500000 0.778010 1.002575
Zn12  Zn    Zn3+2 0.500000 0.938950 0.221990 1.002582
Zn13  Zn    Zn3+2 0.500000 0.061050 0.778010 1.002573
Zn14  Zn    Zn3+2 0.061050 0.500000 0.221990 1.002586
Zn15  Zn    Zn3+2 0.938950 0.500000 0.778010 1.002574
Zn16  Zn    Zn3+2 1.000000 0.561050 0.721990 1.002577

loop_
_geom_bond_atom_site_label_1
_geom_bond_atom_site_label_2
_ccdc_geom_bond_type
C101  C148  S    
C3    C224  T    
O5    Zn15  S    
C30   O27   A    
O40   Zn14  S    
C89   C198  S    
C20   O17   A    
C134  N55   T    
C59   C66   A    
C26   O38   A    
C42   C119  S    
C50   C110  S    
C106  N28   T    
C16   C193  S    
O19   Zn7   S    
C8    O52   A    
C110  N32   T    
C47   C105  S    
C138  N59   T    
C140  N61   T    
O12   Zn3   S    
C84   N6    T    
C27   C169  S    
C98   N20   T    
C49   C111  S    
C75   C157  S    
C54   C143  A    
C47   C146  A    
C15   O11   A    
C51   C109  S    
C161  C205  A    
C129  N50   T    
C67   C129  S    
C41   C49   A    
C190  C199  A    
O14   Zn4   S    
O21   Zn16  S    
C40   C135  A    
C193  C206  A    
C157  C215  A    
C30   O33   A    
C72   C154  S    
O11   Zn13  S    
C23   C182  S    
C62   C126  S    
C55   C144  A    
C82   N4    T    
C39   C124  A    
C85   C167  S    
C88   C197  S    
C216  C224  S    
O30   Zn2   S    
C213  C222  S    
O46   Zn11  S    
C91   N13   T    
C74   C156  S    
C61   C127  S    
C28   O25   A    
C36   C117  S    
O26   Zn6   S    
C63   C125  S    
O12   Zn7   S    
C95   N17   T    
O43   Zn13  S    
C117  N38   T    
C154  C216  A    
C11   O4    A    
C137  N58   T    
C148  C179  T    
C193  C210  A    
C1    C79   S    
C17   O47   A    
C48   C114  S    
C12   O5    A    
O41   Zn15  S    
C15   C191  S    
C68   C174  T    
O10   Zn10  S    
O17   Zn5   S    
C4    C5    T    
C6    C7    T    
C32   C173  S    
C87   N9    T    
C187  C200  A    
C37   C44   A    
O33   Zn13  S    
C38   C43   A    
C68   C151  S    
C166  C210  A    
C190  C204  A    
C5    C219  S    
C82   C164  S    
C56   C140  S    
C53   C146  A    
C43   C108  S    
C41   C120  S    
C128  N49   T    
O3    Zn6   S    
C58   C67   A    
O24   Zn8   S    
C17   O14   A    
C55   C132  S    
C19   O16   A    
C54   C62   A    
C33   C172  S    
C166  C219  A    
C59   C147  A    
C31   O28   A    
C34   C118  S    
C39   C51   A    
O45   Zn8   S    
C12   O9    A    
C2    C144  S    
C85   N7    T    
C13   C145  S    
C168  C221  A    
C25   C180  S    
C37   C116  S    
C194  C207  A    
C92   N14   T    
C39   C122  S    
C45   C145  A    
C19   C186  S    
C7    C221  S    
C158  C216  A    
C100  C209  S    
O12   Zn9   S    
C57   C175  T    
C123  N44   T    
C195  C208  A    
C69   C128  S    
C97   C206  S    
C114  N35   T    
C3    C217  S    
C112  C180  T    
C17   C179  S    
O39   Zn1   S    
C76   N62   T    
C141  C192  S    
C77   N63   T    
C33   O32   A    
C78   N64   T    
O34   Zn5   S    
C152  C196  A    
C11   C188  S    
C103  N25   T    
C86   C168  S    
C18   O48   A    
C164  C208  A    
C103  C211  S    
C59   C138  S    
C189  C198  A    
C9    O49   A    
C61   C101  A    
C34   C79   A    
C65   C141  A    
O12   Zn13  S    
C119  N40   T    
C18   O15   A    
C42   C48   A    
C113  C159  S    
C80   C162  S    
C191  C209  A    
C6    C220  S    
O18   Zn8   S    
C25   O21   A    
C32   O29   A    
C4    C218  S    
O51   Zn16  S    
O35   Zn12  S    
C52   C136  S    
C157  C201  A    
C135  C181  S    
C159  C178  T    
C56   C150  A    
O47   Zn1   S    
C155  C199  A    
C44   C107  S    
C36   C90   A    
C108  N30   T    
C189  C202  A    
C75   N56   T    
C14   O10   A    
C86   N8    T    
C89   N11   T    
O23   Zn2   S    
O36   Zn15  S    
O32   Zn10  S    
C195  C212  A    
C37   C101  A    
C38   C115  S    
C53   C63   A    
C96   C205  S    
C22   O43   A    
C93   N15   T    
C55   C61   A    
O23   Zn14  S    
C21   O18   A    
C100  N22   T    
C13   C171  T    
C46   C149  S    
C18   C178  S    
C78   C161  S    
C69   C135  A    
C56   C69   A    
C156  C213  A    
C104  C212  S    
C80   N2    T    
O48   Zn9   S    
C92   C200  S    
O13   Zn12  S    
C21   O42   A    
C10   O50   A    
C2    C172  T    
O34   Zn11  S    
C31   C174  S    
O4    Zn5   S    
C35   C177  T    
C21   C184  S    
C14   C195  S    
C187  C196  A    
C43   C143  A    
C64   C90   A    
O6    Zn14  S    
C23   O20   A    
C83   C165  S    
C139  N60   T    
C16   O8    A    
O1    Zn4   S    
O23   Zn6   S    
C9    O2    A    
C48   C147  A    
C27   O39   A    
C107  N29   T    
C191  C205  A    
O34   Zn16  S    
C116  N37   T    
O44   Zn10  S    
C164  C221  A    
C32   O31   A    
C16   O13   A    
C184  C192  T    
C94   C202  S    
C99   N21   T    
C28   C177  S    
C20   O46   A    
O37   Zn14  S    
C51   C151  A    
O16   Zn6   S    
C161  C218  A    
C162  C206  A    
O42   Zn12  S    
C126  N47   T    
O38   Zn9   S    
C104  N26   T    
C62   C113  A    
C52   C64   A    
O1    Zn8   S    
C38   C113  A    
C73   N34   T    
C83   N5    T    
C54   C133  S    
C133  N54   T    
C22   O19   A    
O15   Zn3   S    
C132  N53   T    
C8    C189  S    
C76   C158  S    
C170  C186  T    
C31   O35   A    
C136  N57   T    
C94   N16   T    
C28   O36   A    
C26   C171  S    
C98   C207  S    
C29   C176  S    
C9    C190  S    
C30   C175  S    
C33   O30   A    
C58   C151  A    
C53   C134  S    
O52   Zn4   S    
C121  N42   T    
C160  C204  A    
C1    C182  T    
C10   O3    A    
C66   C142  A    
C64   C123  S    
C88   N10   T    
C152  C213  A    
C125  N46   T    
C99   C208  S    
O20   Zn2   S    
C173  C214  T    
C24   C146  S    
C165  C209  A    
C188  C197  A    
C40   C50   A    
C26   O22   A    
C163  C207  A    
C153  C215  A    
C155  C217  A    
C29   O37   A    
O2    Zn3   S    
O27   Zn3   S    
C77   C160  S    
C131  N52   T    
C154  C198  A    
C34   C47   A    
C111  N33   T    
C58   C139  S    
O34   Zn15  S    
C52   C145  A    
C14   O6    A    
C168  C212  A    
C70   N1    T    
C90   C112  S    
C67   C124  A    
O28   Zn4   S    
C63   C79   A    
C40   C121  S    
C15   O7    A    
O25   Zn5   S    
C72   N23   T    
C87   C196  S    
C115  N36   T    
C8    O45   A    
C153  C197  A    
C71   C153  S    
O31   Zn11  S    
C188  C201  A    
O1    Zn1   S    
O7    Zn9   S    
C20   C185  S    
C23   O40   A    
C42   C142  A    
C60   C137  S    
C91   C199  S    
C163  C220  A    
C194  C211  A    
C81   C163  S    
C73   C155  S    
C156  C200  A    
O23   Zn10  S    
C65   C131  S    
C74   N45   T    
C122  N43   T    
C25   O41   A    
C118  N39   T    
C102  N24   T    
C29   O26   A    
C105  N27   T    
C181  C185  T    
C102  C210  S    
C95   C204  S    
O50   Zn2   S    
C109  N31   T    
O8    Zn1   S    
C41   C141  A    
C22   C183  S    
C97   N19   T    
C50   C150  A    
C160  C217  A    
C44   C144  A    
C57   C150  S    
C10   C187  S    
C36   C45   A    
C35   C147  S    
C71   N12   T    
C24   C169  T    
C96   N18   T    
C165  C218  A    
C143  C214  S    
C19   O44   A    
C127  N48   T    
C158  C202  A    
C46   C176  T    
O29   Zn16  S    
O1    Zn12  S    
C167  C220  A    
C45   C106  S    
C70   C152  S    
C162  C219  A    
C120  N41   T    
C81   N3    T    
C12   C194  S    
C215  C223  S    
C60   C65   A    
C93   C201  S    
C49   C149  A    
C183  C203  T    
C142  C203  S    
C167  C211  A    
O22   Zn7   S    
O9    Zn11  S    
C60   C149  A    
C222  C223  T    
C84   C166  S    
O49   Zn7   S    
C124  C170  S    
C27   O24   A    
C11   O51   A    
C130  N51   T    
C66   C130  S    
