data_mof_unit_34072.cif
_audit_creation_date              2012-12-10T16:51:33-0500
_audit_creation_method            fapswitch 2.2
_symmetry_space_group_name_H-M    P1
_symmetry_Int_Tables_number       1
_space_group_crystal_system       triclinic
_cell_length_a                    7.818105
_cell_length_b                    8.53318
_cell_length_c                    12.097748
_cell_angle_alpha                 92.218811
_cell_angle_beta                  101.35167
_cell_angle_gamma                 94.034418
_cell_volume                      788.190468936

loop_
_atom_site_label
_atom_site_type_symbol
_atom_type_description
_atom_site_fract_x
_atom_site_fract_y
_atom_site_fract_z
_atom_type_partial_charge
C1    C     C_R   0.039921 0.793712 0.487958 0.951459
C2    C     C_R   0.158535 0.498810 0.832032 -0.112307
C3    C     C_2   0.043455 0.950982 0.452939 -0.017824
C4    C     C_R   0.106072 0.502942 0.710310 0.857326
C5    C     C_2   0.928352 0.040469 0.490108 -0.441635
C6    C     C_R   0.952139 0.205139 0.494153 0.941490
C7    C     C_R   0.891867 0.486909 0.289560 0.855535
C8    C     C_R   0.812019 0.277683 0.005304 -0.190061
C9    C     C_R   0.828325 0.450294 0.170286 -0.068484
C10   C     C_R   0.071883 0.587309 0.900743 -0.178357
C11   C     C_R   0.141250 0.611361 0.015134 -0.135153
C12   C     C_R   0.393462 0.470474 0.990082 0.081971
C13   C     C_R   0.302335 0.556399 0.059802 -0.189965
C14   C     C_3   0.617526 0.131807 0.788731 -0.405050
C15   C     C_3   0.500334 0.067849 0.677071 -0.859005
C16   C     C_3   0.158626 0.999960 0.369166 -0.347574
C17   C     C_3   0.130694 0.885179 0.265746 -0.931407
C18   C     C_R   0.308877 0.424577 0.879537 0.022274
C19   C     C_R   0.566342 0.430593 0.026223 0.057114
C20   C     C_R   0.641047 0.320156 0.961858 0.085230
C21   C     C_R   0.542548 0.254341 0.857473 0.128578
C22   C     C_R   0.377076 0.308381 0.818155 -0.205440
C23   C     C_R   0.668677 0.503382 0.124053 -0.252228
C24   C     C_R   0.902769 0.339051 0.110623 -0.172017
H1    H     H_    0.027495 0.295850 0.146863 0.151356
H2    H     H_    0.472225 0.164013 0.618407 0.271845
H3    H     H_    0.568745 0.979304 0.636240 0.240270
H4    H     H_    0.741275 0.184489 0.768689 0.212000
H5    H     H_    0.648726 0.029795 0.841445 0.200095
H6    H     H_    0.953452 0.641594 0.865510 0.153710
H7    H     H_    0.350497 0.579122 0.149339 0.137969
H8    H     H_    0.186294 0.771927 0.287979 0.283719
H9    H     H_    0.988949 0.863459 0.228285 0.252426
H10   H     H_    0.198251 0.936011 0.201169 0.246581
H11   H     H_    0.128413 0.115239 0.334172 0.230822
H12   H     H_    0.832036 0.994464 0.536815 0.158684
H13   H     H_    0.298494 0.007755 0.412266 0.211557
H14   H     H_    0.469710 0.374548 0.416525 0.184764
H15   H     H_    0.530247 0.625311 0.583559 0.192865
H16   H     H_    0.874644 0.193140 0.961132 0.130941
H17   H     H_    0.623577 0.598831 0.169149 0.147043
H18   H     H_    0.072752 0.677185 0.068456 0.151489
H19   H     H_    0.298028 0.258354 0.739860 0.180919
H20   H     H_    0.376269 0.008916 0.692063 0.249262
N1    N     N_2   0.434800 0.456690 0.470850 -0.180844
N2    N     N_2   0.565200 0.543310 0.529150 -0.167249
O1    O     O_R   0.893060 0.738880 0.507150 -0.627661
O2    O     O_R   0.172250 0.711130 0.488470 -0.615082
O3    O     O_R   0.944700 0.520730 0.667600 -0.610345
O4    O     O_R   0.223890 0.492980 0.648920 -0.611014
O5    O     O_R   0.827750 0.288870 0.511530 -0.613831
O6    O     O_R   0.106940 0.261120 0.492850 -0.629080
O7    O     O_R   0.776110 0.507020 0.351080 -0.614047
O8    O     O_R   0.055300 0.479270 0.332400 -0.632853
Zn1   Zn    Zn3+2 0.813580 0.518530 0.512470 0.930052
Zn2   Zn    Zn3+2 0.186420 0.481470 0.487530 0.909164

loop_
_geom_bond_atom_site_label_1
_geom_bond_atom_site_label_2
_ccdc_geom_bond_type
N2    Zn1   S    
C2    C4    S    
C1    O2    A    
C6    O5    A    
C2    C18   A    
O4    Zn2   S    
C10   H6    S    
C19   C23   A    
C22   H19   S    
C23   H17   S    
O2    Zn2   S    
C4    O3    A    
C6    O6    A    
C20   C21   A    
C19   C20   A    
C9    C24   A    
O3    Zn1   S    
N1    N2    D    
C24   H1    S    
C11   C13   A    
C8    C20   A    
C17   H9    S    
H14   N1    S    
H15   N2    S    
C14   C21   S    
C21   C22   A    
N1    Zn2   S    
C8    C24   A    
C15   H20   S    
O5    Zn1   S    
O7    Zn1   S    
C16   H11   S    
C5    C6    S    
O8    Zn2   S    
C10   C11   A    
C7    O7    A    
C14   H5    S    
C2    C10   A    
C5    H12   S    
C3    C5    D    
C12   C13   A    
C12   C19   A    
C11   H18   S    
O1    Zn1   S    
C17   H10   S    
C12   C18   A    
C7    C9    S    
C17   H8    S    
C14   C15   S    
C1    O1    A    
C15   H2    S    
C8    H16   S    
C7    O8    A    
C14   H4    S    
C18   C22   A    
C15   H3    S    
C13   H7    S    
C9    C23   A    
C3    C16   S    
O6    Zn2   S    
C16   H13   S    
C4    O4    A    
C16   C17   S    
C1    C3    S    
