data_mof_unit_18870.cif
_audit_creation_date              2013-03-05T15:53:16-0500
_audit_creation_method            fapswitch 2.2
_symmetry_space_group_name_H-M    P1
_symmetry_Int_Tables_number       1
_space_group_crystal_system       triclinic
_cell_length_a                    11.538721
_cell_length_b                    10.664735
_cell_length_c                    9.946077
_cell_angle_alpha                 87.811736
_cell_angle_beta                  89.67665
_cell_angle_gamma                 92.041511
_cell_volume                      1222.23949468

loop_
_atom_site_label
_atom_site_type_symbol
_atom_site_description
_atom_site_fract_x
_atom_site_fract_y
_atom_site_fract_z
_atom_type_partial_charge
O1    O     O_R   0.500000 0.316780 0.614690 -0.598953
O2    O     O_R   0.499990 0.316750 0.385360 -0.580342
C1    C     C_R   0.513319 0.261028 0.503303 0.937159
O3    O     O_R   0.334450 0.500030 0.614670 -0.650974
O4    O     O_R   0.334440 0.500000 0.385330 -0.636626
C2    C     C_R   0.282113 0.499438 0.500329 0.873623
Zn1   Zn    Zn3+2 0.500010 0.500020 0.653130 0.979067
Zn2   Zn    Zn3+2 0.499990 0.499980 0.346870 1.045733
O5    O     O_R   0.500010 0.683250 0.614640 -0.626314
O6    O     O_R   0.500000 0.683220 0.385310 -0.594485
O7    O     O_R   0.665560 0.500000 0.614670 -0.603013
O8    O     O_R   0.665550 0.499970 0.385330 -0.551518
C3    C     C_R   0.492208 0.739858 0.497996 0.891549
C4    C     C_R   0.717897 0.500363 0.499675 0.914555
C5    C     C_1   0.161585 0.499052 0.500791 -0.131977
C6    C     C_1   0.059355 0.498974 0.500362 0.044775
C7    C     C_1   0.940635 0.499286 0.499529 0.054411
C8    C     C_1   0.838418 0.499779 0.499182 -0.097304
C9    C     C_R   0.520041 0.094956 0.763306 0.382651
C10   C     C_R   0.461942 0.028942 0.872587 0.250572
C11   C     C_R   0.390170 0.924278 0.845206 -0.243660
H1    H     H_    0.340481 0.874740 0.924529 0.215015
C12   C     C_R   0.388754 0.876235 0.717275 -0.184283
H2    H     H_    0.337976 0.790715 0.701767 0.182119
C13   C     C_R   0.455873 0.935339 0.612695 0.028716
C14   C     C_R   0.500957 0.056226 0.630019 -0.087099
C15   C     C_R   0.534502 0.128017 0.512741 -0.118817
C16   C     C_R   0.567559 0.068640 0.396202 0.470380
H3    H     H_    0.576641 0.892039 0.303771 0.230810
C17   C     C_R   0.546144 0.940371 0.389813 -0.225768
C18   C     C_R   0.488410 0.874360 0.495609 -0.136060
C19   C     C_R   0.340951 0.341552 0.146075 -0.129221
H4    H     H_    0.339418 0.334259 0.252739 0.218936
C20   C     C_R   0.261447 0.263463 0.079713 0.356129
C21   C     C_R   0.263949 0.263817 0.939558 -0.272254
H5    H     H_    0.205424 0.202578 0.885402 0.198280
C22   C     C_R   0.343967 0.340255 0.867038 -0.167624
H6    H     H_    0.343772 0.330919 0.760792 0.212107
C23   C     C_R   0.422220 0.422030 0.931245 0.200095
C24   C     C_R   0.421418 0.422550 0.075453 0.082242
N1    N     N_R   0.498930 0.498800 0.142780 -0.165968
C25   C     C_R   0.574027 0.576042 0.066678 0.362904
H7    H     H_    0.633075 0.637537 0.866549 0.182151
C26   C     C_R   0.573165 0.575835 0.923972 -0.135776
N2    N     N_R   0.498900 0.498720 0.857170 -0.130975
O9    O     O_3   0.625523 0.136602 0.293954 -0.677785
H8    H     H_    0.653093 0.077944 0.226710 0.381945
O10   O     O_3   0.607215 0.183659 0.784522 -0.704280
H9    H     H_    0.656125 0.150584 0.858381 0.370683
N3    N     N_R   0.473119 0.067210 0.009563 0.205339
O11   O     O_R   0.525132 0.173009 0.037433 -0.383975
O12   O     O_R   0.424547 0.999688 0.107554 -0.379328
N4    N     N_R   0.654583 0.659281 0.129531 0.215189
O13   O     O_R   0.646746 0.779262 0.104811 -0.415959
O14   O     O_R   0.754357 0.617127 0.166228 -0.353419
N5    N     N_R   0.180581 0.181500 0.154858 0.233591
O15   O     O_R   0.177517 0.180979 0.285735 -0.389890
O16   O     O_R   0.109267 0.106320 0.093047 -0.347078

loop_
_geom_bond_atom_site_label_1
_geom_bond_atom_site_label_2
_geom_bond_distance
_ccdc_geom_bond_type
C13   C18   1.410794 A    
O4    Zn2   1.946052 S    
N3    O12   1.301549 A    
H7    C26   1.082359 S    
C20   N5    1.441339 S    
C22   H6    1.065196 S    
N1    C25   1.377130 A    
C4    C8    1.390870 S    
C9    C10   1.423427 A    
C23   N2    1.374646 A    
C17   C18   1.395962 A    
Zn2   O8    1.950390 S    
C19   H4    1.060771 S    
C16   C17   1.385327 A    
O2    C1    1.306980 A    
C2    C5    1.390582 S    
Zn2   N1    2.030517 S    
C22   C23   1.405923 A    
O1    Zn1   2.005527 S    
C11   H1    1.082481 S    
N5    O15   1.301788 A    
Zn1   O7    1.946049 S    
C16   O9    1.381443 S    
C14   C15   1.415001 A    
H3    C17   1.079396 S    
C25   C26   1.419542 A    
O3    Zn1   1.950392 S    
Zn1   N2    2.028880 S    
C1    C15   1.447609 S    
C24   N1    1.380630 A    
C21   C22   1.389689 A    
O8    C4    1.290813 A    
C7    C8    1.179682 T    
N4    O14   1.299926 A    
C25   N4    1.425830 S    
O4    C2    1.290071 A    
C20   C21   1.393990 A    
O7    C4    1.290188 A    
C12   H2    1.082877 S    
C5    C6    1.179600 T    
C23   C24   1.434503 A    
C19   C24   1.410975 A    
C10   C11   1.402090 A    
O3    C2    1.290768 A    
C12   C13   1.408937 A    
C15   C16   1.399393 A    
Zn1   O5    1.976849 S    
C9    C14   1.419566 A    
O5    C3    1.292317 A    
O9    H8    0.991764 S    
O10   H9    0.990785 S    
C10   N3    1.442201 S    
N3    O11   1.299102 A    
C13   C14   1.390183 A    
C9    O10   1.378789 S    
C11   C12   1.389692 A    
C3    C18   1.435953 S    
Zn2   O6    2.005526 S    
O2    Zn2   1.976849 S    
C26   N2    1.360178 A    
C21   H5    1.082703 S    
N4    O13   1.300154 A    
N5    O16   1.301638 A    
C6    C7    1.370072 S    
O1    C1    1.288176 A    
O6    C3    1.297505 A    
C19   C20   1.401834 A    
