data_mof_unit_44242.cif
_audit_creation_date              2012-12-10T18:54:30-0500
_audit_creation_method            fapswitch 2.2
_symmetry_space_group_name_H-M    P1
_symmetry_Int_Tables_number       1
_space_group_crystal_system       triclinic
_cell_length_a                    19.399061
_cell_length_b                    18.123632
_cell_length_c                    9.061607
_cell_angle_alpha                 89.933151
_cell_angle_beta                  89.920256
_cell_angle_gamma                 89.349693
_cell_volume                      3185.68246151

loop_
_atom_site_label
_atom_site_type_symbol
_atom_type_description
_atom_site_fract_x
_atom_site_fract_y
_atom_site_fract_z
_atom_type_partial_charge
C1    C     C_R   0.367481 0.500388 0.497827 0.802746
C2    C     C_R   0.632518 0.499649 0.500676 0.799742
C3    C     C_R   0.462647 0.720836 0.396465 -0.080107
C4    C     C_R   0.544828 0.278522 0.587729 -0.063930
C5    C     C_R   0.537219 0.720449 0.602561 -0.074022
C6    C     C_R   0.454102 0.280154 0.414039 -0.063421
C7    C     C_R   0.461721 0.799479 0.391124 0.317414
C8    C     C_R   0.546637 0.200104 0.589067 0.318648
C9    C     C_R   0.538793 0.798549 0.604212 0.304719
C10   C     C_R   0.452749 0.201871 0.409562 0.303503
C11   C     C_R   0.499416 0.838153 0.499192 -0.068511
C12   C     C_R   0.498988 0.161484 0.500445 -0.071660
C13   C     C_R   0.560011 0.960091 0.473825 -0.155591
C14   C     C_R   0.437799 0.038890 0.527514 -0.137236
C15   C     C_R   0.437896 0.961245 0.526384 -0.144930
C16   C     C_R   0.559690 0.037634 0.472708 -0.141331
C17   C     C_R   0.498735 0.078294 0.500372 0.205956
C18   C     C_R   0.499083 0.920951 0.500104 0.226105
C19   C     C_R   0.499931 0.500037 0.220385 0.854861
C20   C     C_R   0.499968 0.499989 0.779613 0.856224
C21   C     C_1   0.499898 0.500091 0.065508 -0.200444
C22   C     C_1   0.499915 0.500023 0.934489 -0.201032
C23   C     C_R   0.744964 0.437734 0.448260 -0.245332
C24   C     C_R   0.254829 0.567093 0.507727 -0.240516
C25   C     C_R   0.257094 0.436577 0.451983 -0.229108
C26   C     C_R   0.743592 0.560996 0.551150 -0.235567
C27   C     C_R   0.817086 0.438045 0.442974 0.011101
C28   C     C_R   0.183059 0.568676 0.494283 0.007013
C29   C     C_R   0.185491 0.436832 0.436783 0.007462
C30   C     C_R   0.815478 0.562498 0.547515 0.007802
C31   C     C_R   0.852774 0.501205 0.491755 -0.005640
C32   C     C_R   0.147808 0.503035 0.459735 -0.009188
C33   C     C_R   0.708097 0.499187 0.500684 -0.062354
C34   C     C_R   0.292021 0.501261 0.487521 -0.066981
C35   C     C_R   0.967758 0.502730 0.612314 -0.172307
C36   C     C_R   0.032951 0.504078 0.336470 -0.175711
C37   C     C_R   0.039399 0.501906 0.603932 -0.152031
C38   C     C_R   0.961215 0.504464 0.344781 -0.151741
C39   C     C_R   0.072155 0.502118 0.466085 0.118249
C40   C     C_R   0.928459 0.503529 0.482770 0.106436
Cu1   Cu    Cu3+1 0.500000 0.573360 0.500000 0.927776
Cu2   Cu    Cu3+1 0.500000 0.426640 0.500000 0.931661
H1    H     H_    0.717567 0.389510 0.410357 0.157815
H2    H     H_    0.281623 0.617614 0.533736 0.158667
H3    H     H_    0.285641 0.385592 0.434177 0.150621
H4    H     H_    0.715301 0.608587 0.592773 0.147632
H5    H     H_    0.942861 0.501713 0.719357 0.125895
H6    H     H_    0.057850 0.506002 0.229590 0.114063
H7    H     H_    0.069448 0.501081 0.704621 0.124160
H8    H     H_    0.931146 0.505465 0.244143 0.125354
H9    H     H_    0.434630 0.687923 0.318483 0.148563
H10   H     H_    0.577866 0.310430 0.657930 0.142869
H11   H     H_    0.564958 0.688558 0.684241 0.145812
H12   H     H_    0.418203 0.312921 0.350117 0.144986
H13   H     H_    0.607772 0.930495 0.452153 0.126796
H14   H     H_    0.390076 0.068236 0.550655 0.156291
H15   H     H_    0.390252 0.932481 0.547541 0.138534
H16   H     H_    0.607097 0.065952 0.448423 0.133186
N1    N     N_R   0.500000 0.683620 0.500000 -0.201912
N2    N     N_R   0.500000 0.316380 0.500000 -0.205544
O1    O     O_R   0.400190 0.561980 0.499980 -0.583122
O2    O     O_R   0.599810 0.438020 0.500020 -0.587584
O3    O     O_R   0.599810 0.561980 0.500020 -0.580999
O4    O     O_R   0.400190 0.438020 0.499980 -0.586311
O5    O     O_R   0.500000 0.561940 0.288400 -0.580918
O6    O     O_R   0.500000 0.438060 0.711600 -0.574691
O7    O     O_R   0.500000 0.561940 0.711600 -0.584449
O8    O     O_R   0.500000 0.438060 0.288400 -0.579302
C41   C     C_R   0.853834 0.371605 0.386803 0.110822
C42   C     C_R   0.902630 0.334448 0.475080 -0.130450
C43   C     C_R   0.936575 0.271459 0.421979 -0.117676
C44   C     C_R   0.922151 0.245075 0.280626 -0.119251
C45   C     C_R   0.873627 0.281583 0.192252 -0.147277
C46   C     C_R   0.839339 0.344467 0.245150 -0.166173
H17   H     H_    0.913519 0.353473 0.585736 0.124642
H18   H     H_    0.973507 0.242683 0.491146 0.133316
H19   H     H_    0.948322 0.196148 0.239802 0.113769
H20   H     H_    0.862438 0.261039 0.082866 0.122996
H21   H     H_    0.801878 0.372287 0.175476 0.123041
C47   C     C_R   0.146313 0.639842 0.516232 0.117042
C48   C     C_R   0.151227 0.677191 0.651478 -0.160810
C49   C     C_R   0.118377 0.745575 0.670583 -0.128392
C50   C     C_R   0.081085 0.777370 0.554539 -0.103843
C51   C     C_R   0.076074 0.740555 0.419593 -0.134724
C52   C     C_R   0.108479 0.671982 0.400324 -0.124766
H22   H     H_    0.180375 0.653289 0.741876 0.120674
H23   H     H_    0.122104 0.774087 0.775099 0.117420
H24   H     H_    0.055960 0.830483 0.569241 0.106493
H25   H     H_    0.047257 0.765279 0.329717 0.111179
H26   H     H_    0.105018 0.644532 0.294566 0.114057
C53   C     C_R   0.152203 0.366526 0.398446 0.122342
C54   C     C_R   0.126945 0.355055 0.255326 -0.136905
C55   C     C_R   0.101516 0.286098 0.215033 -0.120190
C56   C     C_R   0.101964 0.228053 0.316695 -0.121263
C57   C     C_R   0.126974 0.239143 0.459423 -0.155086
C58   C     C_R   0.152186 0.308105 0.500287 -0.155587
H27   H     H_    0.128696 0.398758 0.173941 0.109452
H28   H     H_    0.082327 0.277369 0.104404 0.119207
H29   H     H_    0.082775 0.174530 0.285020 0.110991
H30   H     H_    0.127259 0.194149 0.538056 0.123008
H31   H     H_    0.172590 0.315755 0.610356 0.124881
C59   C     C_R   0.850065 0.629941 0.598354 0.114933
C60   C     C_R   0.877107 0.679831 0.495588 -0.126560
C61   C     C_R   0.907114 0.745228 0.543932 -0.122646
C62   C     C_R   0.911246 0.760535 0.694827 -0.103590
C63   C     C_R   0.884846 0.710702 0.797644 -0.136667
C64   C     C_R   0.853920 0.645720 0.749654 -0.173162
H32   H     H_    0.874084 0.668505 0.378437 0.115383
H33   H     H_    0.927024 0.784149 0.464383 0.111979
H34   H     H_    0.934765 0.811073 0.732022 0.108385
H35   H     H_    0.887878 0.722675 0.914436 0.121770
H36   H     H_    0.833017 0.607739 0.830047 0.122573
O9    O     O_3   0.427197 0.842230 0.284795 -0.607764
C65   C     C_3   0.394465 0.802703 0.170563 0.064950
H37   H     H_    0.358473 0.841826 0.114843 0.167835
H38   H     H_    0.360725 0.758394 0.213412 0.117794
C66   C     C_3   0.446587 0.775723 0.053907 -0.367825
H39   H     H_    0.470969 0.824163 0.000551 0.246426
H40   H     H_    0.488220 0.742067 0.105368 0.211216
C67   C     C_3   0.411493 0.729333 0.936091 -0.887664
H41   H     H_    0.387103 0.680325 0.987087 0.249962
H42   H     H_    0.450368 0.709896 0.854697 0.268881
H43   H     H_    0.371638 0.762638 0.877486 0.249233
O10   O     O_3   0.588708 0.158798 0.683871 -0.607192
C68   C     C_3   0.655023 0.188772 0.706906 0.068521
H44   H     H_    0.682195 0.151492 0.785564 0.169138
H45   H     H_    0.652817 0.242876 0.763782 0.121601
C69   C     C_3   0.698255 0.191181 0.564640 -0.393477
H46   H     H_    0.703817 0.134544 0.519291 0.215498
H47   H     H_    0.672780 0.226597 0.480280 0.211087
C70   C     C_3   0.769832 0.221494 0.594140 -0.912195
H48   H     H_    0.766089 0.279533 0.632951 0.258170
H49   H     H_    0.800068 0.219826 0.490271 0.276018
H50   H     H_    0.797105 0.187477 0.678266 0.246701
O11   O     O_3   0.571820 0.838030 0.714808 -0.605385
C71   C     C_3   0.637992 0.809106 0.749626 0.058425
H51   H     H_    0.674507 0.855891 0.750256 0.162691
H52   H     H_    0.659009 0.769280 0.666702 0.118833
C72   C     C_3   0.637037 0.775142 0.904537 -0.343912
H53   H     H_    0.625894 0.819129 0.986869 0.224387
H54   H     H_    0.595644 0.733546 0.913006 0.214161
C73   C     C_3   0.705907 0.738171 0.941514 -0.931713
H55   H     H_    0.716430 0.692030 0.863832 0.256726
H56   H     H_    0.704123 0.715632 0.055434 0.255952
H57   H     H_    0.748297 0.778728 0.934516 0.256550
O12   O     O_3   0.404608 0.162624 0.327504 -0.614720
C74   C     C_3   0.387512 0.195728 0.190474 0.064391
H58   H     H_    0.386978 0.151268 0.106193 0.170977
H59   H     H_    0.426274 0.235982 0.150039 0.126449
C75   C     C_3   0.314893 0.229884 0.198095 -0.339053
H60   H     H_    0.276671 0.185385 0.214725 0.227778
H61   H     H_    0.310567 0.268102 0.293322 0.211768
C76   C     C_3   0.297280 0.271995 0.056987 -0.924359
H62   H     H_    0.333552 0.318332 0.040963 0.257554
H63   H     H_    0.244126 0.294968 0.064967 0.260793
H64   H     H_    0.300184 0.234578 0.960114 0.254313

loop_
_geom_bond_atom_site_label_1
_geom_bond_atom_site_label_2
_ccdc_geom_bond_type
C15   C18   A    
C14   H14   S    
C62   H34   S    
C69   C70   S    
C11   C18   S    
C55   C56   A    
Cu2   O4    S    
C45   C46   A    
C20   O7    A    
C57   C58   A    
C14   C17   A    
Cu1   O1    S    
C4    C8    A    
C70   H50   S    
C35   H5    S    
C69   H46   S    
C65   H37   S    
O11   C71   S    
Cu1   O7    S    
C67   H41   S    
C7    C11   A    
C47   C52   A    
C13   C18   A    
C4    H10   S    
C5    H11   S    
C74   H59   S    
O12   C74   S    
C29   C32   A    
C3    C7    A    
C66   H40   S    
C43   H18   S    
C47   C48   A    
C72   C73   S    
C63   C64   A    
C49   H23   S    
C23   H1    S    
C31   C40   S    
Cu1   Cu2   S    
C32   C39   S    
C53   C58   A    
C74   H58   S    
C16   C17   A    
C23   C33   A    
C75   C76   S    
C12   C17   S    
C54   H27   S    
C68   C69   S    
C45   H20   S    
C19   O5    A    
C60   H32   S    
C23   C27   A    
C59   C64   A    
C76   H63   S    
Cu2   O2    S    
C48   H22   S    
C27   C41   S    
C67   H43   S    
C25   C34   A    
C50   H24   S    
C21   C22   T    
Cu2   O8    S    
C15   H15   S    
C73   H57   S    
C30   C59   S    
C41   C42   A    
C6    H12   S    
C71   C72   S    
C61   C62   A    
C67   H42   S    
C1    C34   S    
C48   C49   A    
C63   H35   S    
C25   C29   A    
C72   H53   S    
C73   H55   S    
C5    N1    A    
C27   C31   A    
C6    N2    A    
C28   C32   A    
C74   C75   S    
C51   C52   A    
Cu1   N1    S    
C71   H52   S    
C66   C67   S    
Cu2   N2    S    
C53   C54   A    
C3    H9    S    
C57   H30   S    
C8    O10   S    
Cu1   O5    S    
C24   C34   A    
C69   H47   S    
C5    C9    A    
C44   H19   S    
C37   H7    S    
C26   C33   A    
C50   C51   A    
C30   C31   A    
C8    C12   A    
C4    N2    A    
C19   O8    A    
C64   H36   S    
C16   H16   S    
C76   H64   S    
C9    C11   A    
C42   C43   A    
C10   C12   A    
C10   O12   S    
C9    O11   S    
C2    C33   S    
C20   C22   S    
C26   C30   A    
C56   C57   A    
C46   H21   S    
C68   H44   S    
C24   H2    S    
C73   H56   S    
C51   H25   S    
Cu1   O3    S    
C70   H48   S    
C1    O4    A    
C25   H3    S    
C29   C53   S    
C2    O3    A    
C35   C37   A    
Cu2   O6    S    
O9    C65   S    
C20   O6    A    
C19   C21   S    
C14   C15   A    
C36   C39   A    
C24   C28   A    
C44   C45   A    
C70   H49   S    
C1    O1    A    
C6    C10   A    
C65   H38   S    
C52   H26   S    
C38   H8    S    
C62   C63   A    
C75   H60   S    
C7    O9    S    
C36   C38   A    
C35   C40   A    
C43   C44   A    
C37   C39   A    
C66   H39   S    
C38   C40   A    
C72   H54   S    
C61   H33   S    
C56   H29   S    
C54   C55   A    
C36   H6    S    
C75   H61   S    
C59   C60   A    
C28   C47   S    
C65   C66   S    
C26   H4    S    
C42   H17   S    
C49   C50   A    
C13   C16   A    
C60   C61   A    
C68   H45   S    
C41   C46   A    
C71   H51   S    
C76   H62   S    
C58   H31   S    
C55   H28   S    
C2    O2    A    
O10   C68   S    
C13   H13   S    
C3    N1    A    
