data_mof_unit_30601.cif
_audit_creation_date              2012-12-10T16:47:50-0500
_audit_creation_method            fapswitch 2.2
_symmetry_space_group_name_H-M    P1
_symmetry_Int_Tables_number       1
_space_group_crystal_system       triclinic
_cell_length_a                    7.75171
_cell_length_b                    8.609495
_cell_length_c                    10.632313
_cell_angle_alpha                 90.491331
_cell_angle_beta                  86.819653
_cell_angle_gamma                 93.403346
_cell_volume                      707.230274027

loop_
_atom_site_label
_atom_site_type_symbol
_atom_type_description
_atom_site_fract_x
_atom_site_fract_y
_atom_site_fract_z
_atom_type_partial_charge
C1    C     C_R   0.544855 0.794571 0.493230 1.001780
C2    C     C_2   0.565924 0.958023 0.491232 -0.404440
C3    C     C_2   0.427932 0.042886 0.478413 0.273282
C4    C     C_R   0.503946 0.499121 0.737486 0.979114
C5    C     C_R   0.453754 0.205677 0.496533 0.816835
C6    C     C_R   0.499268 0.516311 0.262432 0.854253
C7    C     C_2   0.647512 0.582077 0.059914 0.293765
C8    C     C_2   0.498646 0.568057 0.132377 0.175170
C9    C     C_2   0.635484 0.593997 0.923308 0.393581
C10   C     C_2   0.517068 0.499317 0.869680 -0.300090
H1    H     H_    0.429864 0.418115 0.923532 0.123307
H2    H     H_    0.693980 0.008678 0.509793 0.151401
H3    H     H_    0.013349 0.382769 0.406763 0.194503
H4    H     H_    0.986651 0.617251 0.593223 0.227399
H5    H     H_    0.897144 0.567807 0.040280 0.347401
H6    H     H_    0.246644 0.589191 0.143667 0.370876
H7    H     H_    0.812693 0.762315 0.909510 0.343900
H8    H     H_    0.189041 0.059957 0.429660 0.339946
N1    N     N_2   0.950320 0.457950 0.466680 -0.160224
N2    N     N_2   0.049680 0.542050 0.533320 -0.152468
O1    O     O_R   0.389250 0.738570 0.508180 -0.536586
O2    O     O_3   0.346073 0.610494 0.082639 -0.791794
O3    O     O_3   0.744878 0.695398 0.851485 -0.765713
O4    O     O_3   0.269118 0.977196 0.443974 -0.725479
O5    O     O_R   0.678390 0.711630 0.486820 -0.623471
O6    O     O_R   0.355470 0.513470 0.691600 -0.612332
O7    O     O_R   0.644610 0.486520 0.670240 -0.588273
O8    O     O_R   0.321610 0.288370 0.513180 -0.638830
O9    O     O_R   0.610750 0.261430 0.491820 -0.637950
O10   O     O_R   0.355390 0.513480 0.329760 -0.643565
O11   O     O_R   0.644530 0.486530 0.308400 -0.553456
O12   O     O_3   0.807405 0.571584 0.110237 -0.761243
Zn1   Zn    Zn3+2 0.306940 0.517990 0.514260 1.003092
Zn2   Zn    Zn3+2 0.693060 0.482010 0.485740 1.006309

loop_
_geom_bond_atom_site_label_1
_geom_bond_atom_site_label_2
_ccdc_geom_bond_type
C8    O2    S    
C1    O1    A    
C5    O8    A    
C9    C10   D    
O6    Zn1   S    
C4    O6    A    
N1    N2    D    
O5    Zn2   S    
C2    H2    S    
C2    C3    D    
O11   Zn2   S    
H5    O12   S    
C1    O5    A    
C3    O4    S    
H7    O3    S    
H8    O4    S    
N2    Zn1   S    
C6    O10   A    
O8    Zn1   S    
C6    O11   A    
C5    O9    A    
O7    Zn2   S    
O1    Zn1   S    
C10   H1    S    
H3    N1    S    
C4    C10   S    
H4    N2    S    
C7    C8    D    
C4    O7    A    
C1    C2    S    
C7    C9    S    
C9    O3    S    
C6    C8    S    
C7    O12   S    
O10   Zn1   S    
O9    Zn2   S    
H6    O2    S    
C3    C5    S    
N1    Zn2   S    
