data_mof_unit_36211.cif
_audit_creation_date              2012-12-11T17:19:16-0500
_audit_creation_method            fapswitch 2.2
_symmetry_space_group_name_H-M    P1
_symmetry_Int_Tables_number       1
_space_group_crystal_system       triclinic
_cell_length_a                    14.574442
_cell_length_b                    7.267971
_cell_length_c                    13.64477
_cell_angle_alpha                 90.651371
_cell_angle_beta                  100.183952
_cell_angle_gamma                 88.893073
_cell_volume                      1422.26131331

loop_
_atom_site_label
_atom_site_type_symbol
_atom_type_description
_atom_site_fract_x
_atom_site_fract_y
_atom_site_fract_z
_atom_type_partial_charge
O1    O     O_R   0.648180 0.355050 0.151550 -0.489563
O2    O     O_R   0.351820 0.644950 0.848450 -0.499484
O3    O     O_R   0.851820 0.855050 0.348450 -0.491743
O4    O     O_R   0.148180 0.144950 0.651550 -0.535661
O5    O     O_R   0.835240 0.681980 0.154280 -0.516430
O6    O     O_R   0.164760 0.318020 0.845720 -0.549754
O7    O     O_R   0.664760 0.181980 0.345720 -0.525452
O8    O     O_R   0.335240 0.818020 0.654280 -0.519496
H1    H     H_    0.703111 0.059458 0.816169 0.185359
H2    H     H_    0.303529 0.899958 0.182350 0.159613
H3    H     H_    0.788423 0.499458 0.687854 0.162309
H4    H     H_    0.206619 0.424942 0.314276 0.185954
C1    C     C_R   0.869045 0.515099 0.139711 0.802919
C2    C     C_R   0.130543 0.484893 0.860306 0.776828
C3    C     C_R   0.632471 0.018709 0.362551 0.787229
C4    C     C_R   0.367317 0.981091 0.636773 0.777512
O9    O     O_R   0.647870 0.684600 0.139630 -0.517071
O10   O     O_R   0.352130 0.315400 0.860370 -0.519210
O11   O     O_R   0.852130 0.184600 0.360370 -0.537808
O12   O     O_R   0.147870 0.815400 0.639630 -0.497279
O13   O     O_R   0.663110 0.857440 0.333700 -0.544211
O14   O     O_R   0.336890 0.142560 0.666300 -0.543443
O15   O     O_R   0.836890 0.357440 0.166300 -0.547194
O16   O     O_R   0.163110 0.642560 0.833700 -0.505665
C5    C     C_R   0.615114 0.516352 0.113164 0.732382
C6    C     C_R   0.384662 0.483654 0.887103 0.738632
C7    C     C_R   0.884540 0.015700 0.387222 0.746202
C8    C     C_R   0.115862 0.984736 0.612308 0.761031
O17   O     O_3   0.755220 0.522230 0.313690 -0.377258
O18   O     O_3   0.244780 0.477770 0.686310 -0.372725
O19   O     O_3   0.744780 0.022230 0.186310 -0.356669
O20   O     O_3   0.255220 0.977770 0.813690 -0.365281
V1    V     V_3+5 0.749030 0.796100 0.238190 1.691651
V2    V     V_3+5 0.250970 0.203900 0.761810 1.621113
V3    V     V_3+5 0.750970 0.296100 0.261810 1.651236
V4    V     V_3+5 0.249030 0.703900 0.738190 1.707312
C9    C     C_1   0.966023 0.005484 0.466748 -0.030641
C10   C     C_1   0.034449 0.995973 0.532740 -0.056401
C11   C     C_1   0.533791 0.505759 0.033432 -0.045499
C12   C     C_1   0.465736 0.494077 0.967137 -0.036433
H5    H     H_    0.208286 0.831968 0.304517 0.212369
H6    H     H_    0.798330 0.128240 0.693496 0.168089
H7    H     H_    0.303370 0.383247 0.189574 0.221726
H8    H     H_    0.693510 0.438012 0.811699 0.162155
C13   C     C_R   0.578059 0.002988 0.709125 0.404664
C14   C     C_R   0.424435 0.979761 0.289597 0.386780
C15   C     C_R   0.917809 0.526060 0.793021 0.406306
C16   C     C_R   0.080205 0.489848 0.209969 0.417658
C17   C     C_R   0.670511 0.057629 0.738521 -0.177183
C18   C     C_R   0.334528 0.911806 0.260234 -0.194678
C19   C     C_R   0.822490 0.492187 0.764899 -0.166510
C20   C     C_R   0.173818 0.435630 0.236919 -0.193839
C21   C     C_R   0.725634 0.095720 0.669260 -0.159571
C22   C     C_R   0.279292 0.874345 0.329501 -0.148523
C23   C     C_R   0.767501 0.459684 0.834900 -0.200245
C24   C     C_R   0.229846 0.412726 0.166246 -0.161186
C25   C     C_R   0.689827 0.081284 0.568982 -0.125062
C26   C     C_R   0.312451 0.903040 0.429795 -0.135382
C27   C     C_R   0.805761 0.465795 0.934760 -0.143262
C28   C     C_R   0.193527 0.440072 0.066805 -0.131980
C29   C     C_R   0.595245 0.037264 0.534293 0.014810
C30   C     C_R   0.405678 0.955862 0.464814 0.009137
C31   C     C_R   0.902537 0.492019 0.967718 0.030587
C32   C     C_R   0.097066 0.476159 0.033764 0.010544
C33   C     C_R   0.535273 0.008241 0.605251 -0.033915
C34   C     C_R   0.465748 0.984450 0.393910 -0.023685
C35   C     C_R   0.962455 0.507642 0.895754 -0.024342
C36   C     C_R   0.036980 0.492665 0.106190 -0.031556
C37   C     C_R   0.562321 0.017913 0.430192 -0.138098
C38   C     C_R   0.437914 0.980183 0.568993 -0.133483
C39   C     C_R   0.938211 0.502618 0.071362 -0.146015
C40   C     C_R   0.061743 0.497019 0.929980 -0.137370
H9    H     H_    0.738319 0.105734 0.519386 0.100370
H10   H     H_    0.263720 0.879558 0.479235 0.125332
H11   H     H_    0.757820 0.446207 0.985594 0.088344
H12   H     H_    0.242781 0.429001 0.016417 0.119844
S1    S     S_3+6 0.534463 0.880158 0.801945 -0.042533
O21   O     O_2   0.456060 0.984512 0.836344 -0.325168
O22   O     O_2   0.501469 0.696860 0.758888 -0.385305
O23   O     O_3   0.618315 0.845206 0.902353 -0.506368
H13   H     H_    0.635588 0.713122 0.900294 0.331419
S2    S     S_3+6 0.465842 0.103057 0.195156 -0.053835
O24   O     O_2   0.494884 0.290122 0.235559 -0.359898
O25   O     O_2   0.546681 0.004356 0.162380 -0.333676
O26   O     O_3   0.381732 0.131056 0.094323 -0.528798
H14   H     H_    0.387149 0.021745 0.051512 0.355727
S3    S     S_3+6 0.965847 0.640296 0.701304 -0.056109
O27   O     O_2   0.009514 0.813052 0.747735 -0.347340
O28   O     O_2   0.036808 0.519171 0.663267 -0.372005
O29   O     O_3   0.882859 0.701403 0.604283 -0.523977
H15   H     H_    0.879810 0.597506 0.556214 0.342930
S4    S     S_3+6 0.034786 0.602447 0.307032 -0.076955
O30   O     O_2   0.002447 0.790822 0.270675 -0.368693
O31   O     O_2   0.955973 0.497538 0.335547 -0.359254
O32   O     O_3   0.117526 0.625279 0.409298 -0.547168
H16   H     H_    0.084071 0.620134 0.466337 0.377262

loop_
_geom_bond_atom_site_label_1
_geom_bond_atom_site_label_2
_ccdc_geom_bond_type
C26   C30   A    
S3    O27   D    
C23   C27   A    
O32   H16   S    
O10   C6    A    
C2    C40   S    
S1    O21   D    
O1    V3    S    
O16   V4    S    
C32   C36   A    
C14   C34   A    
H6    C21   S    
C34   C37   A    
O13   V1    S    
O3    V1    S    
O2    V4    S    
C33   C38   A    
C30   C38   A    
C35   C40   A    
O8    V4    S    
C2    O16   A    
O4    C8    A    
C14   S2    S    
O5    V1    S    
O19   V1    S    
C8    C10   S    
O11   C7    A    
C25   H9    S    
O5    C1    A    
O7    C3    A    
O8    C4    A    
O1    C5    A    
O9    V1    S    
O14   V2    S    
C15   C35   A    
H4    C20   S    
C1    O15   A    
O4    V2    S    
S1    O22   D    
C3    C37   S    
C31   C35   A    
C30   C34   A    
H1    C17   S    
C11   C12   T    
C21   C25   A    
C15   C19   A    
O12   C8    A    
O26   H14   S    
C28   H12   S    
S4    O32   S    
O6    V2    S    
O20   V2    S    
C9    C10   T    
O6    C2    A    
C13   C17   A    
S4    O31   D    
C4    C38   S    
O2    C6    A    
C18   C22   A    
C16   C36   A    
O10   V2    S    
C31   C39   A    
S2    O25   D    
S3    O28   D    
C13   C33   A    
H2    C18   S    
C27   H11   S    
C26   H10   S    
C22   C26   A    
S1    O23   S    
C29   C37   A    
C14   C18   A    
C4    O14   A    
O7    V3    S    
O23   H13   S    
C25   C29   A    
S2    O26   S    
C1    C39   S    
O17   V3    S    
C27   C31   A    
O18   V4    S    
C28   C32   A    
O9    C5    A    
O3    C7    A    
O11   V3    S    
C5    C11   S    
H8    C23   S    
C6    C12   S    
O29   H15   S    
C3    O13   A    
C7    C9    S    
C36   C39   A    
C17   C21   A    
S4    O30   D    
C19   C23   A    
C32   C40   A    
O15   V3    S    
H5    C22   S    
H3    C19   S    
O12   V4    S    
C29   C33   A    
H7    C24   S    
C16   C20   A    
C24   C28   A    
S2    O24   D    
C16   S4    S    
S3    O29   S    
C13   S1    S    
C20   C24   A    
C15   S3    S    
