data_mof_unit_41728.cif
_audit_creation_date              2012-12-11T17:45:22-0500
_audit_creation_method            fapswitch 2.2
_symmetry_space_group_name_H-M    P1
_symmetry_Int_Tables_number       1
_space_group_crystal_system       triclinic
_cell_length_a                    14.985694
_cell_length_b                    14.912136
_cell_length_c                    15.099932
_cell_angle_alpha                 110.245756
_cell_angle_beta                  109.169885
_cell_angle_gamma                 109.138648
_cell_volume                      2592.83134641

loop_
_atom_site_label
_atom_site_type_symbol
_atom_type_description
_atom_site_fract_x
_atom_site_fract_y
_atom_site_fract_z
_atom_type_partial_charge
C1    C     C_R   0.973589 0.248825 0.062288 -0.124241
C2    C     C_R   0.324591 0.789964 0.327914 0.052446
C3    C     C_R   0.299790 0.499683 0.931338 -0.010096
C4    C     C_R   0.941672 0.502040 0.303741 0.060925
C5    C     C_R   0.686041 0.407234 0.933387 -0.140746
C6    C     C_R   0.022344 0.593151 0.782441 -0.106837
C7    C     C_R   0.793292 0.195117 0.701639 -0.145373
C8    C     C_R   0.000924 0.802354 0.097384 -0.144686
C9    C     C_R   0.094809 0.807419 0.010557 -0.150171
C10   C     C_R   0.705605 0.193500 0.794840 -0.135426
C11   C     C_R   0.776651 0.591910 0.025639 -0.143912
C12   C     C_R   0.315201 0.759952 0.225188 -0.132101
C13   C     C_R   0.941114 0.409379 0.685439 -0.136911
C14   C     C_R   0.674409 0.499228 0.949833 -0.008727
C15   C     C_R   0.958276 0.504036 0.678930 0.041191
C16   C     C_R   0.705007 0.127596 0.703180 0.066994
C17   C     C_R   0.064694 0.870714 0.074894 0.068327
C18   C     C_R   0.612888 0.265773 0.093843 -0.117986
C19   C     C_R   0.691776 0.353865 0.198953 -0.153233
C20   C     C_R   0.741612 0.334208 0.281487 0.117786
C21   C     C_R   0.703787 0.224681 0.258756 -0.161784
C22   C     C_R   0.620782 0.136955 0.154593 -0.119128
C23   C     C_R   0.208169 0.408343 0.902732 -0.146534
C24   C     C_R   0.576469 0.157558 0.071826 -0.091814
C25   C     C_R   0.848233 0.430652 0.484035 -0.251026
C26   C     C_R   0.942314 0.513638 0.583870 0.075784
C27   C     C_R   0.025711 0.599683 0.589959 0.015462
C28   C     C_R   0.014766 0.597193 0.495661 -0.249928
C29   C     C_R   0.926744 0.509205 0.395078 0.066173
C30   C     C_R   0.839060 0.426680 0.387589 0.025239
C31   C     C_R   0.154567 0.791400 0.750750 -0.203518
C32   C     C_R   0.255964 0.870167 0.844350 -0.111834
C33   C     C_R   0.337896 0.843589 0.874056 -0.106611
C34   C     C_R   0.996857 0.592468 0.298984 -0.165746
C35   C     C_R   0.318922 0.738588 0.810253 -0.120810
C36   C     C_R   0.216867 0.658433 0.718250 -0.127743
C37   C     C_R   0.133586 0.684116 0.688571 0.119042
C38   C     C_R   0.253969 0.042025 0.534309 -0.128896
C39   C     C_R   0.330496 0.013774 0.520729 -0.127236
C40   C     C_R   0.340890 0.930887 0.539524 0.108187
C41   C     C_R   0.275416 0.878116 0.574091 -0.184162
C42   C     C_R   0.194826 0.902496 0.581468 -0.117544
C43   C     C_R   0.184760 0.984978 0.562586 -0.119739
C44   C     C_R   0.526296 0.973076 0.627959 -0.228611
C45   C     C_R   0.299588 0.591334 0.995413 -0.137885
C46   C     C_R   0.622394 0.010284 0.623701 0.049927
C47   C     C_R   0.622712 0.946947 0.529156 0.031053
C48   C     C_R   0.522995 0.865390 0.435111 -0.245430
C49   C     C_R   0.425283 0.853125 0.433195 0.069025
C50   C     C_R   0.427792 0.908226 0.532346 0.016470
C51   C     C_R   0.739304 0.006960 0.452540 -0.204185
C52   C     C_R   0.843175 0.055188 0.465160 -0.115667
C53   C     C_R   0.930793 0.063420 0.545397 -0.111854
C54   C     C_R   0.914350 0.022041 0.612122 -0.138624
C55   C     C_R   0.811362 0.976139 0.601768 -0.146462
C56   C     C_R   0.911736 0.409202 0.211692 -0.136020
C57   C     C_R   0.723831 0.971151 0.523833 0.122180
C58   C     C_3   0.470386 0.387306 0.840873 -0.401424
C59   C     C_3   0.366640 0.389154 0.833666 -0.416089
C60   C     C_3   0.573958 0.518957 0.044741 -0.401202
C61   C     C_3   0.564103 0.591595 0.915401 -0.395702
C62   C     C_3   0.572572 0.499106 0.936407 0.399238
C63   C     C_3   0.396600 0.499731 0.927587 0.406107
C64   C     C_3   0.470537 0.517983 0.038984 -0.389647
C65   C     C_3   0.460092 0.592765 0.911453 -0.411604
C66   C     C_R   0.178037 0.059059 0.811429 -0.137025
C67   C     C_R   0.220449 0.752070 0.313339 -0.121791
C68   C     C_R   0.136174 0.057883 0.881032 -0.193020
C69   C     C_R   0.200111 0.138641 0.992020 0.113530
C70   C     C_R   0.305773 0.220902 0.032518 -0.149284
C71   C     C_R   0.347021 0.221332 0.962077 -0.140210
C72   C     C_R   0.284052 0.139638 0.852017 -0.111130
C73   C     C_R   0.171075 0.043631 0.087977 -0.230632
C74   C     C_R   0.100826 0.989208 0.116836 0.056510
C75   C     C_R   0.052797 0.043864 0.164623 0.024156
C76   C     C_R   0.061451 0.138491 0.162156 -0.240300
C77   C     C_R   0.098150 0.167094 0.096418 0.060667
C78   C     C_R   0.067786 0.252000 0.973698 -0.141420
C79   C     C_R   0.161746 0.124229 0.066239 0.026868
C80   C     C_R   0.865546 0.949682 0.135013 -0.151136
C81   C     C_R   0.793934 0.896735 0.163771 -0.158058
C82   C     C_R   0.834535 0.889515 0.256988 -0.100790
C83   C     C_R   0.947045 0.941119 0.325145 -0.119104
C84   C     C_R   0.019265 0.998713 0.299443 -0.188434
C85   C     C_R   0.978578 0.998147 0.201215 0.117252
C86   C     C_R   0.051693 0.223275 0.048029 0.057514
H1    H     H_    0.938846 0.236416 0.111922 0.092702
H2    H     H_    0.044846 0.677724 0.808013 0.116207
H3    H     H_    0.825350 0.173557 0.648918 0.133858
H4    H     H_    0.975725 0.822319 0.156194 0.130805
H5    H     H_    0.154974 0.836508 0.987998 0.101432
H6    H     H_    0.659346 0.167213 0.831496 0.087401
H7    H     H_    0.796526 0.677022 0.062828 0.110263
H8    H     H_    0.895583 0.324927 0.619165 0.102878
H9    H     H_    0.515029 0.089979 0.990203 0.102621
H10   H     H_    0.582221 0.281328 0.028675 0.093613
H11   H     H_    0.718827 0.437232 0.214186 0.112852
H12   H     H_    0.379864 0.775828 0.205715 0.089926
H13   H     H_    0.741018 0.206787 0.320235 0.105696
H14   H     H_    0.593130 0.052944 0.137312 0.099275
H15   H     H_    0.784051 0.367111 0.481394 0.129083
H16   H     H_    0.083103 0.658775 0.501085 0.130081
H17   H     H_    0.091143 0.812415 0.728675 0.112864
H18   H     H_    0.271202 0.951575 0.894463 0.137871
H19   H     H_    0.416243 0.904186 0.946463 0.092580
H20   H     H_    0.383821 0.720065 0.832386 0.099815
H21   H     H_    0.202766 0.576813 0.670034 0.106577
H22   H     H_    0.124449 0.005900 0.571470 0.092746
H23   H     H_    0.176840 0.323084 0.845385 0.099439
H24   H     H_    0.248686 0.108408 0.523378 0.102707
H25   H     H_    0.383323 0.057930 0.497901 0.111698
H26   H     H_    0.284338 0.815892 0.591389 0.126704
H27   H     H_    0.140444 0.857965 0.602295 0.114967
H28   H     H_    0.524449 0.013520 0.701505 0.124857
H29   H     H_    0.522568 0.818954 0.361577 0.122719
H30   H     H_    0.673183 0.005312 0.393060 0.115298
H31   H     H_    0.856118 0.087965 0.413972 0.127880
H32   H     H_    0.011501 0.102341 0.556182 0.100945
H33   H     H_    0.982026 0.029155 0.674525 0.115414
H34   H     H_    0.019072 0.676747 0.350142 0.106941
H35   H     H_    0.801102 0.950014 0.658050 0.112149
H36   H     H_    0.470143 0.318227 0.853468 0.143680
H37   H     H_    0.469438 0.370592 0.762713 0.157907
H38   H     H_    0.316267 0.377882 0.753519 0.153615
H39   H     H_    0.318171 0.318375 0.837670 0.163930
H40   H     H_    0.581878 0.454892 0.062804 0.148271
H41   H     H_    0.426718 0.452547 0.052707 0.162178
H42   H     H_    0.635933 0.673397 0.980590 0.150313
H43   H     H_    0.561814 0.577780 0.837211 0.157069
H44   H     H_    0.407451 0.578983 0.830961 0.151941
H45   H     H_    0.355361 0.676594 0.026508 0.087347
H46   H     H_    0.483752 0.675043 0.975518 0.142397
H47   H     H_    0.645353 0.600003 0.113949 0.156300
H48   H     H_    0.493190 0.598039 0.106322 0.151477
H49   H     H_    0.317184 0.139279 0.798225 0.123157
H50   H     H_    0.128739 0.995577 0.726805 0.106637
H51   H     H_    0.055193 0.992332 0.849321 0.118799
H52   H     H_    0.356669 0.282471 0.118364 0.117175
H53   H     H_    0.427837 0.284827 0.992817 0.113203
H54   H     H_    0.218881 0.011157 0.062934 0.125376
H55   H     H_    0.859780 0.324262 0.184758 0.113853
H56   H     H_    0.833070 0.950715 0.060055 0.114204
H57   H     H_    0.706974 0.859580 0.112795 0.106963
H58   H     H_    0.778868 0.845179 0.277215 0.117698
H59   H     H_    0.106019 0.036433 0.351022 0.118377
H60   H     H_    0.194900 0.751876 0.371577 0.119801
H61   H     H_    0.122939 0.247431 0.944086 0.126927
H62   H     H_    0.624003 0.321379 0.883592 0.093945
N1    N     N_R   0.947080 0.293830 0.002870 -0.041398
N2    N     N_R   0.054040 0.556820 0.847890 -0.040401
N3    N     N_R   0.848290 0.293830 0.791110 -0.041958
N4    N     N_R   0.995680 0.706170 0.053910 -0.041117
N5    N     N_R   0.052920 0.706170 0.997130 -0.041478
N6    N     N_R   0.791050 0.293830 0.847890 -0.038742
N7    N     N_R   0.846330 0.556820 0.053910 -0.036477
N8    N     N_R   0.997640 0.443180 0.791110 -0.040109
N9    N     N_R   0.208950 0.706170 0.152110 -0.039837
N10   N     N_R   0.153670 0.443180 0.946090 -0.036640
N11   N     N_R   0.002360 0.556820 0.208890 -0.038958
N12   N     N_R   0.210070 0.556820 0.002870 -0.033722
N13   N     N_R   0.945960 0.443180 0.152110 -0.039786
N14   N     N_R   0.151710 0.706170 0.208890 -0.042893
N15   N     N_R   0.004320 0.293830 0.946090 -0.041623
N16   N     N_R   0.789930 0.443180 0.997130 -0.035227
Ni1   Ni    Ni4+2 0.869690 0.369690 0.000000 0.211605
Ni2   Ni    Ni4+2 0.130310 0.630310 0.000000 0.217583
Ni3   Ni    Ni4+2 0.000970 0.369690 0.869780 0.215531
Ni4   Ni    Ni4+2 0.999030 0.630310 0.130220 0.213595
H63   H     H_    0.024100 0.178503 0.198610 0.126505
H64   H     H_    0.977933 0.934985 0.396935 0.119334

loop_
_geom_bond_atom_site_label_1
_geom_bond_atom_site_label_2
_ccdc_geom_bond_type
C58   C62   S    
C66   C68   A    
C55   H35   S    
C1    H1    S    
N5    Ni2   S    
C18   H10   S    
C73   C74   A    
C3    C23   A    
C35   C36   A    
C2    C12   A    
C9    H5    S    
C63   C65   S    
C65   H44   S    
C19   H11   S    
C20   C30   S    
C84   H59   S    
C28   C29   A    
C26   C27   A    
C80   C85   A    
C18   C24   A    
N16   Ni1   S    
C8    N4    A    
C38   C39   A    
C21   H13   S    
C11   C14   A    
N3    Ni3   S    
C9    N5    A    
C61   C62   S    
C14   C62   S    
C23   N10   A    
C25   C30   A    
C6    H2    S    
N11   Ni4   S    
C60   C62   S    
C18   C19   A    
C41   C42   A    
N3    N6    A    
C7    H3    S    
C6    C15   A    
C54   C55   A    
C75   C85   S    
C66   C72   A    
C83   C84   A    
C68   C69   A    
C41   H26   S    
C32   H18   S    
N6    Ni1   S    
C1    N1    A    
C70   C71   A    
N1    N15   A    
N12   Ni2   S    
C12   N9    A    
C38   H24   S    
C12   H12   S    
C4    C29   S    
C11   N7    A    
C34   N11   A    
C78   C86   A    
C39   H25   S    
C10   H6    S    
C78   N15   A    
C5    H62   S    
N2    N8    A    
C21   C22   A    
C4    C56   A    
C36   H21   S    
N10   N12   A    
C10   N6    A    
C68   H51   S    
C76   H63   S    
C45   N12   A    
C3    C63   S    
N4    Ni4   S    
C44   C46   A    
N10   Ni3   S    
C81   C82   A    
C4    C34   A    
C77   C79   A    
C34   H34   S    
C23   H23   S    
C64   H48   S    
C58   H36   S    
C22   H14   S    
C74   C75   A    
C51   C52   A    
C5    N16   A    
C83   H64   S    
N1    Ni1   S    
C84   C85   A    
C82   H58   S    
C2    C67   A    
C24   H9    S    
C16   C46   S    
C39   C40   A    
C11   H7    S    
C53   H32   S    
C15   C26   S    
C71   H53   S    
N8    Ni3   S    
C58   C59   S    
C53   C54   A    
C56   N13   A    
C3    C45   A    
C31   C37   A    
C31   H17   S    
N15   Ni3   S    
C75   C76   A    
C13   N8    A    
C29   C30   A    
C2    C49   S    
C28   H16   S    
C47   C57   S    
C42   H27   S    
C47   C48   A    
N7    Ni4   S    
C64   H41   S    
C20   C21   A    
C67   H60   S    
N11   N13   A    
C73   C79   A    
C33   H19   S    
C76   C77   A    
C5    C14   A    
C78   H61   S    
C48   H29   S    
C7    N3    A    
C56   H55   S    
C9    C17   A    
C48   C49   A    
C77   C86   S    
C70   H52   S    
C80   H56   S    
C55   C57   A    
C17   C74   S    
C59   H38   S    
C66   H50   S    
C69   C79   S    
C8    H4    S    
C58   H37   S    
C65   H46   S    
C52   C53   A    
C44   C50   A    
C1    C86   A    
C46   C47   A    
C36   C37   A    
C31   C32   A    
C7    C16   A    
C51   H30   S    
C80   C81   A    
C72   H49   S    
N9    Ni2   S    
C45   H45   S    
C73   H54   S    
C61   H43   S    
N7    N16   A    
C59   H39   S    
C59   C63   S    
C8    C17   A    
C13   H8    S    
C60   C64   S    
C32   C33   A    
C19   C20   A    
C13   C15   A    
C25   C26   A    
C38   C43   A    
C35   H20   S    
C10   C16   A    
C52   H31   S    
C67   N14   A    
C25   H15   S    
C27   C37   S    
C40   C50   S    
C60   H47   S    
C60   H40   S    
C33   C35   A    
C61   H42   S    
C22   C24   A    
C43   H22   S    
C69   C70   A    
N14   Ni4   S    
C44   H28   S    
C63   C64   S    
C6    N2    A    
C61   C65   S    
C51   C57   A    
C81   H57   S    
C71   C72   A    
N4    N5    A    
C49   C50   A    
C42   C43   A    
C27   C28   A    
C40   C41   A    
C82   C83   A    
C54   H33   S    
N9    N14   A    
N13   Ni1   S    
N2    Ni2   S    
