data_mof_unit_10381.cif
_audit_creation_date              2012-12-11T16:45:53-0500
_audit_creation_method            fapswitch 2.2
_symmetry_space_group_name_H-M    P1
_symmetry_Int_Tables_number       1
_space_group_crystal_system       triclinic
_cell_length_a                    20.088233
_cell_length_b                    17.174392
_cell_length_c                    15.705555
_cell_angle_alpha                 89.989836
_cell_angle_beta                  52.095691
_cell_angle_gamma                 90.025161
_cell_volume                      4275.37428223

loop_
_atom_site_label
_atom_site_type_symbol
_atom_type_description
_atom_site_fract_x
_atom_site_fract_y
_atom_site_fract_z
_atom_type_partial_charge
C1    C     C_R   0.839886 0.672672 0.045993 0.488336
C2    C     C_R   0.156489 0.312385 0.058397 0.145753
C3    C     C_2   0.634573 0.916367 0.187626 0.648196
C4    C     C_R   0.314072 0.825840 0.982929 0.135065
C5    C     C_R   0.656692 0.812465 0.058135 0.145596
C6    C     C_R   0.905750 0.687107 0.290264 -0.247696
C7    C     C_R   0.090655 0.687979 0.710393 -0.123208
C8    C     C_R   0.405758 0.187102 0.290271 -0.247718
C9    C     C_R   0.590651 0.187982 0.710401 -0.123265
C10   C     C_R   0.775525 0.698058 0.471189 -0.025326
C11   C     C_R   0.149387 0.729987 0.526506 0.083127
C12   C     C_R   0.275627 0.198024 0.471287 -0.024857
C13   C     C_R   0.161084 0.671722 0.954491 0.450753
C14   C     C_R   0.649380 0.229973 0.526511 0.083096
C15   C     C_R   0.852209 0.731030 0.387167 0.153399
C16   C     C_R   0.155912 0.725287 0.610026 0.076672
C17   C     C_R   0.352257 0.231032 0.387184 0.153463
C18   C     C_R   0.655897 0.225306 0.610040 0.076682
C19   C     C_R   0.378245 0.301417 0.403479 0.016569
C20   C     C_R   0.735416 0.236655 0.586141 -0.121743
C21   C     C_R   0.878232 0.801347 0.403559 0.016753
C22   C     C_R   0.235442 0.736598 0.586109 -0.121778
C23   C     C_R   0.322595 0.341342 0.500778 -0.085693
C24   C     C_R   0.339868 0.172659 0.046005 0.488383
C25   C     C_R   0.802804 0.264593 0.486071 0.006765
C26   C     C_R   0.822569 0.841255 0.500868 -0.085834
C27   C     C_R   0.302828 0.764543 0.486042 0.006779
C28   C     C_R   0.242365 0.309788 0.580145 0.246840
C29   C     C_R   0.791249 0.280786 0.409117 0.019558
C30   C     C_R   0.742300 0.809740 0.580151 0.246899
C31   C     C_R   0.291261 0.780784 0.409112 0.019584
C32   C     C_R   0.721544 0.736213 0.566107 -0.145416
C33   C     C_R   0.216610 0.757794 0.427132 -0.124512
C34   C     C_R   0.221647 0.236214 0.566178 -0.145796
C35   C     C_R   0.661062 0.171746 0.954536 0.450787
C36   C     C_R   0.716610 0.257762 0.427123 -0.124551
C37   C     C_3   0.644157 0.702775 0.584977 0.102785
C38   C     C_3   0.162029 0.797431 0.405217 0.095266
C39   C     C_3   0.144263 0.202701 0.585111 0.103045
C40   C     C_3   0.662028 0.297374 0.405187 0.095132
C41   C     C_R   0.882759 0.306221 0.213601 -0.100415
C42   C     C_R   0.141316 0.320801 0.779563 -0.088990
C43   C     C_R   0.382757 0.806222 0.213599 -0.100024
C44   C     C_R   0.641253 0.820747 0.779561 -0.089127
C45   C     C_3   0.705944 0.658900 0.477597 0.649305
C46   C     C_R   0.852214 0.326031 0.315655 -0.190051
C47   C     C_3   0.086313 0.769945 0.518994 0.644565
C48   C     C_3   0.206049 0.158755 0.477794 0.648906
C49   C     C_3   0.586312 0.269925 0.518983 0.644745
C50   C     C_2   0.769216 0.194531 0.980018 0.499543
C51   C     C_2   0.216696 0.185723 0.046454 0.485783
C52   C     C_2   0.269288 0.694484 0.979889 0.499457
C53   C     C_2   0.716760 0.685783 0.046383 0.485691
C54   C     C_2   0.256792 0.772160 0.989702 -0.184249
C55   C     C_2   0.721435 0.763760 0.040070 -0.168647
C56   C     C_2   0.756720 0.272208 0.989814 -0.184353
C57   C     C_R   0.181963 0.351024 0.677546 -0.118736
C58   C     C_2   0.221275 0.263708 0.040284 -0.168436
C59   C     C_R   0.849185 0.393382 0.921011 -0.128813
C60   C     C_R   0.137185 0.387995 0.097268 -0.144995
C61   C     C_R   0.349223 0.893358 0.920958 -0.128868
C62   C     C_R   0.637302 0.888041 0.097125 -0.144700
C63   C     C_R   0.918843 0.610440 0.293710 0.522547
C64   C     C_R   0.077774 0.610447 0.708702 0.448224
C65   C     C_R   0.418854 0.110435 0.293704 0.522427
C66   C     C_R   0.577775 0.110449 0.708704 0.448303
C67   C     C_R   0.850889 0.311600 0.030324 0.051579
C68   C     C_R   0.352228 0.826025 0.315649 -0.189973
C69   C     C_R   0.125084 0.300006 0.004630 -0.058460
C70   C     C_R   0.350941 0.811559 0.030244 0.051486
C71   C     C_R   0.625218 0.800049 0.004458 -0.058231
C72   C     C_R   0.912513 0.700198 0.200043 0.560989
C73   C     C_R   0.085087 0.699877 0.800846 0.473906
C74   C     C_R   0.412512 0.200197 0.200052 0.561098
C75   C     C_R   0.585085 0.199878 0.800852 0.473842
C76   C     C_R   0.882783 0.399005 0.313092 0.504926
C77   C     C_R   0.138249 0.415436 0.684024 0.494676
C78   C     C_R   0.382809 0.898994 0.313082 0.505094
C79   C     C_R   0.681903 0.850970 0.677547 -0.118753
C80   C     C_R   0.638233 0.915413 0.684023 0.494753
C81   C     C_R   0.831165 0.582499 0.950228 -0.058013
C82   C     C_R   0.165339 0.584244 0.056713 -0.070758
C83   C     C_R   0.331164 0.082488 0.950224 -0.057814
C84   C     C_R   0.665301 0.084277 0.056781 -0.070693
C85   C     C_R   0.790611 0.645405 0.019182 -0.126789
C86   C     C_R   0.205793 0.647519 0.989413 -0.103642
C87   C     C_R   0.290599 0.145390 0.019182 -0.126889
C88   C     C_R   0.705745 0.147561 0.989502 -0.103754
C89   C     C_2   0.593691 0.650504 0.682395 0.656704
C90   C     C_R   0.814003 0.325889 0.983033 0.135049
C91   C     C_2   0.174901 0.884266 0.391065 0.621564
C92   C     C_2   0.093817 0.150503 0.682609 0.656213
C93   C     C_2   0.674905 0.384200 0.390983 0.621715
C94   C     C_2   0.898607 0.225252 0.174164 0.631735
C95   C     C_2   0.150932 0.241371 0.804846 0.461700
C96   C     C_2   0.398617 0.725256 0.174155 0.631628
C97   C     C_2   0.650771 0.741273 0.804843 0.461483
C98   C     C_2   0.848160 0.416929 0.831718 0.659728
C99   C     C_2   0.134375 0.416320 0.187834 0.648307
C100  C     C_2   0.348211 0.916914 0.831656 0.659819
Cl1   Cl    Cl    0.816684 0.753971 0.127668 -0.457600
Cl2   Cl    Cl    0.028112 0.844086 0.619935 -0.523261
Cl3   Cl    Cl    0.211544 0.055937 0.487442 -0.580822
Cl4   Cl    Cl    0.528146 0.344107 0.619868 -0.523019
Cl5   Cl    Cl    0.700537 0.684064 0.371707 -0.421740
Cl6   Cl    Cl    0.015903 0.704496 0.521256 -0.330905
Cl7   Cl    Cl    0.200597 0.183723 0.371883 -0.421902
Cl8   Cl    Cl    0.515874 0.204483 0.521297 -0.330779
Cl9   Cl    Cl    0.857916 0.146357 0.953287 -0.507775
Cl10  Cl    Cl    0.124547 0.131675 0.096427 -0.534335
Cl11  Cl    Cl    0.358020 0.646319 0.953078 -0.508206
Cl12  Cl    Cl    0.197441 0.742399 0.854166 -0.553169
Cl13  Cl    Cl    0.624534 0.631813 0.096506 -0.534311
Cl14  Cl    Cl    0.979978 0.586060 0.334910 -0.481057
Cl15  Cl    Cl    0.014067 0.579261 0.674019 -0.494755
Cl16  Cl    Cl    0.480005 0.086055 0.334880 -0.481014
Cl17  Cl    Cl    0.514076 0.079258 0.674012 -0.494755
Cl18  Cl    Cl    0.966428 0.785154 0.126420 -0.459087
Cl19  Cl    Cl    0.038793 0.786669 0.873404 -0.385797
Cl20  Cl    Cl    0.466367 0.285175 0.126446 -0.459255
Cl21  Cl    Cl    0.538785 0.286666 0.873420 -0.385922
Cl22  Cl    Cl    0.872415 0.440476 0.422304 -0.493549
Cl23  Cl    Cl    0.316554 0.253878 0.127854 -0.457856
Cl24  Cl    Cl    0.159716 0.462118 0.570209 -0.498119
Cl25  Cl    Cl    0.372619 0.940372 0.422218 -0.493427
Cl26  Cl    Cl    0.659751 0.962141 0.570203 -0.498087
Cl27  Cl    Cl    0.697429 0.242417 0.854203 -0.553203
Cl28  Cl    Cl    0.579981 0.775899 0.585133 -0.416519
Cl29  Cl    Cl    0.173761 0.750773 0.294183 -0.527533
Cl30  Cl    Cl    0.080079 0.275750 0.585150 -0.416266
Cl31  Cl    Cl    0.673746 0.250667 0.294193 -0.527505
Cl32  Cl    Cl    0.711385 0.556058 0.487073 -0.580865
H1    H     H_    0.340733 0.397148 0.512953 0.158860
H2    H     H_    0.118055 0.244084 0.981338 0.173257
H3    H     H_    0.339484 0.762549 0.079588 0.174107
H4    H     H_    0.618271 0.744123 0.981086 0.173153
H5    H     H_    0.810381 0.551831 0.910797 0.153356
H6    H     H_    0.182506 0.555037 0.101284 0.162043
H7    H     H_    0.310378 0.051802 0.910809 0.153335
H8    H     H_    0.682432 0.055101 0.101411 0.162150
H9    H     H_    0.439656 0.325854 0.341012 0.181715
H10   H     H_    0.745586 0.224586 0.644877 0.191540
H11   H     H_    0.939684 0.825748 0.341160 0.181687
H12   H     H_    0.862206 0.276903 0.470747 0.188735
H13   H     H_    0.245621 0.724494 0.644833 0.191512
H14   H     H_    0.623235 0.622635 0.713519 0.052032
H15   H     H_    0.179237 0.916900 0.446198 0.108235
H16   H     H_    0.123432 0.122566 0.713598 0.052147
H17   H     H_    0.679444 0.416832 0.445942 0.108125
H18   H     H_    0.862734 0.177855 0.230235 0.090758
H19   H     H_    0.095333 0.208498 0.866690 0.091496
H20   H     H_    0.362720 0.677858 0.230211 0.090705
H21   H     H_    0.595144 0.708487 0.866799 0.091808
H22   H     H_    0.894958 0.457537 0.771563 0.086373
H23   H     H_    0.840733 0.897016 0.513115 0.158843
H24   H     H_    0.097430 0.467124 0.232624 0.073746
H25   H     H_    0.394986 0.957554 0.771540 0.086361
H26   H     H_    0.597393 0.967007 0.232687 0.073883
H27   H     H_    0.362244 0.776820 0.470705 0.188762
H28   H     H_    0.199799 0.797987 0.008638 0.205519
H29   H     H_    0.780581 0.793950 0.004603 0.189980
H30   H     H_    0.699741 0.298032 0.008707 0.205542
H31   H     H_    0.280384 0.293944 0.004888 0.189819
H32   H     H_    0.839404 0.262610 0.079709 0.174151
N1    N     N_R   0.908660 0.628630 0.995840 -0.096854
N2    N     N_R   0.096530 0.421430 0.063580 -0.086615
N3    N     N_R   0.403470 0.921430 0.936420 -0.083503
N4    N     N_R   0.596530 0.921430 0.063580 -0.086676
N5    N     N_R   0.927500 0.575670 0.211370 -0.127298
N6    N     N_R   0.072500 0.575670 0.788630 -0.141452
N7    N     N_R   0.427500 0.075670 0.211370 -0.127273
N8    N     N_R   0.572500 0.075670 0.788630 -0.141429
N9    N     N_R   0.908660 0.365680 0.995820 -0.061213
N10   N     N_R   0.091340 0.365680 0.004180 -0.062410
N11   N     N_R   0.408660 0.865680 0.995820 -0.061213
N12   N     N_R   0.091340 0.628630 0.004160 -0.093552
N13   N     N_R   0.591340 0.865680 0.004180 -0.062428
N14   N     N_R   0.922310 0.631420 0.151980 -0.121001
N15   N     N_R   0.077690 0.631420 0.848020 -0.132422
N16   N     N_R   0.422310 0.131420 0.151980 -0.120926
N17   N     N_R   0.577690 0.131420 0.848020 -0.132405
N18   N     N_R   0.927500 0.426330 0.211360 -0.102389
N19   N     N_R   0.072500 0.426330 0.788640 -0.099507
N20   N     N_R   0.427500 0.926330 0.211360 -0.102380
N21   N     N_R   0.572500 0.926330 0.788640 -0.099546
N22   N     N_R   0.903470 0.570760 0.936440 -0.085745
N23   N     N_R   0.408660 0.128630 0.995840 -0.096824
N24   N     N_R   0.096530 0.570760 0.063560 -0.095439
N25   N     N_R   0.403470 0.070760 0.936440 -0.085763
N26   N     N_R   0.596530 0.070760 0.063560 -0.095467
N27   N     N_R   0.591340 0.128630 0.004160 -0.093585
N28   N     N_R   0.922310 0.368460 0.151950 -0.070853
N29   N     N_R   0.077690 0.368460 0.848050 -0.096240
N30   N     N_R   0.422310 0.868460 0.151950 -0.070813
N31   N     N_R   0.577690 0.868460 0.848050 -0.096286
N32   N     N_R   0.903470 0.421430 0.936420 -0.083515
Ni1   Ni    Ni4+2 0.000000 0.630300 0.000000 0.351747
Ni2   Ni    Ni4+2 0.500000 0.130300 0.000000 0.351757
Ni3   Ni    Ni4+2 0.000000 0.369700 0.000000 0.269991
Ni4   Ni    Ni4+2 0.500000 0.869700 0.000000 0.269962
Ni5   Ni    Ni4+2 0.988090 0.497570 0.863760 0.284932
Ni6   Ni    Ni4+2 0.011910 0.497570 0.136240 0.269777
Ni7   Ni    Ni4+2 0.488090 0.997570 0.863760 0.284921
Ni8   Ni    Ni4+2 0.511910 0.997570 0.136240 0.269839
O1    O     O_2   0.520598 0.634769 0.722757 -0.420021
O2    O     O_2   0.171666 0.382052 0.215201 -0.426709
O3    O     O_2   0.295320 0.891506 0.824183 -0.452097
O4    O     O_2   0.672226 0.882299 0.214610 -0.426628
O5    O     O_2   0.181145 0.918181 0.318125 -0.480529
O6    O     O_2   0.020646 0.134923 0.723218 -0.420071
O7    O     O_2   0.680909 0.418113 0.318207 -0.480407
O8    O     O_2   0.953890 0.210395 0.079183 -0.576440
O9    O     O_2   0.220580 0.211611 0.756498 -0.500400
O10   O     O_2   0.453943 0.710401 0.079186 -0.576549
O11   O     O_2   0.720374 0.711388 0.756373 -0.500467
O12   O     O_2   0.795230 0.391553 0.824296 -0.452138

loop_
_geom_bond_atom_site_label_1
_geom_bond_atom_site_label_2
_ccdc_geom_bond_type
C13   N12   A    
C83   C87   A    
C21   C26   A    
C98   H22   S    
C94   O8    D    
C69   H2    S    
N20   Ni8   S    
N9    Ni3   S    
N5    N14   A    
C11   C47   S    
N27   Ni2   S    
C72   N14   A    
C40   C93   S    
C12   C48   S    
C60   C99   S    
N26   Ni8   S    
C49   Cl4   S    
C46   C76   A    
C7    C73   A    
C83   N25   A    
C28   C57   S    
N25   Ni7   S    
C6    C72   A    
C65   Cl16  S    
C29   C36   A    
C72   Cl18  S    
N10   Ni3   S    
N26   N27   A    
C65   N7    A    
C43   N30   A    
C73   Cl19  S    
C3    O4    D    
C66   N8    A    
C68   C78   A    
C13   Cl12  S    
C10   C15   A    
C14   C36   A    
C2    C60   A    
C63   N5    A    
C48   Cl7   S    
C92   H16   S    
C20   C25   A    
N17   Ni2   S    
C27   H27   S    
N4    N13   A    
C96   H20   S    
C56   H30   S    
C96   O10   D    
C44   C97   S    
N2    Ni6   S    
N28   Ni3   S    
N7    Ni8   S    
C14   C18   A    
C9    C66   A    
N6    Ni5   S    
N19   N29   A    
N5    Ni6   S    
C63   Cl14  S    
C92   O6    D    
N8    N17   A    
C89   O1    D    
C52   C54   D    
C43   C68   A    
C66   Cl17  S    
C13   C86   A    
C93   O7    D    
C3    H26   S    
C35   N27   A    
C41   C46   A    
C31   C33   A    
C84   N26   A    
C97   H21   S    
C2    C69   A    
C70   N11   A    
N12   Ni1   S    
C18   C20   A    
C50   C88   S    
C37   Cl28  S    
C56   C90   S    
C6    C15   S    
C28   C34   A    
C8    C65   A    
C19   H9    S    
C64   Cl15  S    
N18   Ni6   S    
C25   C29   A    
C26   H23   S    
C89   H14   S    
N18   N28   A    
N21   N31   A    
C76   N18   A    
C58   H31   S    
C100  H25   S    
C42   C57   A    
C4    C70   A    
C45   Cl5   S    
C100  O3    D    
C53   Cl13  S    
N12   N24   A    
C49   Cl8   S    
C61   C100  S    
C53   C55   D    
C1    C85   A    
C31   C68   S    
C7    C64   A    
N30   Ni4   S    
N2    N10   A    
C32   C37   S    
C23   H1    S    
C99   O2    D    
C27   C31   A    
C42   C95   S    
N19   Ni5   S    
C38   Cl29  S    
C20   H10   S    
C36   C40   S    
C21   H11   S    
C51   C87   S    
C71   H4    S    
C17   C19   A    
N15   Ni1   S    
C52   Cl11  S    
N29   Ni3   S    
C48   Cl3   S    
C38   C91   S    
N13   Ni4   S    
C67   C90   A    
C50   C56   D    
C91   H15   S    
N4    Ni8   S    
N22   Ni5   S    
C82   N24   A    
C61   N3    A    
C59   C90   A    
C6    C63   A    
C12   C17   A    
C42   N29   A    
C19   C23   A    
N1    Ni1   S    
C43   C96   S    
C35   C88   A    
C41   C94   S    
C22   H13   S    
C1    N1    A    
C80   N21   A    
C47   Cl6   S    
C99   H24   S    
N9    N32   A    
C8    C74   A    
C93   H17   S    
C50   Cl9   S    
C51   C58   D    
C23   C28   A    
C35   Cl27  S    
C55   H29   S    
C38   C47   S    
C30   C79   S    
C7    C16   S    
N14   Ni1   S    
C26   C30   A    
C51   Cl10  S    
N3    Ni7   S    
C22   C27   A    
C24   N23   A    
C83   H7    S    
C95   O9    D    
N8    Ni7   S    
N7    N16   A    
C25   H12   S    
C95   H19   S    
C69   N10   A    
C12   C34   A    
C91   O5    D    
C75   N17   A    
C1    Cl1   S    
C39   C92   S    
C47   Cl2   S    
C14   C49   S    
N3    N11   A    
N31   Ni4   S    
C3    C62   S    
C98   O12   D    
C44   N31   A    
C16   C22   A    
C41   N28   A    
C4    C54   S    
C81   N22   A    
C75   Cl21  S    
C5    C55   S    
C44   C79   A    
C84   C88   A    
C34   C39   S    
C39   Cl30  S    
C59   N32   A    
C94   H18   S    
C74   Cl20  S    
C29   C46   S    
C8    C17   S    
C37   C89   S    
N6    N15   A    
C76   Cl22  S    
N21   Ni7   S    
C57   C77   A    
C52   C86   S    
C40   Cl31  S    
C77   Cl24  S    
C82   C86   A    
C82   H6    S    
C30   C32   A    
C67   H32   S    
C71   N13   A    
C62   N4    A    
C70   H3    S    
C80   Cl26  S    
C67   N9    A    
N20   N30   A    
N23   Ni2   S    
C4    C61   A    
N24   Ni6   S    
C77   N19   A    
C5    C62   A    
C78   N20   A    
C24   Cl23  S    
C64   N6    A    
C2    C58   S    
C24   C87   A    
C60   N2    A    
N11   Ni4   S    
N23   N25   A    
C11   C16   A    
N16   Ni2   S    
C54   H28   S    
C79   C80   A    
C73   N15   A    
C10   C32   A    
C9    C18   S    
C15   C21   A    
C74   N16   A    
C84   H8    S    
C45   Cl32  S    
C5    C71   A    
C97   O11   D    
C10   C45   S    
C11   C33   A    
C81   H5    S    
C59   C98   S    
C33   C38   S    
C53   C85   S    
C9    C75   A    
N32   Ni5   S    
C78   Cl25  S    
C37   C45   S    
C81   C85   A    
C40   C49   S    
N1    N22   A    
C39   C48   S    
