data_mof_unit_5721.cif
_audit_creation_date              2012-12-10T17:10:59-0500
_audit_creation_method            fapswitch 2.2
_symmetry_space_group_name_H-M    P1
_symmetry_Int_Tables_number       1
_space_group_crystal_system       triclinic
_cell_length_a                    11.709184
_cell_length_b                    13.019864
_cell_length_c                    13.416636
_cell_angle_alpha                 93.107844
_cell_angle_beta                  76.018273
_cell_angle_gamma                 99.638063
_cell_volume                      1956.57574283

loop_
_atom_site_label
_atom_site_type_symbol
_atom_type_description
_atom_site_fract_x
_atom_site_fract_y
_atom_site_fract_z
_atom_type_partial_charge
C1    C     C_R   0.521548 0.700024 0.498636 0.827710
C2    C     C_R   0.451961 0.460224 0.972819 -0.045971
C3    C     C_R   0.486610 0.449298 0.864201 -0.106011
C4    C     C_R   0.542505 0.479510 0.029518 -0.083150
C5    C     C_R   0.659861 0.462412 0.980737 -0.203238
C6    C     C_R   0.686891 0.433249 0.877668 -0.203085
C7    C     C_R   0.602345 0.426042 0.820374 0.596406
C8    C     C_R   0.521923 0.516711 0.132168 0.422602
C9    C     C_R   0.721992 0.494295 0.140781 0.314826
C10   C     C_R   0.400734 0.452435 0.805056 -0.093854
C11   C     C_R   0.466964 0.184682 0.506980 -0.314858
C12   C     C_R   0.436249 0.481436 0.694581 0.837369
C13   C     C_R   0.535357 0.811791 0.490078 -0.182474
C14   C     C_R   0.644970 0.972741 0.412924 -0.217832
C15   C     C_R   0.636885 0.866403 0.425352 0.559459
C16   C     C_R   0.441649 0.862904 0.540605 -0.230768
C17   C     C_R   0.450555 0.969998 0.530869 -0.076893
C18   C     C_R   0.554539 0.026160 0.468908 -0.111455
C19   C     C_R   0.567546 0.135140 0.467368 0.369157
C20   C     C_R   0.358883 0.126567 0.561180 0.302502
C21   C     C_R   0.356859 0.021185 0.582063 0.487111
C22   C     C_R   0.947859 0.609951 0.582560 -0.287142
C23   C     C_R   0.479041 0.298847 0.500161 0.918242
C24   C     C_R   0.827907 0.595446 0.578945 0.124982
C25   C     C_R   0.858746 0.459470 0.456305 0.095861
C26   C     C_R   0.979722 0.467400 0.461259 -0.120318
C27   C     C_R   0.023201 0.540325 0.529994 -0.092625
C28   C     C_R   0.141786 0.543661 0.541828 0.563171
C29   C     C_R   0.176212 0.414924 0.409722 -0.049653
C30   C     C_R   0.057863 0.406219 0.397924 0.315120
C31   C     C_R   0.564693 0.507413 0.303892 0.880798
C32   C     C_R   0.748682 0.471755 0.035977 0.551673
C33   C     C_R   0.604786 0.508227 0.190993 -0.398388
C34   C     C_R   0.279968 0.428556 0.854129 -0.280779
C35   C     C_R   0.244524 0.420140 0.960186 -0.248405
C36   C     C_R   0.328282 0.439309 0.019903 0.654606
Cu1   Cu    Cu3+1 0.386470 0.492430 0.492410 0.994927
Cu2   Cu    Cu3+1 0.613530 0.507570 0.507590 1.013811
H1    H     H_    0.721449 0.012685 0.358707 0.179082
H2    H     H_    0.361471 0.818720 0.586758 0.239693
H3    H     H_    0.238028 0.370913 0.359614 0.179451
H4    H     H_    0.980073 0.675078 0.627375 0.163698
H5    H     H_    0.770122 0.647000 0.622654 0.120326
H6    H     H_    0.773950 0.414023 0.840687 0.207535
H7    H     H_    0.823503 0.405694 0.402694 0.194007
H8    H     H_    0.212783 0.411728 0.810591 0.181755
H9    H     H_    0.150969 0.398174 0.996406 0.190091
N1    N     N_R   0.215880 0.481050 0.481000 -0.245362
N2    N     N_R   0.784100 0.518950 0.519000 -0.177697
O1    O     O_R   0.419710 0.645650 0.494620 -0.555459
O2    O     O_R   0.611450 0.658430 0.507430 -0.566050
O3    O     O_R   0.357340 0.490460 0.641450 -0.580065
O4    O     O_R   0.549080 0.503250 0.654260 -0.539578
O5    O     O_R   0.388550 0.341570 0.492570 -0.572217
O6    O     O_R   0.580290 0.354350 0.505380 -0.532926
O7    O     O_R   0.450920 0.496750 0.345740 -0.545863
O8    O     O_R   0.642660 0.509540 0.358550 -0.567837
O9    O     O_3   0.810489 0.497871 0.193713 -0.538307
C37   C     C_3   0.859195 0.603121 0.210104 0.165983
H10   H     H_    0.866843 0.612440 0.291165 0.183920
H11   H     H_    0.802866 0.661195 0.199614 0.103185
C38   C     C_3   0.983585 0.631125 0.139710 -0.447264
H12   H     H_    0.978417 0.620741 0.058127 0.248111
H13   H     H_    0.017997 0.714497 0.152271 0.181088
C39   C     C_3   0.070510 0.564808 0.161155 -0.597384
H14   H     H_    0.080002 0.577465 0.241494 0.234637
H15   H     H_    0.159072 0.587210 0.108152 0.221508
H16   H     H_    0.038853 0.480948 0.148784 0.312546
O10   O     O_3   0.262020 0.178187 0.599993 -0.589296
C40   C     C_3   0.150336 0.120131 0.591985 0.158642
H17   H     H_    0.086650 0.176561 0.604712 0.131095
H18   H     H_    0.114611 0.064062 0.655608 0.207911
C41   C     C_3   0.149431 0.066955 0.486222 -0.422135
H19   H     H_    0.182405 0.126347 0.425490 0.208536
H20   H     H_    0.208295 0.006800 0.468548 0.230517
C42   C     C_3   0.024536 0.012384 0.483492 -0.893786
H21   H     H_    0.994472 0.949343 0.541027 0.272970
H22   H     H_    0.023869 0.977560 0.406265 0.270819
H23   H     H_    0.962017 0.069118 0.501213 0.234372
F1    F     F_    0.263394 0.967610 0.649916 -0.699511
F2    F     F_    0.725428 0.816225 0.370906 -0.702079
O11   O     O_3   0.188300 0.618172 0.605526 -0.570547
C43   C     C_3   0.134158 0.596356 0.710394 0.062828
H24   H     H_    0.168128 0.531103 0.734812 0.170074
H25   H     H_    0.036163 0.571961 0.727137 0.094599
C44   C     C_3   0.160069 0.692868 0.776724 -0.326259
H26   H     H_    0.146503 0.762932 0.739950 0.255934
H27   H     H_    0.096264 0.684564 0.853170 0.176523
C45   C     C_3   0.286623 0.708352 0.792825 -0.767380
H28   H     H_    0.294815 0.647836 0.844661 0.230426
H29   H     H_    0.306760 0.785882 0.828989 0.243462
H30   H     H_    0.352956 0.703848 0.718788 0.258148
O12   O     O_3   0.023346 0.352473 0.314954 -0.589887
C46   C     C_3   0.035046 0.245941 0.313009 0.022529
H31   H     H_    0.947002 0.200030 0.310091 0.182242
H32   H     H_    0.058037 0.220466 0.382439 0.109195
C47   C     C_3   0.125839 0.220986 0.215499 -0.256109
H33   H     H_    0.106325 0.254698 0.148216 0.259066
H34   H     H_    0.216978 0.256122 0.221646 0.247246
C48   C     C_3   0.122261 0.103901 0.197259 -0.941207
H35   H     H_    0.151565 0.069248 0.258615 0.258248
H36   H     H_    0.183831 0.089630 0.122619 0.268261
H37   H     H_    0.030884 0.065199 0.194874 0.266273
F3    F     F_    0.860685 0.454675 0.989094 -0.680884
O13   O     O_3   0.422873 0.563587 0.174654 -0.524419
C49   C     C_3   0.458069 0.672671 0.180204 0.053912
H38   H     H_    0.482815 0.705550 0.101568 0.129891
H39   H     H_    0.535118 0.693751 0.216646 0.128738
C50   C     C_3   0.353745 0.721196 0.245367 -0.292349
H40   H     H_    0.277259 0.705129 0.208499 0.215222
H41   H     H_    0.325713 0.685532 0.322688 0.247797
C51   C     C_3   0.387180 0.838863 0.257464 -0.913725
H42   H     H_    0.463242 0.857212 0.294730 0.264996
H43   H     H_    0.309982 0.871155 0.306269 0.257743
H44   H     H_    0.411910 0.876533 0.181246 0.256471
F4    F     F_    0.287372 0.421219 0.121723 -0.671156
F5    F     F_    0.630400 0.380348 0.726885 -0.686293
O14   O     O_3   0.678762 0.195355 0.433050 -0.590544
C52   C     C_3   0.758792 0.183397 0.495317 0.055507
H45   H     H_    0.830604 0.251457 0.481674 0.166577
H46   H     H_    0.803584 0.115515 0.468691 0.116514
C53   C     C_3   0.704015 0.175563 0.612278 -0.335228
H47   H     H_    0.633445 0.224649 0.634837 0.291121
H48   H     H_    0.662037 0.093847 0.631790 0.193335
C54   C     C_3   0.797652 0.208681 0.674538 -0.828773
H49   H     H_    0.865892 0.156465 0.656734 0.222858
H50   H     H_    0.754255 0.203620 0.757801 0.269990
H51   H     H_    0.841523 0.290366 0.657260 0.266936

loop_
_geom_bond_atom_site_label_1
_geom_bond_atom_site_label_2
_ccdc_geom_bond_type
O12   C46   S    
C41   H19   S    
C14   C18   A    
C35   C36   A    
C42   H23   S    
C4    C8    A    
C35   H9    S    
C8    O13   S    
C51   H43   S    
C47   H33   S    
C15   F2    S    
Cu2   N2    S    
C11   C19   A    
C26   C27   A    
C38   H12   S    
Cu1   Cu2   S    
C42   H22   S    
C34   C35   A    
C30   O12   S    
C3    C7    A    
C50   H41   S    
C5    C6    A    
C44   H27   S    
C49   H38   S    
C9    O9    S    
C7    F5    S    
O14   C52   S    
C38   H13   S    
C9    C32   A    
C12   O3    A    
C14   H1    S    
Cu1   O7    S    
Cu2   O6    S    
C19   O14   S    
C16   C17   A    
C39   H15   S    
C54   H51   S    
C31   C33   S    
C40   H17   S    
C34   H8    S    
C31   O7    A    
C45   H29   S    
C1    O1    A    
C12   O4    A    
C5    C32   A    
C32   F3    S    
C37   H10   S    
C6    H6    S    
C9    C33   A    
C41   H20   S    
C46   H31   S    
C51   H42   S    
C47   H34   S    
C52   H46   S    
C11   C20   A    
C37   H11   S    
C29   N1    A    
C28   O11   S    
C42   H21   S    
C50   C51   S    
C45   H28   S    
Cu1   O3    S    
C44   H26   S    
C18   C19   A    
Cu2   O2    S    
C46   C47   S    
O9    C37   S    
C48   H37   S    
C17   C21   A    
Cu1   N1    S    
C2    C4    A    
C29   C30   A    
Cu2   O8    S    
C43   H24   S    
C39   H16   S    
C40   C41   S    
C48   H36   S    
C17   C18   A    
C10   C34   A    
C45   H30   S    
C46   H32   S    
C1    O2    A    
C10   C12   S    
C16   H2    S    
Cu1   O5    S    
C43   H25   S    
C26   C30   A    
C22   C27   A    
C13   C15   A    
C54   H49   S    
C41   C42   S    
C22   C24   A    
C20   O10   S    
C1    C13   S    
C53   H48   S    
C36   F4    S    
C25   H7    S    
C47   C48   S    
C23   O5    A    
C52   C53   S    
C2    C36   A    
C24   N2    A    
C28   N1    A    
C37   C38   S    
C38   C39   S    
C29   H3    S    
C4    C5    A    
C44   C45   S    
C52   H45   S    
C23   O6    A    
C6    C7    A    
O13   C49   S    
C31   O8    A    
C53   C54   S    
C2    C3    A    
C25   C26   A    
C3    C10   A    
C50   H40   S    
Cu1   O1    S    
C22   H4    S    
Cu2   O4    S    
C49   H39   S    
C21   F1    S    
C11   C23   S    
C48   H35   S    
C8    C33   A    
C39   H14   S    
O10   C40   S    
C25   N2    A    
C43   C44   S    
C20   C21   A    
O11   C43   S    
C13   C16   A    
C27   C28   A    
C54   H50   S    
C24   H5    S    
C14   C15   A    
C40   H18   S    
C53   H47   S    
C51   H44   S    
C49   C50   S    
