data_mof_unit_19686.cif
_audit_creation_date              2012-12-11T16:22:14-0500
_audit_creation_method            fapswitch 2.2
_symmetry_space_group_name_H-M    P1
_symmetry_Int_Tables_number       1
_space_group_crystal_system       triclinic
_cell_length_a                    13.470994
_cell_length_b                    14.07639
_cell_length_c                    30.057001
_cell_angle_alpha                 97.865539
_cell_angle_beta                  90.344949
_cell_angle_gamma                 118.610152
_cell_volume                      4939.70000962

loop_
_atom_site_label
_atom_site_type_symbol
_atom_type_description
_atom_site_fract_x
_atom_site_fract_y
_atom_site_fract_z
_atom_type_partial_charge
C1    C     C_R   0.721681 0.099139 0.568970 0.546063
C2    C     C_1   0.351545 0.645405 0.760248 -0.054025
C3    C     C_3   0.306160 0.424715 0.277771 0.010723
C4    C     C_3   0.226512 0.421849 0.314497 -0.273442
C5    C     C_3   0.137737 0.304466 0.317897 -0.475989
C6    C     C_3   0.046697 0.989844 0.083283 0.021488
C7    C     C_3   0.990418 0.869351 0.089409 -0.271080
C8    C     C_3   0.870578 0.830241 0.104123 -0.491512
C9    C     C_3   0.568486 0.652917 0.782127 0.022607
C10   C     C_3   0.512233 0.533235 0.758576 -0.270600
C11   C     C_3   0.557988 0.522792 0.712865 -0.486246
C12   C     C_3   0.049350 0.924942 0.726347 0.011656
C13   C     C_1   0.351230 0.652620 0.720977 -0.060711
C14   C     C_3   0.931683 0.849603 0.740280 -0.262757
C15   C     C_3   0.849005 0.780040 0.699278 -0.500344
C16   C     C_R   0.384208 0.788861 0.551030 0.543543
C17   C     C_R   0.297868 0.593563 0.895363 -0.016336
C18   C     C_3   0.234307 0.161603 0.724074 -0.140405
C19   C     C_3   0.222338 0.074610 0.753030 0.293444
C20   C     C_1   0.295699 0.197931 0.876797 -0.003000
C21   C     C_1   0.366500 0.133887 0.614394 -0.006116
C22   C     C_3   0.323860 0.252382 0.760498 -0.149788
C23   C     C_3   0.310776 0.164425 0.788830 0.033687
C24   C     C_R   0.352910 0.667833 0.675012 0.036355
C25   C     C_3   0.420294 0.239917 0.737101 -0.156443
C26   C     C_3   0.330792 0.148525 0.701378 0.029388
C27   C     C_3   0.407662 0.152910 0.766401 -0.137011
C28   C     C_R   0.397877 0.118194 0.569792 0.546160
C29   C     C_3   0.318085 0.062153 0.730501 0.303288
C30   C     C_1   0.302466 0.178181 0.837233 -0.026786
C31   C     C_1   0.347063 0.141639 0.653306 -0.030496
C32   C     C_3   0.920971 0.272396 0.732718 -0.108758
C33   C     C_3   0.829846 0.262377 0.765816 -0.111457
C34   C     C_1   0.899483 0.205638 0.877710 -0.015380
C35   C     C_R   0.256036 0.656041 0.652014 -0.103548
C36   C     C_1   0.774503 0.133739 0.613831 -0.019221
C37   C     C_3   0.947705 0.196399 0.757357 -0.096454
C38   C     C_3   0.855972 0.186140 0.789586 0.051748
C39   C     C_3   0.856677 0.094552 0.725603 -0.097646
C40   C     C_R   0.719590 0.094823 0.442662 0.540897
C41   C     C_3   0.830326 0.170636 0.701778 0.053319
C42   C     C_3   0.765554 0.084581 0.758540 -0.099954
C43   C     C_3   0.738955 0.160612 0.734056 -0.099729
C44   C     C_1   0.874377 0.195473 0.838250 -0.063249
C45   C     C_1   0.806238 0.154809 0.653140 -0.061469
C46   C     C_R   0.263448 0.688948 0.609818 -0.112083
C47   C     C_3   0.246661 0.662987 0.257694 -0.164909
C48   C     C_3   0.327741 0.746998 0.229018 0.303893
C49   C     C_1   0.310609 0.607846 0.111011 -0.006508
C50   C     C_1   0.366476 0.737658 0.377991 -0.017498
C51   C     C_3   0.261807 0.571597 0.228183 -0.157364
C52   C     C_R   0.382156 0.784546 0.424367 0.543278
C53   C     C_3   0.342670 0.657521 0.200077 0.031071
C54   C     C_3   0.366307 0.599746 0.259880 0.306053
C55   C     C_3   0.351795 0.689607 0.288802 0.018730
C56   C     C_3   0.446978 0.683523 0.231072 -0.105900
C57   C     C_R   0.245319 0.626681 0.824279 -0.165228
C58   C     C_3   0.432122 0.775045 0.260390 -0.112703
C59   C     C_1   0.330252 0.635920 0.151021 -0.019428
C60   C     C_1   0.358140 0.710873 0.337883 -0.039968
C61   C     C_R   0.355450 0.134426 0.401736 0.021563
C62   C     C_R   0.420226 0.234771 0.386283 -0.123253
C63   C     C_R   0.402357 0.244457 0.341936 -0.119399
C64   C     C_R   0.395546 0.114662 0.443252 0.540806
C65   C     C_R   0.318600 0.154767 0.312985 0.026722
C66   C     C_R   0.246603 0.058055 0.329107 -0.126596
C67   C     C_R   0.264801 0.047749 0.373477 -0.129709
C68   C     C_R   0.218916 0.603603 0.867972 0.258396
C69   C     C_R   0.245310 0.091558 0.148087 -0.094785
C70   C     C_R   0.237869 0.108543 0.103472 0.269145
C71   C     C_R   0.399857 0.291884 0.123400 -0.174407
C72   C     C_R   0.403508 0.274983 0.167725 -0.133268
C73   C     C_R   0.323897 0.176371 0.180228 -0.004112
C74   C     C_1   0.318416 0.165294 0.226663 -0.043627
C75   C     C_1   0.315553 0.159085 0.265984 -0.054690
C76   C     C_R   0.367819 0.732971 0.590433 0.024081
C77   C     C_R   0.314472 0.211169 0.091268 0.034196
C78   C     C_R   0.777928 0.131382 0.402087 0.019579
C79   C     C_R   0.402857 0.613390 0.879361 -0.134117
C80   C     C_R   0.801074 0.060163 0.371952 -0.127452
C81   C     C_R   0.828394 0.082093 0.328520 -0.121750
C82   C     C_R   0.833527 0.175466 0.315116 0.031200
C83   C     C_R   0.820040 0.251307 0.345931 -0.118528
C84   C     C_R   0.792793 0.229684 0.389367 -0.128060
C85   C     C_R   0.893670 0.302817 0.167971 -0.119966
C86   C     C_R   0.916588 0.311433 0.123106 -0.130355
C87   C     C_R   0.853327 0.116249 0.107251 -0.131723
C88   C     C_R   0.462764 0.738265 0.612873 -0.123843
C89   C     C_R   0.830197 0.107837 0.152059 -0.113190
C90   C     C_R   0.429776 0.635261 0.835675 0.275744
C91   C     C_R   0.854038 0.201727 0.182634 0.040699
C92   C     C_1   0.847011 0.195487 0.229554 -0.033944
C93   C     C_1   0.842285 0.188079 0.268797 -0.036491
C94   C     C_R   0.901167 0.218964 0.092840 0.022748
C95   C     C_R   0.283937 0.232680 0.922200 0.547780
C96   C     C_R   0.265328 0.545959 0.937434 0.561015
C97   C     C_R   0.945874 0.222425 0.922733 0.545189
C98   C     C_R   0.292905 0.243549 0.049120 0.562696
C99   C     C_R   0.275684 0.558910 0.065020 0.544385
C100  C     C_R   0.455635 0.707651 0.655212 -0.120993
C101  C     C_R   0.345389 0.636389 0.807074 -0.025461
C102  C     C_R   0.954396 0.233285 0.049965 0.536006
C103  C     C_3   0.022800 0.540111 0.855717 0.018228
C104  C     C_3   0.984143 0.619731 0.842857 -0.261696
C105  C     C_3   0.879970 0.561884 0.809038 -0.491607
C106  C     C_3   0.317571 0.907062 0.748509 0.016673
C107  C     C_3   0.439787 0.932053 0.760392 -0.270965
C108  C     C_3   0.460456 0.930749 0.810257 -0.470896
C109  C     C_3   0.240176 0.855669 0.230051 0.015630
C110  C     C_3   0.122487 0.788738 0.204567 -0.268897
C111  C     C_3   0.039608 0.825420 0.223859 -0.498481
Cr1   Cr    Cr6+3 0.583430 0.162610 0.509470 1.018631
Cr2   Cr    Cr6+3 0.584210 0.916680 0.495400 1.020948
Cr3   Cr    Cr6+3 0.332380 0.920740 0.495100 1.022694
Cr4   Cr    Cr6+3 0.086810 0.177030 0.983130 1.043836
Cr5   Cr    Cr6+3 0.337180 0.419300 0.994610 1.018285
Cr6   Cr    Cr6+3 0.084840 0.422330 0.995830 1.041572
H1    H     H_    0.164975 0.166921 0.706388 0.095363
H2    H     H_    0.500551 0.858935 0.274043 0.123371
H3    H     H_    0.527938 0.690239 0.219589 0.113472
H4    H     H_    0.191265 0.489656 0.213590 0.097207
H5    H     H_    0.186941 0.014121 0.158151 0.106827
H6    H     H_    0.180825 0.988811 0.306816 0.098523
H7    H     H_    0.213253 0.969652 0.384534 0.128006
H8    H     H_    0.458974 0.371447 0.115200 0.142888
H9    H     H_    0.458175 0.319760 0.329596 0.116605
H10   H     H_    0.824794 0.324192 0.335721 0.110848
H11   H     H_    0.799047 0.029208 0.163303 0.107963
H12   H     H_    0.503597 0.306314 0.730232 0.118341
H13   H     H_    0.840131 0.043687 0.084604 0.115946
H14   H     H_    0.465020 0.609303 0.900940 0.159601
H15   H     H_    0.531880 0.721048 0.673455 0.092241
H16   H     H_    0.954917 0.479889 0.873668 0.159192
H17   H     H_    0.031592 0.490561 0.825263 0.109757
H18   H     H_    0.963359 0.657730 0.873719 0.183890
H19   H     H_    0.053622 0.686504 0.828097 0.162686
H20   H     H_    0.900391 0.527586 0.777100 0.138784
H21   H     H_    0.852740 0.621435 0.801551 0.149524
H22   H     H_    0.808788 0.494997 0.823100 0.148179
H23   H     H_    0.323719 0.329135 0.774761 0.113405
H24   H     H_    0.264894 0.817512 0.737039 0.143046
H25   H     H_    0.278621 0.925236 0.778922 0.153261
H26   H     H_    0.457870 0.871838 0.739504 0.163993
H27   H     H_    0.501483 0.013126 0.752382 0.168739
H28   H     H_    0.458914 0.001449 0.831133 0.149870
H29   H     H_    0.544505 0.936573 0.816780 0.155454
H30   H     H_    0.394124 0.854076 0.820434 0.168091
H31   H     H_    0.479164 0.154559 0.785565 0.098856
H32   H     H_    0.817262 0.329996 0.783188 0.095915
H33   H     H_    0.271053 0.943419 0.228234 0.168115
H34   H     H_    0.984793 0.349245 0.721613 0.100693
H35   H     H_    0.236646 0.848767 0.266588 0.117083
H36   H     H_    0.129790 0.799001 0.168536 0.176661
H37   H     H_    0.088518 0.700367 0.206352 0.158483
H38   H     H_    0.027744 0.811896 0.259431 0.144808
H39   H     H_    0.956175 0.777049 0.203929 0.150118
H40   H     H_    0.071535 0.913611 0.222210 0.143229
H41   H     H_    0.165268 0.653835 0.269735 0.093048
H42   H     H_    0.342231 0.371584 0.284570 0.161598
H43   H     H_    0.259629 0.389006 0.243827 0.124386
H44   H     H_    0.276868 0.461513 0.347536 0.179636
H45   H     H_    0.654117 0.148186 0.723268 0.107897
H46   H     H_    0.182126 0.467557 0.306793 0.157861
H47   H     H_    0.087828 0.262360 0.284958 0.155487
H48   H     H_    0.079291 0.305380 0.343621 0.162706
H49   H     H_    0.179114 0.258248 0.328232 0.163991
H50   H     H_    0.998507 0.996673 0.054954 0.179115
H51   H     H_    0.039485 0.040618 0.113795 0.111976
H52   H     H_    0.986534 0.818321 0.057075 0.181170
H53   H     H_    0.041338 0.857946 0.115171 0.161366
H54   H     H_    0.872966 0.878424 0.137031 0.141437
H55   H     H_    0.831815 0.742504 0.107932 0.152223
H56   H     H_    0.702273 0.007280 0.769404 0.101737
H57   H     H_    0.817092 0.839185 0.078519 0.149307
H58   H     H_    0.176510 0.626734 0.667638 0.100082
H59   H     H_    0.490006 0.303273 0.407384 0.130846
H60   H     H_    0.465360 0.340629 0.192650 0.133451
H61   H     H_    0.953985 0.391736 0.113040 0.132270
H62   H     H_    0.912202 0.375774 0.191615 0.105160
H63   H     H_    0.776196 0.286467 0.411918 0.127358
H64   H     H_    0.790615 0.984036 0.380799 0.133965
H65   H     H_    0.189332 0.684744 0.593422 0.126691
H66   H     H_    0.839625 0.023472 0.304728 0.108826
H67   H     H_    0.868293 0.026046 0.708385 0.100736
H68   H     H_    0.544857 0.773145 0.599218 0.133751
H69   H     H_    0.661614 0.684247 0.783475 0.149405
H70   H     H_    0.556177 0.709018 0.763169 0.131391
H71   H     H_    0.528739 0.483538 0.780245 0.171333
H72   H     H_    0.419360 0.499408 0.753343 0.162898
H73   H     H_    0.557352 0.582731 0.692756 0.147435
H74   H     H_    0.503732 0.439786 0.693474 0.156268
H75   H     H_    0.645925 0.536376 0.717549 0.141823
H76   H     H_    0.084222 0.874121 0.708569 0.165228
H77   H     H_    0.039833 0.975398 0.702914 0.121334
H78   H     H_    0.186719 0.636225 0.802905 0.108115
H79   H     H_    0.937680 0.794907 0.762292 0.167104
H80   H     H_    0.898575 0.900034 0.759708 0.177936
H81   H     H_    0.843811 0.833003 0.676177 0.145298
H82   H     H_    0.763371 0.730918 0.710489 0.135127
H83   H     H_    0.876397 0.723683 0.680889 0.151552
H84   H     H_    0.033747 0.210827 0.767649 0.118331
O1    O     O_R   0.493980 0.188910 0.559650 -0.509969
O2    O     O_R   0.170560 0.527890 0.952050 -0.446516
O3    O     O_R   0.987620 0.318470 0.945550 -0.497962
O4    O     O_R   0.678640 0.153520 0.554450 -0.493385
O5    O     O_R   0.976400 0.159270 0.031530 -0.535634
O6    O     O_R   0.194000 0.188570 0.028560 -0.460794
O7    O     O_R   0.365260 0.335720 0.039020 -0.528492
O8    O     O_R   0.330440 0.515580 0.044910 -0.499555
O9    O     O_R   0.177310 0.536200 0.050190 -0.509204
O10   O     O_R   0.993870 0.326170 0.036530 -0.504004
O11   O     O_3   0.169610 0.339550 0.991190 -0.258000
O12   O     O_R   0.480180 0.824400 0.444640 -0.490884
O13   O     O_R   0.698130 0.004030 0.549500 -0.513654
O14   O     O_R   0.481060 0.827210 0.535360 -0.506246
O15   O     O_R   0.309260 0.811560 0.537660 -0.512275
O16   O     O_R   0.341620 0.023400 0.546290 -0.490883
O17   O     O_R   0.493030 0.185890 0.461780 -0.519977
O18   O     O_R   0.677760 0.150720 0.463730 -0.503557
O19   O     O_R   0.697180 0.001010 0.451640 -0.516459
O20   O     O_3   0.121625 0.598379 0.886058 -0.535927
O21   O     O_3   0.313845 0.961764 0.712862 -0.575476
O22   O     O_3   0.316967 0.826716 0.208685 -0.556012
O23   O     O_R   0.308310 0.808540 0.439800 -0.515706
O24   O     O_3   0.398543 0.531046 0.278872 -0.569624
O25   O     O_3   0.159278 0.024767 0.071263 -0.554525
O26   O     O_3   0.541792 0.662312 0.827289 -0.575075
O27   O     O_3   0.120397 0.990718 0.765347 -0.578354
O28   O     O_R   0.340740 0.020600 0.455570 -0.503877
O29   O     O_3   0.500010 0.000010 0.499990 -0.242629
O30   O     O_R   0.969650 0.150960 0.933380 -0.499577
O31   O     O_R   0.187740 0.180870 0.937580 -0.485576
O32   O     O_R   0.358510 0.327410 0.940870 -0.511253
O33   O     O_R   0.324180 0.507870 0.953930 -0.518669

loop_
_geom_bond_atom_site_label_1
_geom_bond_atom_site_label_2
_ccdc_geom_bond_type
C63   C65   A    
C4    H44   S    
C28   O16   A    
C104  H18   S    
Cr4   O6    S    
C27   C29   S    
C41   C43   S    
C12   H76   S    
C68   O20   S    
C18   C26   S    
Cr2   O12   S    
C25   H12   S    
C67   H7    S    
Cr3   O28   S    
C46   C76   A    
C81   C82   A    
C85   C91   A    
C7    C8    S    
C39   C41   S    
C20   C30   T    
C85   C86   A    
C21   C31   T    
C37   C38   S    
C90   C101  A    
Cr4   O11   S    
C57   H78   S    
C36   C45   T    
C72   H60   S    
C87   H13   S    
Cr6   O9    S    
C103  H17   S    
Cr1   O4    S    
C11   H75   S    
C11   H74   S    
C99   O8    A    
C64   O28   A    
C78   C80   A    
C102  O10   A    
C12   O27   S    
C24   C100  A    
C106  C107  S    
C87   C94   A    
C22   H23   S    
C17   C79   A    
C34   C97   S    
Cr1   O29   S    
Cr3   O16   S    
C84   H63   S    
C18   C19   S    
C73   C74   S    
C16   O15   A    
C2    C13   T    
C55   C58   S    
C110  C111  S    
C58   H2    S    
C79   C90   A    
C14   H79   S    
C86   C94   A    
C105  H21   S    
C54   C55   S    
C83   C84   A    
C27   H31   S    
C22   C25   S    
Cr5   O32   S    
C97   O30   A    
C10   H71   S    
C107  C108  S    
C57   C68   A    
C69   C73   A    
C99   O9    A    
C5    H48   S    
C89   C91   A    
Cr6   O3    S    
C1    O4    A    
C111  H39   S    
C76   C88   A    
Cr2   O19   S    
Cr4   O30   S    
C39   H67   S    
C109  O22   S    
C8    H54   S    
C108  H30   S    
C28   O1    A    
C61   C62   A    
C66   C67   A    
C79   H14   S    
C26   C31   S    
C82   C93   S    
C18   C22   S    
C55   C60   S    
C40   O19   A    
C70   C77   A    
C3    H42   S    
C56   H3    S    
C98   O7    A    
C29   O21   S    
Cr2   O13   S    
C86   H61   S    
C104  C105  S    
C106  H25   S    
C39   C42   S    
C108  H29   S    
C53   C59   S    
C48   C53   S    
C14   H80   S    
C6    H51   S    
C10   H72   S    
C74   C75   T    
C24   C35   A    
C23   C30   S    
Cr3   O15   S    
C90   O26   S    
Cr2   O29   S    
C109  H35   S    
C34   C44   T    
C95   O31   A    
C9    H69   S    
C91   C92   S    
C15   H81   S    
C80   C81   A    
C47   C51   S    
C2    C101  S    
C80   H64   S    
C25   C26   S    
C32   C37   S    
Cr1   O1    S    
C13   C24   S    
C51   C53   S    
C33   C43   S    
C16   O14   A    
C19   C23   S    
C19   O27   S    
C5    H47   S    
C54   O24   S    
C38   C44   S    
Cr5   O8    S    
C110  H37   S    
C49   C99   S    
C15   H82   S    
C61   C67   A    
C50   C52   S    
C47   C48   S    
C14   C15   S    
Cr6   O10   S    
C85   H62   S    
C62   H59   S    
C62   C63   A    
C4    H46   S    
C77   C98   S    
C9    O26   S    
C17   C96   S    
C88   C100  A    
C5    H49   S    
C1    O13   A    
C102  O5    A    
Cr4   O31   S    
Cr5   O7    S    
C88   H68   S    
C21   C28   S    
C12   C14   S    
C52   O23   A    
C23   C27   S    
C96   O2    A    
C7    H52   S    
C40   O18   A    
C3    H43   S    
C51   H4    S    
C40   C78   S    
C98   O6    A    
C7    H53   S    
C42   C43   S    
C81   H66   S    
C32   C41   S    
C107  H26   S    
C3    C4    S    
C19   C29   S    
C71   C77   A    
C106  H24   S    
C47   C55   S    
C108  H28   S    
C9    C10   S    
C53   C56   S    
C18   H1    S    
C6    H50   S    
C17   C68   A    
C37   H84   S    
C95   O32   A    
C104  H19   S    
C16   C76   S    
C12   H77   S    
C20   C95   S    
Cr6   O11   S    
C43   H45   S    
C70   O25   S    
C83   H10   S    
C72   C73   A    
C9    H70   S    
C42   H56   S    
C65   C75   S    
Cr3   O29   S    
C100  H15   S    
C54   C56   S    
C48   C58   S    
C6    C7    S    
C48   O22   S    
C25   C27   S    
C57   C101  A    
C33   C38   S    
C49   C59   T    
C41   C45   S    
C64   O17   A    
C11   H73   S    
C50   C60   T    
C32   C33   S    
C51   C54   S    
C87   C89   A    
C109  H33   S    
C111  H40   S    
C35   H58   S    
C71   C72   A    
Cr5   O11   S    
C110  H36   S    
Cr1   O17   S    
C109  C110  S    
C103  O20   S    
C61   C64   S    
C15   H83   S    
C46   H65   S    
C106  O21   S    
C32   H34   S    
C69   H5    S    
C6    O25   S    
C92   C93   T    
Cr1   O18   S    
C56   C58   S    
C8    H57   S    
C65   C66   A    
C103  H16   S    
C69   C70   A    
C52   O12   A    
C63   H9    S    
C10   C11   S    
C105  H20   S    
C66   H6    S    
C38   C42   S    
C78   C84   A    
C4    C5    S    
C94   C102  S    
C26   C29   S    
C37   C39   S    
C82   C83   A    
Cr4   O5    S    
Cr5   O33   S    
C103  C104  S    
C96   O33   A    
C22   C23   S    
C71   H8    S    
C33   H32   S    
C97   O3    A    
C105  H22   S    
Cr3   O23   S    
C107  H27   S    
Cr6   O2    S    
C35   C46   A    
C111  H38   S    
Cr2   O14   S    
C89   H11   S    
C3    O24   S    
C8    H55   S    
C1    C36   S    
C47   H41   S    
