data_mof_unit_55237.cif
_audit_creation_date              2012-10-26T17:11:22-0400
_audit_creation_method            fapswitch 2.2
_symmetry_space_group_name_H-M    P1
_symmetry_Int_Tables_number       1
_space_group_crystal_system       triclinic
_cell_length_a                    30.130355
_cell_length_b                    17.08348
_cell_length_c                    17.087317
_cell_angle_alpha                 89.983552
_cell_angle_beta                  62.107239
_cell_angle_gamma                 89.846516
_cell_volume                      7773.53944646

loop_
_atom_site_label
_atom_site_type_symbol
_atom_type_description
_atom_site_fract_x
_atom_site_fract_y
_atom_site_fract_z
_atom_type_partial_charge
C1    C     C_R   0.291826 0.721763 0.333041 0.528380
C2    C     C_R   0.594492 0.999650 0.506720 -0.000732
C3    C     C_R   0.691426 0.716497 0.904012 -0.012006
C4    C     C_R   0.925261 0.904018 0.067950 0.543432
C5    C     C_R   0.074738 0.095983 0.932050 0.543370
C6    C     C_R   0.074879 0.904498 0.931874 0.544073
C7    C     C_R   0.925121 0.095502 0.068126 0.544009
C8    C     C_R   0.425261 0.404018 0.067950 0.543432
C9    C     C_R   0.574738 0.595983 0.932050 0.543370
C10   C     C_R   0.574879 0.404498 0.931874 0.544073
C11   C     C_R   0.425121 0.595502 0.068126 0.544009
C12   C     C_R   0.042898 0.648008 0.512034 -0.018538
C13   C     C_R   0.905548 0.500357 0.493162 -0.000655
C14   C     C_R   0.957154 0.352015 0.487832 -0.017506
C15   C     C_R   0.948829 0.649016 0.513697 -0.024909
C16   C     C_R   0.051229 0.350971 0.486183 -0.027807
C17   C     C_R   0.542898 0.148008 0.512034 -0.018538
C18   C     C_R   0.457154 0.852015 0.487832 -0.017506
C19   C     C_R   0.448828 0.149016 0.513697 -0.024909
C20   C     C_R   0.551229 0.850971 0.486183 -0.027807
C21   C     C_R   0.016940 0.723806 0.517669 0.009974
C22   C     C_R   0.983118 0.276236 0.482173 0.006209
C23   C     C_R   0.969327 0.724836 0.524478 -0.002605
C24   C     C_R   0.094492 0.499650 0.506720 -0.000732
C25   C     C_R   0.030766 0.275158 0.475213 -0.011861
C26   C     C_R   0.516940 0.223806 0.517669 0.009974
C27   C     C_R   0.483118 0.776236 0.482173 0.006209
C28   C     C_R   0.469327 0.224836 0.524478 -0.002605
C29   C     C_R   0.530766 0.775158 0.475213 -0.011861
C30   C     C_R   0.974250 0.574434 0.506243 0.003883
C31   C     C_R   0.025807 0.425572 0.493602 0.005043
C32   C     C_R   0.021399 0.573798 0.507879 0.002138
C33   C     C_R   0.978655 0.426218 0.491967 0.002584
C34   C     C_R   0.474250 0.074434 0.506243 0.003883
C35   C     C_R   0.595228 0.852661 0.495071 -0.029739
C36   C     C_R   0.525807 0.925572 0.493602 0.005043
C37   C     C_R   0.521399 0.073798 0.507879 0.002138
C38   C     C_R   0.478655 0.926218 0.491967 0.002584
C39   C     C_R   0.452711 0.000371 0.497349 0.000297
C40   C     C_R   0.547339 0.999640 0.502507 0.000567
C41   C     C_R   0.952711 0.500371 0.497349 0.000297
C42   C     C_R   0.047339 0.499640 0.502507 0.000567
C43   C     C_R   0.382688 0.926459 0.488092 -0.001832
C44   C     C_R   0.617344 0.073552 0.511813 -0.001711
C45   C     C_R   0.619141 0.925808 0.505682 0.000597
C46   C     C_R   0.404812 0.147333 0.504829 -0.030187
C47   C     C_R   0.380893 0.074193 0.494222 -0.000400
C48   C     C_R   0.882688 0.426459 0.488092 -0.001832
C49   C     C_R   0.117344 0.573551 0.511813 -0.001711
C50   C     C_R   0.119141 0.425808 0.505682 0.000597
C51   C     C_R   0.880893 0.574193 0.494222 -0.000400
C52   C     C_R   0.334238 0.931730 0.482283 -0.016729
C53   C     C_R   0.665787 0.068273 0.517644 -0.016712
C54   C     C_R   0.666618 0.931520 0.514710 -0.015158
C55   C     C_R   0.333406 0.068482 0.485216 -0.015195
C56   C     C_R   0.834238 0.431730 0.482283 -0.016729
C57   C     C_R   0.409678 0.853381 0.489472 -0.025466
C58   C     C_R   0.165787 0.568273 0.517644 -0.016712
C59   C     C_R   0.166618 0.431520 0.514710 -0.015158
C60   C     C_R   0.833406 0.568482 0.485216 -0.015195
C61   C     C_R   0.313404 0.000132 0.480903 -0.191187
C62   C     C_R   0.686625 0.999870 0.519005 -0.191398
C63   C     C_R   0.813404 0.500132 0.480903 -0.191187
C64   C     C_R   0.186625 0.499870 0.519005 -0.191398
C65   C     C_2   0.555325 0.688776 0.445119 0.164978
C66   C     C_2   0.444574 0.310283 0.554823 0.110363
C67   C     C_2   0.463734 0.692846 0.481851 0.078662
C68   C     C_R   0.590358 0.146640 0.510437 -0.025426
C69   C     C_2   0.536310 0.307177 0.518238 0.085384
C70   C     C_2   0.055325 0.188776 0.445119 0.164978
C71   C     C_2   0.944574 0.810283 0.554823 0.110363
C72   C     C_2   0.963734 0.192846 0.481851 0.078662
C73   C     C_2   0.036310 0.807177 0.518238 0.085384
C74   C     C_1   0.612607 0.774221 0.493258 0.290156
C75   C     C_1   0.387407 0.225765 0.506709 0.296914
C76   C     C_1   0.390808 0.775171 0.497630 0.305708
C77   C     C_1   0.609211 0.224856 0.502361 0.305488
C78   C     C_1   0.112607 0.274221 0.493258 0.290156
C79   C     C_R   0.095228 0.352661 0.495071 -0.029739
C80   C     C_1   0.887407 0.725765 0.506709 0.296914
C81   C     C_1   0.890808 0.275171 0.497630 0.305708
C82   C     C_1   0.109211 0.724856 0.502361 0.305488
C83   C     C_1   0.271626 0.764863 0.754905 0.221212
C84   C     C_1   0.728375 0.235142 0.245093 0.221089
C85   C     C_1   0.756470 0.691263 0.218617 0.215264
C86   C     C_1   0.243519 0.308758 0.781390 0.215481
C87   C     C_1   0.771626 0.264863 0.754905 0.221212
C88   C     C_1   0.228375 0.735142 0.245093 0.221089
C89   C     C_1   0.256470 0.191263 0.218617 0.215264
C90   C     C_R   0.904812 0.647333 0.504829 -0.030187
C91   C     C_1   0.743519 0.808758 0.781390 0.215481
C92   C     C_R   0.909678 0.353381 0.489472 -0.025466
C93   C     C_R   0.708174 0.278237 0.666959 0.528464
C94   C     C_R   0.090358 0.646640 0.510437 -0.025426
C95   C     C_R   0.226870 0.779891 0.947892 0.025684
C96   C     C_R   0.773131 0.220110 0.052107 0.025744
C97   C     C_R   0.778393 0.763631 0.046840 0.017811
C98   C     C_R   0.221603 0.236383 0.953161 0.017692
C99   C     C_R   0.726870 0.279891 0.947892 0.025684
C100  C     C_R   0.273131 0.720110 0.052107 0.025744
C101  C     C_R   0.278393 0.263631 0.046840 0.017811
C102  C     C_R   0.721603 0.736383 0.953161 0.017692
C103  C     C_R   0.279045 0.788986 0.919913 -0.084874
C104  C     C_R   0.705106 0.730140 0.669878 0.524966
C105  C     C_R   0.720955 0.211015 0.080086 -0.084996
C106  C     C_R   0.725169 0.754449 0.090197 -0.097190
C107  C     C_R   0.274827 0.245566 0.909803 -0.095993
C108  C     C_R   0.779045 0.288986 0.919913 -0.084874
C109  C     C_R   0.220955 0.711015 0.080086 -0.084996
C110  C     C_R   0.225169 0.254449 0.090197 -0.097190
C111  C     C_R   0.774827 0.745566 0.909803 -0.095993
C112  C     C_R   0.300795 0.761422 0.972164 -0.096277
C113  C     C_R   0.699206 0.238579 0.027835 -0.096462
C114  C     C_R   0.697187 0.751344 0.043845 -0.122814
C115  C     C_R   0.294893 0.269862 0.330122 0.524925
C116  C     C_R   0.302809 0.248671 0.956155 -0.122207
C117  C     C_R   0.800795 0.261422 0.972164 -0.096277
C118  C     C_R   0.199206 0.738579 0.027835 -0.096462
C119  C     C_R   0.197187 0.251344 0.043845 -0.122814
C120  C     C_R   0.802809 0.748671 0.956155 -0.122207
C121  C     C_R   0.150915 0.841483 0.938312 -0.124119
C122  C     C_R   0.849086 0.158518 0.061688 -0.124058
C123  C     C_R   0.852296 0.832791 0.057877 -0.122119
C124  C     C_R   0.147701 0.167215 0.942124 -0.122174
C125  C     C_R   0.650915 0.341483 0.938312 -0.124119
C126  C     C_R   0.791826 0.221763 0.333041 0.528380
C127  C     C_R   0.349085 0.658518 0.061688 -0.124058
C128  C     C_R   0.352296 0.332791 0.057877 -0.122119
C129  C     C_R   0.647702 0.667215 0.942124 -0.122174
C130  C     C_R   0.123126 0.859116 0.891547 -0.021143
C131  C     C_R   0.876874 0.140884 0.108453 -0.021179
C132  C     C_R   0.879191 0.853070 0.105761 -0.021791
C133  C     C_R   0.120808 0.146933 0.894240 -0.021771
C134  C     C_R   0.623126 0.359116 0.891547 -0.021143
C135  C     C_R   0.376874 0.640884 0.108453 -0.021179
C136  C     C_R   0.379191 0.353070 0.105761 -0.021791
C137  C     C_R   0.208174 0.778237 0.666959 0.528464
C138  C     C_R   0.620808 0.646933 0.894240 -0.021771
C139  C     C_R   0.142965 0.836764 0.803863 -0.150534
C140  C     C_R   0.857035 0.163237 0.196137 -0.150649
C141  C     C_R   0.860167 0.828246 0.192680 -0.151590
C142  C     C_R   0.139832 0.171756 0.807320 -0.151451
C143  C     C_R   0.642965 0.336764 0.803863 -0.150534
C144  C     C_R   0.357035 0.663237 0.196137 -0.150649
C145  C     C_R   0.360167 0.328246 0.192680 -0.151590
C146  C     C_R   0.639832 0.671756 0.807320 -0.151451
C147  C     C_R   0.190541 0.803340 0.759261 -0.025431
C148  C     C_R   0.205106 0.230140 0.669878 0.524966
C149  C     C_R   0.809459 0.196662 0.240738 -0.025415
C150  C     C_R   0.817106 0.782430 0.233010 -0.026824
C151  C     C_R   0.182891 0.217575 0.766991 -0.026844
C152  C     C_R   0.690541 0.303340 0.759261 -0.025431
C153  C     C_R   0.309459 0.696662 0.240738 -0.025415
C154  C     C_R   0.317106 0.282430 0.233010 -0.026824
C155  C     C_R   0.682891 0.717575 0.766991 -0.026844
C156  C     C_R   0.220854 0.794231 0.802751 -0.014033
C157  C     C_R   0.779147 0.205771 0.197247 -0.013982
C158  C     C_R   0.793405 0.754304 0.182726 -0.007900
C159  C     C_R   0.794893 0.769862 0.330122 0.524925
C160  C     C_R   0.206590 0.245709 0.817276 -0.008270
C161  C     C_R   0.720854 0.294231 0.802751 -0.014033
C162  C     C_R   0.279147 0.705771 0.197247 -0.013982
C163  C     C_R   0.293405 0.254304 0.182726 -0.007900
C164  C     C_R   0.706590 0.745709 0.817276 -0.008270
C165  C     C_R   0.199432 0.631365 0.518503 0.527325
C166  C     C_R   0.800576 0.368636 0.481471 0.527217
C167  C     C_R   0.800087 0.631445 0.483246 0.528247
C168  C     C_R   0.199921 0.368555 0.516728 0.528364
C169  C     C_R   0.699432 0.131365 0.518503 0.527325
C170  C     C_R   0.405548 0.000357 0.493162 -0.000655
C171  C     C_R   0.300576 0.868636 0.481471 0.527217
C172  C     C_R   0.300087 0.131445 0.483246 0.528247
C173  C     C_R   0.699921 0.868555 0.516728 0.528364
C174  C     C_R   0.200151 0.807931 0.894883 -0.022756
C175  C     C_R   0.799849 0.192071 0.105116 -0.022793
C176  C     C_R   0.808570 0.783514 0.095990 -0.012088
C177  C     C_R   0.191426 0.216497 0.904012 -0.012006
C178  C     C_R   0.700151 0.307931 0.894883 -0.022756
C179  C     C_R   0.299849 0.692071 0.105116 -0.022793
C180  C     C_R   0.308570 0.283514 0.095990 -0.012088
Cu1   Cu    Cu3+1 0.209920 0.785290 0.495070 1.036497
Cu2   Cu    Cu3+1 0.504760 0.500000 0.075850 0.963914
Cu3   Cu    Cu3+1 0.995240 0.000000 0.924150 0.967775
Cu4   Cu    Cu3+1 0.004760 0.000000 0.075850 0.963914
Cu5   Cu    Cu3+1 0.790080 0.214710 0.504930 1.036441
Cu6   Cu    Cu3+1 0.790080 0.785290 0.504930 1.044919
Cu7   Cu    Cu3+1 0.209920 0.214710 0.495070 1.043419
Cu8   Cu    Cu3+1 0.709920 0.285290 0.495070 1.036497
Cu9   Cu    Cu3+1 0.290080 0.714710 0.504930 1.036441
Cu10  Cu    Cu3+1 0.290080 0.285290 0.504930 1.044919
Cu11  Cu    Cu3+1 0.709920 0.714710 0.495070 1.043419
Cu12  Cu    Cu3+1 0.495240 0.500000 0.924150 0.967775
H1    H     H_    0.278045 0.000111 0.478103 0.159517
H2    H     H_    0.340541 0.771011 0.948116 0.116690
H3    H     H_    0.343404 0.252733 0.919250 0.115929
H4    H     H_    0.656592 0.747282 0.080750 0.114370
H5    H     H_    0.303931 0.818416 0.857105 0.127170
H6    H     H_    0.696070 0.181585 0.142894 0.127006
H7    H     H_    0.713220 0.704126 0.131517 0.147881
H8    H     H_    0.286774 0.295889 0.868482 0.148849
H9    H     H_    0.803931 0.318416 0.857105 0.127170
H10   H     H_    0.196070 0.681585 0.142894 0.127006
H11   H     H_    0.213220 0.204126 0.131517 0.147881
H12   H     H_    0.721986 0.999889 0.521799 0.159571
H13   H     H_    0.786774 0.795889 0.868482 0.148849
H14   H     H_    0.134546 0.854932 0.008264 0.143311
H15   H     H_    0.865455 0.145069 0.991736 0.143675
H16   H     H_    0.865029 0.855997 0.991794 0.136831
H17   H     H_    0.134969 0.144010 0.008207 0.136055
H18   H     H_    0.634546 0.354932 0.008264 0.143311
H19   H     H_    0.365455 0.645069 0.991736 0.143675
H20   H     H_    0.365029 0.355996 0.991794 0.136831
H21   H     H_    0.634969 0.644010 0.008207 0.136055
H22   H     H_    0.121083 0.846458 0.769448 0.161657
H23   H     H_    0.778045 0.500112 0.478103 0.159517
H24   H     H_    0.878917 0.153542 0.230552 0.161409
H25   H     H_    0.878594 0.846833 0.230612 0.165217
H26   H     H_    0.121406 0.153165 0.769387 0.165405
H27   H     H_    0.621083 0.346458 0.769448 0.161657
H28   H     H_    0.378917 0.653542 0.230552 0.161409
H29   H     H_    0.378594 0.346833 0.230612 0.165217
H30   H     H_    0.621406 0.653165 0.769387 0.165405
H31   H     H_    0.543711 0.632172 0.423834 0.181159
H32   H     H_    0.456611 0.369932 0.542207 0.281612
H33   H     H_    0.470470 0.635875 0.503344 0.293346
H34   H     H_    0.221986 0.499889 0.521799 0.159571
H35   H     H_    0.529346 0.364505 0.500409 0.277924
H36   H     H_    0.043711 0.132172 0.423834 0.181159
H37   H     H_    0.956611 0.869931 0.542207 0.281612
H38   H     H_    0.970470 0.135875 0.503344 0.293346
H39   H     H_    0.029346 0.864505 0.500409 0.277924
H40   H     H_    0.159460 0.728990 0.051882 0.116460
H41   H     H_    0.840541 0.271011 0.948116 0.116690
H42   H     H_    0.843404 0.752733 0.919250 0.115929
H43   H     H_    0.156592 0.247282 0.080750 0.114370
H44   H     H_    0.659460 0.228990 0.051882 0.116460
N1    N     N_1   0.631703 0.714630 0.490451 -0.123028
N2    N     N_1   0.688155 0.259179 0.283978 -0.238255
N3    N     N_1   0.727383 0.641579 0.247913 -0.265099
N4    N     N_1   0.272601 0.358449 0.752097 -0.260722
N5    N     N_1   0.811846 0.240827 0.716020 -0.237209
N6    N     N_1   0.188155 0.759179 0.283978 -0.238255
N7    N     N_1   0.227383 0.141579 0.247913 -0.265099
N8    N     N_1   0.772601 0.858449 0.752097 -0.260722
N9    N     N_1   0.368323 0.285373 0.509665 -0.115765
N10   N     N_1   0.372038 0.714051 0.505581 -0.145154
N11   N     N_1   0.627976 0.285967 0.494481 -0.145270
N12   N     N_1   0.131703 0.214630 0.490451 -0.123028
N13   N     N_1   0.868323 0.785373 0.509665 -0.115765
N14   N     N_1   0.872038 0.214051 0.505581 -0.145154
N15   N     N_1   0.127976 0.785967 0.494481 -0.145270
N16   N     N_1   0.311846 0.740827 0.716020 -0.237209
O1    O     O_R   0.255040 0.869590 0.478480 -0.493310
O2    O     O_R   0.817950 0.203450 0.375560 -0.511568
O3    O     O_R   0.817950 0.796550 0.375560 -0.505334
O4    O     O_R   0.182050 0.203450 0.624440 -0.504778
O5    O     O_R   0.682050 0.296550 0.624440 -0.511315
O6    O     O_R   0.317950 0.703450 0.375560 -0.511568
O7    O     O_R   0.317950 0.296550 0.375560 -0.505334
O8    O     O_R   0.682050 0.703450 0.624440 -0.504778
O9    O     O_R   0.250530 0.763330 0.367210 -0.483786
O10   O     O_R   0.749470 0.236670 0.632790 -0.483724
O11   O     O_R   0.749470 0.763330 0.632790 -0.488332
O12   O     O_R   0.744960 0.130410 0.521520 -0.493228
O13   O     O_R   0.250530 0.236670 0.367210 -0.488523
O14   O     O_R   0.750530 0.263330 0.367210 -0.483786
O15   O     O_R   0.249470 0.736670 0.632790 -0.483724
O16   O     O_R   0.249470 0.263330 0.632790 -0.488332
O17   O     O_R   0.750530 0.736670 0.367210 -0.488523
O18   O     O_R   0.177260 0.690030 0.513710 -0.523706
O19   O     O_R   0.822740 0.309970 0.486290 -0.523805
O20   O     O_R   0.822740 0.690030 0.486290 -0.526971
O21   O     O_R   0.177260 0.309970 0.513710 -0.525486
O22   O     O_R   0.677260 0.190030 0.513710 -0.523706
O23   O     O_R   0.744960 0.869590 0.521520 -0.490588
O24   O     O_R   0.322740 0.809970 0.486290 -0.523805
O25   O     O_R   0.322740 0.190030 0.486290 -0.526971
O26   O     O_R   0.677260 0.809970 0.513710 -0.525486
O27   O     O_R   0.051640 0.926880 0.885090 -0.503166
O28   O     O_R   0.948360 0.073120 0.114910 -0.503682
O29   O     O_R   0.948360 0.926880 0.114910 -0.499429
O30   O     O_R   0.051640 0.073120 0.885090 -0.499082
O31   O     O_R   0.551640 0.426880 0.885090 -0.503166
O32   O     O_R   0.448360 0.573120 0.114910 -0.503682
O33   O     O_R   0.448360 0.426880 0.114910 -0.499429
O34   O     O_R   0.255040 0.130410 0.478480 -0.490529
O35   O     O_R   0.551640 0.573120 0.885090 -0.499082
O36   O     O_R   0.940620 0.926560 0.986760 -0.509274
O37   O     O_R   0.059380 0.073440 0.013240 -0.510026
O38   O     O_R   0.059380 0.926560 0.013240 -0.506442
O39   O     O_R   0.940620 0.073440 0.986760 -0.506023
O40   O     O_R   0.440620 0.426560 0.986760 -0.509274
O41   O     O_R   0.559380 0.573440 0.013240 -0.510026
O42   O     O_R   0.559380 0.426560 0.013240 -0.506442
O43   O     O_R   0.440620 0.573440 0.986760 -0.506023
O44   O     O_2   0.575382 0.641583 0.469513 -0.510543
O45   O     O_R   0.755040 0.369590 0.478480 -0.493310
O46   O     O_2   0.424928 0.359038 0.531121 -0.585481
O47   O     O_2   0.433385 0.656293 0.547920 -0.561661
O48   O     O_2   0.566718 0.343625 0.452328 -0.557926
O49   O     O_2   0.075382 0.141583 0.469513 -0.510543
O50   O     O_2   0.924928 0.859038 0.531121 -0.585481
O51   O     O_2   0.933384 0.156293 0.547920 -0.561661
O52   O     O_2   0.066718 0.843625 0.452328 -0.557926
O53   O     O_R   0.244960 0.630410 0.521520 -0.493228
O54   O     O_R   0.244960 0.369590 0.521520 -0.490588
O55   O     O_R   0.755040 0.630410 0.478480 -0.490529
O56   O     O_R   0.182050 0.796550 0.624440 -0.511315

loop_
_geom_bond_atom_site_label_1
_geom_bond_atom_site_label_2
_ccdc_geom_bond_type
Cu3   O30   S    
C82   C94   S    
C31   C42   A    
C148  C151  S    
C50   C79   A    
C14   C33   A    
C123  C176  A    
C19   C46   A    
C16   C31   A    
C114  H4    S    
C124  C133  A    
C166  O45   A    
C50   C59   A    
C57   C76   S    
C70   H36   S    
C1    O6    A    
C52   C61   A    
Cu2   O32   S    
C107  H8    S    
C126  C149  S    
C87   N5    T    
C145  H29   S    
C124  H17   S    
Cu7   O13   S    
C68   C77   S    
C103  H5    S    
C58   C165  S    
C131  C140  A    
C134  C143  A    
C13   C51   A    
C116  H3    S    
C44   C53   A    
Cu8   O5    S    
C86   N4    T    
C89   N7    T    
C128  C180  A    
C100  C109  A    
C58   C64   A    
C102  C111  A    
Cu2   Cu12  S    
C11   O32   A    
Cu12  O35   S    
C43   C170  A    
C109  C118  A    
C150  C159  S    
C72   O51   D    
Cu5   O2    S    
C101  C110  A    
C152  C161  A    
C5    O30   A    
C103  C112  A    
C77   N11   T    
C142  C151  A    
C28   C66   S    
Cu3   Cu4   S    
C102  C114  A    
C172  O34   A    
C9    C138  S    
C154  C163  A    
C73   O52   D    
Cu11  O8    S    
C137  O56   A    
C3    C164  A    
C93   O5    A    
C119  H43   S    
Cu3   O36   S    
Cu12  O43   S    
C70   O49   D    
C91   C164  S    
C85   C158  S    
Cu2   O41   S    
C35   C45   A    
C55   C172  S    
C15   C30   A    
C173  O26   A    
C16   C25   A    
C3    C129  A    
C169  O22   A    
Cu3   O27   S    
C18   C38   A    
Cu3   O39   S    
C115  O7    A    
C88   C162  S    
C2    C40   A    
C26   C69   S    
C67   H33   S    
C93   C152  S    
C6    O38   A    
C159  O17   A    
C113  H44   S    
C96   C175  S    
C123  C132  A    
C27   C29   A    
C166  O19   A    
C71   O50   D    
C121  C130  A    
C6    C130  S    
C9    O41   A    
C4    C132  S    
C5    C133  S    
C99   C108  A    
C133  C142  A    
C72   H38   S    
C105  C113  A    
C109  H10   S    
C144  H28   S    
C37   C40   A    
C51   C90   A    
C38   C39   A    
C43   C52   A    
C139  H22   S    
C21   C73   S    
C142  H26   S    
C20   C35   A    
C2    C44   A    
C22   C25   A    
C78   N12   T    
C30   C41   A    
C172  O25   A    
C173  O23   A    
C7    O39   A    
C22   C72   S    
C46   C75   S    
C95   C103  A    
C141  C150  A    
C2    C45   A    
C24   C50   A    
C60   C167  S    
C9    O35   A    
C34   C39   A    
C96   C117  A    
C167  O20   A    
C99   C178  S    
C66   O46   D    
Cu11  O26   S    
C108  H9    S    
C117  H41   S    
C112  H2    S    
C71   H37   S    
C126  O2    A    
C19   C28   A    
Cu12  O31   S    
C62   H12   S    
C124  C177  A    
C29   C65   S    
C145  C154  A    
C148  O4    A    
C61   H1    S    
C122  C131  A    
C73   H39   S    
C93   O10   A    
C158  C176  A    
C132  C141  A    
C67   O47   D    
C108  C117  A    
C110  C119  A    
Cu4   O28   S    
C165  O53   A    
C127  C179  A    
C14   C22   A    
Cu6   O3    S    
C101  C180  S    
Cu2   O33   S    
C149  C157  A    
C138  C146  A    
C55   C61   A    
C123  H16   S    
C104  C155  S    
C129  H21   S    
C107  C116  A    
C27   C67   S    
C43   C57   A    
C143  H27   S    
C91   N8    T    
C48   C92   A    
C125  C178  A    
C126  O14   A    
C51   C60   A    
Cu10  O16   S    
Cu7   O4    S    
C140  C149  A    
C125  C134  A    
C96   C105  A    
C35   C74   S    
C83   N16   T    
C8    C136  S    
C34   C37   A    
C24   C42   A    
C159  O3    A    
C81   N14   T    
C13   C41   A    
C156  C174  A    
Cu9   O6    S    
C121  H14   S    
C127  C135  A    
C128  C136  A    
C88   N6    T    
C146  H30   S    
Cu7   O34   S    
Cu5   O10   S    
C130  C139  A    
Cu1   O56   S    
C104  O8    A    
Cu6   Cu11  S    
Cu7   Cu10  S    
C141  H25   S    
Cu1   Cu9   S    
C146  C155  A    
Cu4   O29   S    
C111  H13   S    
C7    C131  S    
C53   C169  S    
C10   O42   A    
C12   C94   A    
Cu2   O42   S    
C6    O27   A    
C122  H15   S    
C76   N10   T    
C23   C71   S    
C165  O18   A    
Cu6   O23   S    
C54   C62   A    
C98   C107  A    
C110  H11   S    
C10   O31   A    
C11   O43   A    
Cu9   O53   S    
C11   C135  S    
C18   C57   A    
C121  C174  A    
C84   C157  S    
Cu11  O17   S    
C1    C153  S    
C147  C156  A    
Cu1   O1    S    
C8    O33   A    
Cu7   O21   S    
C105  H6    S    
C100  C112  A    
C21   C23   A    
C115  C154  S    
C7    O28   A    
C65   H31   S    
C46   C47   A    
C17   C68   A    
C150  C158  A    
Cu10  O7    S    
C137  C147  S    
C84   N2    T    
C99   C113  A    
Cu5   O12   S    
Cu6   O11   S    
C153  C162  A    
C16   C79   A    
C33   C41   A    
C148  O16   A    
C36   C38   A    
C128  H20   S    
C65   O44   D    
Cu8   O22   S    
C74   N1    T    
C160  C177  A    
Cu5   O19   S    
C20   C36   A    
Cu6   O20   S    
Cu1   O9    S    
C56   C166  S    
C101  C116  A    
C32   C42   A    
C25   C70   S    
C63   H23   S    
C161  C178  A    
C86   C160  S    
C89   C163  S    
C59   C168  S    
C115  O13   A    
Cu10  O25   S    
C64   H34   S    
C98   C119  A    
C139  C147  A    
C59   C64   A    
C4    O36   A    
C106  C114  A    
C60   C63   A    
C168  O54   A    
C17   C26   A    
C54   C173  S    
C95   C174  S    
C39   C170  A    
C122  C175  A    
Cu11  O55   S    
C144  C153  A    
C171  O24   A    
C120  H42   S    
C129  C138  A    
C118  H40   S    
C31   C33   A    
C104  O11   A    
C49   C94   A    
C136  C145  A    
C75   N9    T    
C15   C23   A    
C97   C176  S    
C12   C32   A    
C81   C92   S    
C69   H35   S    
C52   C171  S    
C20   C29   A    
C95   C118  A    
C82   N15   T    
C36   C40   A    
C66   H32   S    
C78   C79   S    
Cu5   Cu8   S    
C83   C156  S    
C12   C21   A    
C69   O48   D    
C169  O12   A    
C49   C58   A    
Cu8   O14   S    
C111  C120  A    
C85   N3    T    
C53   C62   A    
C167  O55   A    
Cu12  O40   S    
C171  O1    A    
C4    O29   A    
C56   C63   A    
C17   C37   A    
C98   C177  S    
C14   C92   A    
C162  C179  A    
C168  O21   A    
C157  C175  A    
C1    O9    A    
Cu8   O45   S    
C3    C102  S    
C127  H19   S    
C135  C144  A    
C87   C161  S    
Cu9   O24   S    
C45   C54   A    
C80   N13   T    
C44   C68   A    
C97   C106  A    
Cu4   O38   S    
C47   C170  A    
C47   C55   A    
Cu1   O18   S    
C8    O40   A    
C24   C49   A    
C48   C56   A    
C143  C152  A    
Cu9   O15   S    
C18   C27   A    
C10   C134  S    
C19   C34   A    
C5    O37   A    
Cu10  O54   S    
C13   C48   A    
C125  H18   S    
C155  C164  A    
C26   C28   A    
C151  C160  A    
C97   C120  A    
C15   C90   A    
C30   C32   A    
C137  O15   A    
Cu4   O37   S    
C80   C90   S    
C140  H24   S    
C163  C180  A    
C100  C179  S    
C106  H7    S    
