data_mof_unit_30660.cif
_audit_creation_date              2013-03-05T15:58:35-0500
_audit_creation_method            fapswitch 2.2
_symmetry_space_group_name_H-M    P1
_symmetry_Int_Tables_number       1
_space_group_crystal_system       triclinic
_cell_length_a                    15.089222
_cell_length_b                    13.703652
_cell_length_c                    10.630814
_cell_angle_alpha                 89.752275
_cell_angle_beta                  89.960155
_cell_angle_gamma                 90.050576
_cell_volume                      2198.19064089

loop_
_atom_site_label
_atom_site_type_symbol
_atom_site_description
_atom_site_fract_x
_atom_site_fract_y
_atom_site_fract_z
_atom_type_partial_charge
O1    O     O_R   0.370260 0.582280 0.500030 -0.587663
O2    O     O_R   0.629740 0.417720 0.499970 -0.592252
O3    O     O_R   0.629740 0.582280 0.499970 -0.585255
O4    O     O_R   0.370260 0.417720 0.500030 -0.589596
C1    C     C_R   0.328510 0.499942 0.500509 0.816231
C2    C     C_R   0.671503 0.500058 0.499937 0.815689
O5    O     O_R   0.499980 0.582260 0.316850 -0.590732
O6    O     O_R   0.500020 0.417740 0.683150 -0.585514
O7    O     O_R   0.500020 0.582260 0.683150 -0.583648
O8    O     O_R   0.499980 0.417740 0.316850 -0.576805
C3    C     C_R   0.500026 0.500242 0.259086 0.805713
C4    C     C_R   0.499976 0.499748 0.740915 0.805998
Cu1   Cu    Cu3+1 0.500000 0.597420 0.500000 0.970916
Cu2   Cu    Cu3+1 0.500000 0.402580 0.500000 0.972909
C5    C     C_3   0.501116 0.592880 0.039895 -0.105808
C6    C     C_3   0.498890 0.407050 0.960101 -0.086930
C7    C     C_3   0.573362 0.545008 0.957589 -0.157427
C8    C     C_3   0.426646 0.454919 0.042414 -0.146900
C9    C     C_3   0.427730 0.546973 0.957744 -0.160787
C10   C     C_3   0.572274 0.452954 0.042259 -0.153502
H1    H     H_    0.368658 0.585375 0.919907 0.165389
H2    H     H_    0.631334 0.414529 0.080099 0.171345
H3    H     H_    0.502082 0.669012 0.075198 0.174295
H4    H     H_    0.497928 0.330913 0.924812 0.191418
H5    H     H_    0.633348 0.581777 0.919673 0.164260
H6    H     H_    0.366663 0.418140 0.080323 0.166221
C11   C     C_3   0.499978 0.499198 0.877718 -0.021906
C12   C     C_3   0.500027 0.500743 0.122282 -0.018985
C13   C     C_R   0.814585 0.411963 0.493124 -0.182721
C14   C     C_R   0.185475 0.587972 0.509552 -0.175098
C15   C     C_R   0.768337 0.500248 0.500340 -0.098296
C16   C     C_R   0.231701 0.499727 0.501536 -0.099663
C17   C     C_R   0.814606 0.588755 0.508349 -0.164653
C18   C     C_R   0.185436 0.411178 0.494606 -0.172111
C19   C     C_R   0.907269 0.590093 0.509417 0.035092
C20   C     C_R   0.092783 0.409774 0.494686 0.038309
C21   C     C_R   0.953523 0.500383 0.501834 0.025663
C22   C     C_R   0.046529 0.499482 0.502191 0.025684
C23   C     C_R   0.906805 0.411403 0.493817 0.061347
C24   C     C_R   0.093258 0.588468 0.509984 0.058242
C25   C     C_R   0.955005 0.678453 0.517941 0.266914
C26   C     C_R   0.045081 0.321343 0.487246 0.265339
C27   C     C_R   0.047358 0.676872 0.518034 -0.183513
C28   C     C_R   0.952722 0.322939 0.486705 -0.187968
H7    H     H_    0.778881 0.343434 0.486732 0.169554
H8    H     H_    0.221192 0.656516 0.515551 0.183962
H9    H     H_    0.777790 0.656265 0.513989 0.208262
H10   H     H_    0.222255 0.343693 0.488633 0.201182
H11   H     H_    0.083398 0.745149 0.524428 0.208079
H12   H     H_    0.916698 0.254629 0.480744 0.199842
C29   C     C_R   0.444466 0.792665 0.578691 0.098869
C30   C     C_R   0.556116 0.207346 0.422135 0.100285
C31   C     C_R   0.555220 0.793270 0.420833 0.098419
C32   C     C_R   0.443712 0.206721 0.577623 0.102173
N1    N     N_R   0.500000 0.743810 0.500000 -0.212927
N2    N     N_R   0.500000 0.256190 0.500000 -0.213823
C33   C     C_R   0.557792 0.896575 0.419411 -0.124186
C34   C     C_R   0.442720 0.103418 0.581254 -0.122242
C35   C     C_R   0.441646 0.895936 0.579673 -0.125713
C36   C     C_R   0.556833 0.104082 0.418106 -0.125619
C37   C     C_R   0.499783 0.948206 0.499643 0.010276
C38   C     C_R   0.499788 0.051796 0.499680 0.009013
C39   C     C_R   0.615221 0.949007 0.338177 0.253366
C40   C     C_R   0.385002 0.051009 0.662064 0.254527
C41   C     C_R   0.383648 0.947684 0.660089 0.251105
C42   C     C_R   0.614082 0.052349 0.336615 0.252547
H13   H     H_    0.402718 0.750175 0.640799 0.168696
H14   H     H_    0.600353 0.249842 0.363628 0.168251
H15   H     H_    0.596852 0.751210 0.358670 0.169706
H16   H     H_    0.399503 0.248754 0.636154 0.171892
Br1   Br    Br    0.898640 0.803850 0.530147 -0.349919
Br2   Br    Br    0.101588 0.195835 0.477757 -0.370642
N3    N     N_R   0.673649 0.897941 0.254614 0.140348
O9    O     O_R   0.670258 0.914257 0.134059 -0.270610
O10   O     O_R   0.735272 0.841429 0.299692 -0.309665
N4    N     N_R   0.326228 0.102140 0.745054 0.143444
O11   O     O_R   0.241205 0.086872 0.739644 -0.232348
O12   O     O_R   0.358168 0.157487 0.833276 -0.346791
N5    N     N_R   0.323961 0.895869 0.741746 0.140192
O13   O     O_R   0.325952 0.910684 0.862515 -0.270374
O14   O     O_R   0.262565 0.840260 0.694554 -0.350655
N6    N     N_R   0.672517 0.104171 0.253155 0.136273
O15   O     O_R   0.757523 0.088708 0.257502 -0.259318
O16   O     O_R   0.640236 0.160431 0.165589 -0.344670

loop_
_geom_bond_atom_site_label_1
_geom_bond_atom_site_label_2
_geom_bond_distance
_ccdc_geom_bond_type
C34   C38   1.413963 A    
Cu2   N2    2.006078 S    
C41   N5    1.435732 S    
N3    O10   1.301029 A    
N3    O9    1.301060 A    
C20   C26   1.411470 A    
C8    H6    1.110212 S    
O3    C2    1.291486 A    
C31   H15   1.080229 S    
O5    C3    1.283087 A    
O1    C1    1.291790 A    
C19   C21   1.416762 A    
N4    O12   1.301257 A    
C7    C10   1.546592 S    
C36   C38   1.413806 A    
C8    C9    1.546577 S    
O7    Cu1   1.957191 S    
C30   C36   1.415971 A    
C24   C27   1.398897 A    
C15   C17   1.401864 A    
C9    C11   1.531553 S    
C18   C20   1.398166 A    
C30   H14   1.080345 S    
C6    C10   1.545816 S    
C25   Br1   1.922876 S    
C1    C16   1.460798 S    
C6    C11   1.533695 S    
C5    H3    1.110353 S    
C2    C15   1.461148 S    
C39   C42   1.416308 A    
C36   C42   1.415860 A    
C6    H4    1.110367 S    
C22   C24   1.410852 A    
Cu1   Cu2   2.670018 S    
C25   C27   1.393725 A    
O2    C2    1.291892 A    
C26   C28   1.393827 A    
C19   C25   1.411634 A    
C33   C39   1.416144 A    
C31   N1    1.362013 A    
C34   C40   1.415917 A    
C21   C23   1.410852 A    
C32   N2    1.362000 A    
C35   C37   1.413871 A    
C4    C11   1.454324 S    
C7    C11   1.531615 S    
C8    C12   1.531651 S    
N4    O11   1.301042 A    
O8    Cu2   1.957192 S    
N5    O14   1.301288 A    
C31   C33   1.416164 A    
C27   H11   1.084201 S    
C10   C12   1.531595 S    
C13   H7    1.084656 S    
C16   C18   1.401646 A    
C5    C9    1.545803 S    
C21   C22   1.403453 A    
C42   N6    1.435734 S    
C32   H16   1.080347 S    
O6    C4    1.282969 A    
C13   C23   1.391571 A    
C26   Br2   1.923357 S    
C40   N4    1.435688 S    
C14   C24   1.391507 A    
C29   H13   1.080385 S    
C10   H2    1.110292 S    
N6    O16   1.301267 A    
C17   H9    1.081381 S    
C29   C35   1.415962 A    
C32   C34   1.416062 A    
C28   H12   1.084169 S    
C5    C7    1.545716 S    
O6    Cu2   1.958978 S    
C9    H1    1.110282 S    
C14   H8    1.084654 S    
O4    C1    1.291413 A    
O3    Cu1   1.968821 S    
C33   C37   1.414050 A    
C23   C28   1.399139 A    
C39   N3    1.435789 S    
C18   H10   1.081331 S    
C7    H5    1.110214 S    
C40   C41   1.416309 A    
C20   C22   1.416697 A    
C13   C15   1.399566 A    
C35   C41   1.415940 A    
C14   C16   1.399443 A    
C5    C12   1.533604 S    
C3    C12   1.454323 S    
C17   C19   1.398377 A    
C29   N1    1.362011 A    
O4    Cu2   1.968821 S    
C37   C38   1.419568 A    
O2    Cu2   1.968456 S    
O7    C4    1.284374 A    
O8    C3    1.284251 A    
N5    O13   1.301055 A    
O5    Cu1   1.958979 S    
O1    Cu1   1.968456 S    
C6    C8    1.545721 S    
N6    O15   1.301074 A    
C30   N2    1.361989 A    
Cu1   N1    2.006078 S    
