data_mof_unit_35573.cif
_audit_creation_date              2012-12-10T18:59:55-0500
_audit_creation_method            fapswitch 2.2
_symmetry_space_group_name_H-M    P1
_symmetry_Int_Tables_number       1
_space_group_crystal_system       triclinic
_cell_length_a                    10.796876
_cell_length_b                    10.699141
_cell_length_c                    9.840919
_cell_angle_alpha                 90.064405
_cell_angle_beta                  90.909579
_cell_angle_gamma                 90.010196
_cell_volume                      1136.65239464

loop_
_atom_site_label
_atom_site_type_symbol
_atom_type_description
_atom_site_fract_x
_atom_site_fract_y
_atom_site_fract_z
_atom_type_partial_charge
C1    C     C_R   0.500211 0.259907 0.499892 0.867551
C2    C     C_R   0.500115 0.740069 0.500107 0.861611
C3    C     C_R   0.872540 0.502411 0.504380 -0.095939
C4    C     C_R   0.127258 0.503886 0.495983 -0.091654
C5    C     C_R   0.941537 0.486574 0.626092 0.000140
C6    C     C_R   0.058250 0.519788 0.374232 0.015130
C7    C     C_R   0.468815 0.063747 0.380404 -0.200907
C8    C     C_R   0.533204 0.936115 0.619345 -0.203356
C9    C     C_R   0.468275 0.935774 0.380621 -0.205151
C10   C     C_R   0.533241 0.064156 0.619252 -0.202311
C11   C     C_R   0.500431 0.872474 0.500105 -0.004879
C12   C     C_R   0.500781 0.127457 0.499827 -0.005486
C13   C     C_R   0.519527 0.608004 0.072310 -0.072927
C14   C     C_R   0.480467 0.392013 0.927700 -0.063136
C15   C     C_R   0.519553 0.607963 0.928607 -0.093495
C16   C     C_R   0.480666 0.392036 0.071364 -0.065173
C17   C     C_R   0.259861 0.501860 0.498536 0.864861
C18   C     C_R   0.740101 0.500128 0.501521 0.869703
C19   C     C_R   0.205686 0.678755 0.075826 -0.161409
C20   C     C_R   0.830690 0.319154 0.938142 -0.177410
C21   C     C_R   0.156308 0.657058 0.203740 -0.164142
C22   C     C_R   0.874977 0.342795 0.808294 -0.186748
C23   C     C_R   0.113067 0.537710 0.238567 0.123726
C24   C     C_R   0.887338 0.466048 0.761657 0.117068
C25   C     C_R   0.119486 0.438770 0.142816 0.235873
C26   C     C_R   0.854584 0.567045 0.847287 0.249872
C27   C     C_R   0.168233 0.463004 0.013954 -0.157924
C28   C     C_R   0.814634 0.541355 0.979590 -0.152132
C29   C     C_R   0.210743 0.582165 0.980873 -0.142031
C30   C     C_R   0.801758 0.418218 0.024077 -0.157972
C31   C     C_R   0.931392 0.521205 0.380784 -0.271902
C32   C     C_R   0.068326 0.487571 0.619907 -0.247677
H1    H     H_    0.248270 0.599665 0.881420 0.155396
H2    H     H_    0.768436 0.399386 0.125104 0.154068
H3    H     H_    0.535526 0.694439 0.875130 0.116987
H4    H     H_    0.465500 0.305442 0.124798 0.113585
H5    H     H_    0.239234 0.770869 0.049818 0.130742
H6    H     H_    0.820582 0.223851 0.973013 0.133111
H7    H     H_    0.151785 0.733266 0.276071 0.125462
H8    H     H_    0.899917 0.264950 0.743782 0.132956
H9    H     H_    0.174548 0.389029 0.939219 0.122461
H10   H     H_    0.790649 0.617041 0.047413 0.126528
H11   H     H_    0.878824 0.536813 0.287660 0.161720
H12   H     H_    0.120843 0.473732 0.713290 0.162644
H13   H     H_    0.443410 0.112369 0.287645 0.141311
H14   H     H_    0.559589 0.887328 0.711793 0.138683
H15   H     H_    0.441949 0.886757 0.288133 0.144909
H16   H     H_    0.559506 0.113230 0.711714 0.147678
H17   H     H_    0.535577 0.694526 0.126523 0.122725
H18   H     H_    0.464468 0.305476 0.873497 0.122360
N1    N     N_R   0.499970 0.499970 0.857200 -0.076013
N2    N     N_R   0.500030 0.500030 0.142800 -0.072856
O1    O     O_R   0.499990 0.316750 0.614620 -0.631372
O2    O     O_R   0.500010 0.683250 0.385380 -0.632972
O3    O     O_R   0.499990 0.316780 0.385290 -0.635947
O4    O     O_R   0.500010 0.683220 0.614710 -0.638357
O5    O     O_R   0.316760 0.500000 0.614660 -0.632035
O6    O     O_R   0.683240 0.500000 0.385340 -0.630551
O7    O     O_R   0.316760 0.500020 0.385330 -0.599254
O8    O     O_R   0.683240 0.499980 0.614670 -0.612738
Zn1   Zn    Zn3+2 0.500000 0.499980 0.653120 0.937575
Zn2   Zn    Zn3+2 0.500000 0.500020 0.346880 0.942494
C33   C     C_3   0.075961 0.307657 0.174825 -0.450741
C34   C     C_3   0.172759 0.235624 0.257676 -0.836026
H19   H     H_    0.262384 0.235145 0.204123 0.247994
H20   H     H_    0.185901 0.277577 0.359834 0.260299
H21   H     H_    0.141690 0.137497 0.270715 0.239283
H22   H     H_    0.987137 0.309956 0.229974 0.212914
H23   H     H_    0.057874 0.254950 0.079157 0.204381
C35   C     C_3   0.855247 0.701308 0.798968 -0.425306
C36   C     C_3   0.967959 0.771753 0.853790 -0.889739
H24   H     H_    0.970789 0.769057 0.966598 0.265160
H25   H     H_    0.053821 0.729947 0.813099 0.267880
H26   H     H_    0.962996 0.870868 0.820848 0.248121
H27   H     H_    0.854225 0.707262 0.686423 0.212116
H28   H     H_    0.769687 0.748947 0.833122 0.190589

loop_
_geom_bond_atom_site_label_1
_geom_bond_atom_site_label_2
_ccdc_geom_bond_type
O6    Zn2   S    
C27   C29   A    
N1    Zn1   S    
C20   C30   A    
C31   H11   S    
C7    H13   S    
C19   C21   A    
C24   C26   A    
O3    Zn2   S    
C29   H1    S    
C3    C18   S    
C25   C33   S    
C1    O1    A    
C19   H5    S    
O1    Zn1   S    
C18   O6    A    
C33   H23   S    
C35   C36   S    
C15   N1    A    
C5    C32   A    
C6    C31   A    
C1    C12   S    
C2    C11   S    
C15   H3    S    
C21   C23   A    
C7    C12   A    
C30   H2    S    
C34   H21   S    
C4    C6    A    
C2    O2    A    
C36   H25   S    
O2    Zn2   S    
O8    Zn1   S    
C34   H20   S    
C13   N2    A    
C20   H6    S    
C27   H9    S    
C14   N1    A    
C21   H7    S    
C22   H8    S    
C32   H12   S    
C3    C31   A    
C9    C11   A    
C4    C32   A    
C10   C12   A    
C17   O7    A    
C13   H17   S    
C4    C17   S    
C18   O8    A    
C20   C22   A    
C9    H15   S    
C13   C15   A    
C10   H16   S    
C26   C35   S    
C22   C24   A    
C19   C29   A    
C7    C9    A    
C33   H22   S    
O7    Zn2   S    
C16   N2    A    
C3    C5    A    
C36   H26   S    
O5    Zn1   S    
C25   C27   A    
C26   C28   A    
C34   H19   S    
C28   C30   A    
C1    O3    A    
C36   H24   S    
C2    O4    A    
C16   H4    S    
C35   H28   S    
C14   H18   S    
C5    C24   S    
C8    C11   A    
C6    C23   S    
C28   H10   S    
C14   C16   A    
C23   C25   A    
C8    H14   S    
C33   C34   S    
C8    C10   A    
C35   H27   S    
O4    Zn1   S    
N2    Zn2   S    
C17   O5    A    
