data_mof_unit_11858.cif
_audit_creation_date              2013-03-05T15:50:46-0500
_audit_creation_method            fapswitch 2.2
_symmetry_space_group_name_H-M    P1
_symmetry_Int_Tables_number       1
_space_group_crystal_system       triclinic
_cell_length_a                    14.276562
_cell_length_b                    14.836985
_cell_length_c                    33.244691
_cell_angle_alpha                 97.54968
_cell_angle_beta                  90.532902
_cell_angle_gamma                 118.792644
_cell_volume                      6096.4390338

loop_
_atom_site_label
_atom_site_type_symbol
_atom_site_description
_atom_site_fract_x
_atom_site_fract_y
_atom_site_fract_z
_atom_type_partial_charge
O1    O     O_R   0.318160 0.824460 0.443680 -0.487961
O2    O     O_R   0.525040 0.857250 0.449830 -0.439107
C1    C     C_R   0.617239 0.910456 0.436924 0.565551
O3    O     O_R   0.684760 0.998800 0.456360 -0.528117
O4    O     O_R   0.647540 0.166310 0.470260 -0.505400
C2    C     C_R   0.594003 0.205391 0.456532 0.543860
O5    O     O_R   0.500960 0.181750 0.467450 -0.514056
O6    O     O_R   0.331100 0.981120 0.457080 -0.506636
C3    C     C_R   0.295520 0.892978 0.434416 0.536064
O7    O     O_R   0.315560 0.821140 0.532010 -0.511804
O8    O     O_R   0.522630 0.854180 0.531710 -0.493252
C4    C     C_R   0.613992 0.905217 0.551684 0.550476
O9    O     O_R   0.682160 0.995480 0.544690 -0.514614
O10   O     O_R   0.645130 0.163230 0.552140 -0.502108
C5    C     C_R   0.590798 0.201176 0.570390 0.549015
O11   O     O_R   0.498360 0.178430 0.555780 -0.513589
O12   O     O_R   0.328690 0.978040 0.538950 -0.502869
C6    C     C_R   0.289103 0.886749 0.548504 0.538510
Cr1   Cr    Cr6+3 0.424820 0.846020 0.489780 1.101072
Cr2   Cr    Cr6+3 0.657880 0.078580 0.505700 1.021099
Cr3   Cr    Cr6+3 0.417280 0.075360 0.504550 1.024700
O13   O     O_3   0.499990 0.999990 0.500010 -0.254190
C7    C     C_R   0.736296 0.444821 0.104466 0.020395
C8    C     C_R   0.640673 0.408599 0.123966 -0.111861
C9    C     C_R   0.638458 0.386307 0.163438 -0.092634
C10   C     C_R   0.731436 0.399300 0.183756 0.074456
C11   C     C_R   0.825786 0.430929 0.163928 -0.064364
C12   C     C_R   0.828119 0.453031 0.124356 -0.113026
C13   C     C_R   0.734146 0.304265 0.241063 0.022984
C14   C     C_R   0.730159 0.299208 0.282746 -0.147545
C15   C     C_R   0.722420 0.375214 0.310260 -0.020386
C16   C     C_R   0.723971 0.461740 0.296369 0.019675
C17   C     C_R   0.728453 0.467274 0.254646 -0.108138
C18   C     C_R   0.731907 0.389119 0.226980 0.001349
C19   C     C_R   0.602158 0.337414 0.366447 -0.115710
C20   C     C_R   0.570269 0.295538 0.402241 -0.112263
C21   C     C_R   0.737871 0.293049 0.410984 -0.124212
C22   C     C_R   0.769683 0.335076 0.375246 -0.120080
C23   C     C_R   0.700598 0.354428 0.352175 0.005015
C24   C     C_R   0.636095 0.269139 0.423930 0.021404
H1    H     H_    0.568809 0.401622 0.109406 0.144572
H2    H     H_    0.903129 0.481474 0.110187 0.131540
H3    H     H_    0.845670 0.347354 0.364416 0.119409
H4    H     H_    0.727760 0.232528 0.293778 0.102556
H5    H     H_    0.565305 0.362258 0.178701 0.128477
H6    H     H_    0.728631 0.532633 0.243303 0.160443
H7    H     H_    0.547267 0.350549 0.348580 0.139777
H8    H     H_    0.491454 0.277928 0.411475 0.142610
H9    H     H_    0.898239 0.441926 0.179617 0.120630
H10   H     H_    0.790560 0.274041 0.427207 0.129540
H11   H     H_    0.147761 0.700402 0.106640 0.146844
H12   H     H_    0.191459 0.736439 0.179516 0.123677
H13   H     H_    0.184713 0.723627 0.301461 0.122817
H14   H     H_    0.229000 0.727037 0.373199 0.176325
C25   C     C_R   0.243915 0.878785 0.393546 0.013205
C26   C     C_R   0.233291 0.960816 0.381028 -0.122600
C27   C     C_R   0.208622 0.958761 0.340049 -0.106737
C28   C     C_R   0.193455 0.874498 0.311168 0.037865
C29   C     C_R   0.196723 0.789450 0.323649 -0.107306
C30   C     C_R   0.221526 0.791339 0.364620 -0.113387
C31   C     C_R   0.173115 0.788361 0.165244 -0.127147
C32   C     C_R   0.148771 0.768651 0.123382 -0.156708
C33   C     C_R   0.123225 0.920315 0.127327 0.203488
C34   C     C_R   0.145672 0.937768 0.169919 -0.091527
C35   C     C_R   0.166486 0.869579 0.188790 -0.004264
C36   C     C_1   0.175914 0.877824 0.232340 -0.015116
C37   C     C_1   0.182812 0.878118 0.268485 -0.016150
C38   C     C_R   0.115979 0.829250 0.104081 0.009415
H15   H     H_    0.250051 0.029412 0.402470 0.134288
H16   H     H_    0.145800 0.003681 0.188391 0.153674
H17   H     H_    0.205957 0.024808 0.330699 0.120741
H18   H     H_    0.860347 0.965304 0.121599 0.193142
H19   H     H_    0.829605 0.989659 0.193767 0.128994
H20   H     H_    0.788281 0.012085 0.321954 0.126105
H21   H     H_    0.775600 0.034735 0.394474 0.148393
C39   C     C_R   0.638866 0.881095 0.394980 -0.011400
C40   C     C_R   0.569935 0.783809 0.370681 0.221729
C41   C     C_R   0.578583 0.770509 0.327939 0.034046
C42   C     C_R   0.655192 0.855741 0.310519 -0.018571
C43   C     C_R   0.727801 0.947644 0.335198 -0.132733
C44   C     C_R   0.720747 0.959838 0.376864 -0.163499
C45   C     C_R   0.768772 0.923461 0.173286 -0.093332
C46   C     C_R   0.785994 0.909689 0.132143 -0.096942
C47   C     C_R   0.615698 0.749564 0.120621 -0.116982
C48   C     C_R   0.598589 0.763571 0.161616 -0.108507
C49   C     C_R   0.676898 0.848290 0.188236 0.036001
C50   C     C_1   0.667778 0.851766 0.231208 -0.025453
C51   C     C_1   0.661331 0.852627 0.267257 -0.031684
C52   C     C_R   0.711920 0.819918 0.105879 0.017695
H22   H     H_    0.527018 0.705321 0.172938 0.113544
H23   H     H_    0.556637 0.680022 0.101081 0.133556
H24   H     H_    0.887891 0.495969 0.898408 0.135285
H25   H     H_    0.879842 0.465386 0.824103 0.111047
H26   H     H_    0.807079 0.311284 0.690540 0.114266
H27   H     H_    0.761416 0.231528 0.619070 0.134991
C53   C     C_R   0.630992 0.264896 0.610894 0.011668
C54   C     C_R   0.576167 0.314229 0.629502 -0.153530
C55   C     C_R   0.602344 0.361298 0.670324 0.007439
C56   C     C_R   0.684792 0.357623 0.692724 0.052113
C57   C     C_R   0.744000 0.314508 0.673453 -0.141242
C58   C     C_R   0.717723 0.268825 0.632726 -0.132135
C59   C     C_R   0.807666 0.450818 0.838935 -0.099006
C60   C     C_R   0.811948 0.468048 0.881244 -0.122473
C61   C     C_R   0.622310 0.415071 0.877855 -0.137665
C62   C     C_R   0.617840 0.396282 0.835436 -0.103479
C63   C     C_R   0.710882 0.416005 0.816069 0.061372
C64   C     C_1   0.706499 0.399481 0.772670 0.045325
C65   C     C_1   0.699501 0.383086 0.736189 0.058354
C66   C     C_R   0.719883 0.452009 0.901148 0.021268
H28   H     H_    0.510371 0.313230 0.612531 0.129010
H29   H     H_    0.542257 0.367424 0.817679 0.125031
H30   H     H_    0.550096 0.402089 0.892277 0.125329
C67   C     C_R   0.069621 0.756195 0.908716 0.028449
C68   C     C_R   0.086308 0.847659 0.894723 -0.095572
C69   C     C_R   0.105692 0.859555 0.854372 -0.090329
C70   C     C_R   0.107714 0.779819 0.827246 0.052203
C71   C     C_R   0.100256 0.692365 0.842080 -0.088954
C72   C     C_R   0.082736 0.681315 0.882713 -0.117818
C73   C     C_R   0.171629 0.749376 0.759904 -0.119188
C74   C     C_R   0.176223 0.755807 0.718587 -0.115287
C75   C     C_R   0.121659 0.798972 0.700099 0.028663
C76   C     C_R   0.060778 0.833964 0.723207 -0.099406
C77   C     C_R   0.055450 0.826774 0.764544 -0.069409
C78   C     C_R   0.112085 0.785717 0.783363 0.035318
C79   C     C_R   0.175823 0.915719 0.647734 -0.120215
C80   C     C_R   0.217850 0.937884 0.610363 -0.126587
C81   C     C_R   0.172607 0.757180 0.591123 -0.111356
C82   C     C_R   0.131088 0.735277 0.628418 -0.107812
C83   C     C_R   0.137505 0.815491 0.657657 0.025989
C84   C     C_R   0.221676 0.859800 0.582749 0.018623
H31   H     H_    0.078831 0.907769 0.914371 0.137291
H32   H     H_    0.072380 0.610996 0.892932 0.123926
H33   H     H_    0.100265 0.657168 0.635483 0.129863
H34   H     H_    0.225595 0.730429 0.701330 0.129450
H35   H     H_    0.216755 0.718324 0.773641 0.134860
H36   H     H_    0.115210 0.929542 0.844062 0.104889
H37   H     H_    0.018114 0.867295 0.709317 0.105645
H38   H     H_    0.006827 0.853152 0.781731 0.152608
H39   H     H_    0.181457 0.978602 0.670084 0.111206
H40   H     H_    0.254539 0.017456 0.604487 0.132844
H41   H     H_    0.101917 0.629746 0.821890 0.114465
H42   H     H_    0.172628 0.695051 0.569993 0.148176
C85   C     C_R   0.657247 0.746645 0.913369 0.037864
C86   C     C_R   0.591305 0.653639 0.886997 -0.164267
C87   C     C_R   0.567289 0.654415 0.846129 0.065614
C88   C     C_R   0.613136 0.750817 0.831497 0.123487
C89   C     C_R   0.667722 0.843835 0.858810 -0.102825
C90   C     C_R   0.687372 0.843089 0.899964 0.018940
C91   C     C_R   0.546017 0.786746 0.768614 0.011474
C92   C     C_R   0.555414 0.800169 0.727722 -0.116193
C93   C     C_R   0.630773 0.785120 0.705574 0.012979
C94   C     C_R   0.697556 0.755428 0.723993 -0.062472
C95   C     C_R   0.690995 0.741658 0.764969 0.235867
C96   C     C_R   0.615106 0.758173 0.787686 0.061623
C97   C     C_R   0.553468 0.734436 0.632979 0.220517
C98   C     C_R   0.552131 0.766354 0.595265 -0.107854
C99   C     C_R   0.720392 0.924697 0.615743 -0.138478
C100  C     C_R   0.723495 0.893435 0.653312 -0.168440
C101  C     C_R   0.638435 0.801106 0.662811 0.013542
C102  C     C_R   0.632280 0.863432 0.587090 -0.022271
H43   H     H_    0.563726 0.579677 0.897643 0.103651
H44   H     H_    0.788591 0.945011 0.676137 0.115645
H45   H     H_    0.503587 0.822533 0.712786 0.107215
H46   H     H_    0.755616 0.744036 0.706434 0.146932
H47   H     H_    0.485137 0.717127 0.572888 0.174694
H48   H     H_    0.697721 0.917484 0.847557 0.087460
H49   H     H_    0.783318 0.999704 0.610227 0.141025
O14   O     O_R   0.828710 0.851830 0.052170 -0.470844
O15   O     O_R   0.005980 0.823990 0.047210 -0.439561
C103  C     C_R   0.053430 0.781654 0.063684 0.559313
O16   O     O_R   0.031900 0.688850 0.050170 -0.529233
O17   O     O_R   0.830940 0.518420 0.048680 -0.494791
C104  C     C_R   0.743911 0.486282 0.066085 0.557905
O18   O     O_R   0.668160 0.499860 0.053480 -0.509389
O19   O     O_R   0.689170 0.693840 0.050110 -0.508296
C105  C     C_R   0.742351 0.789069 0.066258 0.554073
O20   O     O_R   0.803860 0.812940 0.962540 -0.466259
O21   O     O_R   0.982950 0.787950 0.964120 -0.499087
C106  C     C_R   0.021916 0.732399 0.947487 0.535219
O22   O     O_R   0.007050 0.649970 0.960540 -0.531223
O23   O     O_R   0.807910 0.482370 0.965590 -0.493122
C107  C     C_R   0.730211 0.483933 0.945523 0.563592
O24   O     O_R   0.643310 0.460980 0.963840 -0.506681
O25   O     O_R   0.666140 0.657800 0.967020 -0.528465
C108  C     C_R   0.709216 0.740828 0.950838 0.581373
Cr4   Cr    Cr6+3 0.903360 0.812540 0.006510 1.116158
Cr5   Cr    Cr6+3 0.914630 0.587050 0.006280 1.026263
Cr6   Cr    Cr6+3 0.673560 0.582680 0.008540 1.026169
O26   O     O_3   0.830520 0.660760 0.007110 -0.285404
N1    N     N_R   0.108705 0.995116 0.108536 0.085512
O27   O     O_R   0.150551 0.021164 0.074476 -0.309483
O28   O     O_R   0.073189 0.051825 0.128957 -0.363837
N2    N     N_R   0.489382 0.700833 0.389037 0.121931
O29   O     O_R   0.516777 0.665887 0.418356 -0.312607
O30   O     O_R   0.388274 0.665247 0.378502 -0.320631
C109  C     C_2   0.509743 0.669160 0.301273 0.300774
H50   H     H_    0.498421 0.666231 0.268721 0.087077
O31   O     O_2   0.467889 0.587248 0.314912 -0.423723
C110  C     C_2   0.538436 0.408854 0.688314 0.267514
H51   H     H_    0.466123 0.395296 0.671504 0.144410
O32   O     O_2   0.566150 0.465087 0.721307 -0.416612
C111  C     C_2   0.735831 0.216999 0.213928 0.230485
H52   H     H_    0.745439 0.158556 0.227203 0.096674
O33   O     O_2   0.724820 0.207478 0.176904 -0.479300
C112  C     C_2   0.739843 0.944556 0.927428 0.255257
H53   H     H_    0.784047 0.016148 0.914813 0.098460
O34   O     O_2   0.730060 0.950012 0.963980 -0.467452
C113  C     C_2   0.462591 0.803162 0.789589 0.226353
H54   H     H_    0.422156 0.837468 0.774767 0.092075
O35   O     O_2   0.435994 0.777195 0.822789 -0.499020
C114  C     C_2   0.496395 0.553299 0.820089 0.280723
H55   H     H_    0.466962 0.481681 0.832814 0.074446
O36   O     O_2   0.467146 0.548207 0.784857 -0.431134
N3    N     N_R   0.761947 0.711244 0.782792 0.071176
O37   O     O_R   0.805268 0.749926 0.819917 -0.384031
O38   O     O_R   0.793351 0.653759 0.760318 -0.321673
N4    N     N_R   0.466258 0.637169 0.641023 0.074585
O39   O     O_R   0.374250 0.594445 0.619624 -0.352759
O40   O     O_R   0.480194 0.586588 0.667510 -0.306163
C115  C     C_2   0.722439 0.546830 0.324961 0.248374
H56   H     H_    0.726181 0.547027 0.357569 0.130489
O41   O     O_2   0.717927 0.618577 0.312463 -0.493583

loop_
_geom_bond_atom_site_label_1
_geom_bond_atom_site_label_2
_geom_bond_distance
_ccdc_geom_bond_type
C66   C107  1.472218 S    
C50   C51   1.201694 T    
N1    O27   1.301371 A    
C8    H1    1.083027 S    
C86   H43   1.083018 S    
C68   H31   1.083208 S    
C97   N4    1.442614 S    
C19   C23   1.402170 A    
C19   C20   1.393257 A    
C25   C26   1.409702 A    
C19   H7    1.083429 S    
C82   C83   1.399648 A    
C99   H49   1.082972 S    
C115  O41   1.221378 D    
O21   C106  1.273656 A    
O23   Cr5   1.921863 S    
C115  H56   1.084386 S    
C77   C78   1.407648 A    
O4    Cr2   1.920690 S    
H14   C30   1.082552 S    
C40   C41   1.423511 A    
C79   H39   1.083264 S    
C54   H28   1.084169 S    
C56   C65   1.431530 S    
C77   H38   1.082515 S    
O8    Cr1   1.914222 S    
C10   C11   1.399305 A    
C99   C100  1.395696 A    
C79   C80   1.393864 A    
C111  O33   1.220250 D    
C55   C110  1.485723 S    
Cr3   O13   1.974478 S    
C89   H48   1.084909 S    
C21   C22   1.392330 A    
O15   Cr4   1.915464 S    
C88   C89   1.399285 A    
C21   C24   1.406238 A    
H12   C31   1.084081 S    
C87   C88   1.413424 A    
C61   C66   1.404820 A    
N3    O38   1.301472 A    
C69   H36   1.082908 S    
C80   C84   1.403689 A    
O17   Cr5   1.920379 S    
C85   C86   1.405149 A    
C55   C56   1.413924 A    
O23   C107  1.300460 A    
C109  H50   1.084768 S    
O20   C108  1.268877 A    
C70   C71   1.405058 A    
C16   C115  1.486444 S    
O14   C105  1.275136 A    
O15   C103  1.283273 A    
C40   N2    1.434292 S    
C107  O24   1.299058 A    
C42   C51   1.437741 S    
H24   C60   1.080013 S    
O18   Cr6   2.035011 S    
O19   Cr6   1.928976 S    
C38   C103  1.490203 S    
C47   C48   1.393159 A    
C10   C18   1.464775 S    
C103  O16   1.272582 A    
C89   C90   1.396623 A    
C15   C23   1.470492 S    
O6    C3    1.276713 A    
N2    O30   1.301112 A    
H27   C58   1.083138 S    
O24   Cr6   2.046220 S    
C93   C94   1.393806 A    
C8    C9    1.391798 A    
C20   H8    1.083006 S    
C3    C25   1.479868 S    
C47   H23   1.083137 S    
C34   H16   1.083498 S    
C74   H34   1.083590 S    
N2    O29   1.301104 A    
C36   C37   1.203984 T    
C62   H29   1.082996 S    
C110  H51   1.085473 S    
H20   C43   1.084434 S    
C53   C58   1.402155 A    
C17   H6    1.084590 S    
C85   C108  1.477276 S    
C14   H4    1.085074 S    
C31   C32   1.388989 A    
H11   C32   1.083080 S    
C82   H33   1.083548 S    
C91   C113  1.488066 S    
C61   C62   1.395836 A    
C54   C55   1.399739 A    
C76   C77   1.392235 A    
C112  O34   1.221028 D    
H13   C29   1.083662 S    
C85   C90   1.417545 A    
C46   C52   1.405410 A    
O1    Cr1   2.031849 S    
O14   Cr4   2.043492 S    
C111  H52   1.086039 S    
C97   C101  1.413327 A    
O10   Cr2   1.926151 S    
C20   C24   1.404499 A    
Cr1   O13   1.978266 S    
O1    C3    1.276609 A    
C39   C40   1.419505 A    
C109  O31   1.220647 D    
C5    C53   1.471320 S    
O17   C104  1.273233 A    
N3    O37   1.301108 A    
C113  H54   1.085720 S    
C9    C10   1.399301 A    
C48   C49   1.395948 A    
C13   C18   1.413704 A    
O12   Cr3   1.922001 S    
O20   Cr4   2.031367 S    
C33   C34   1.410658 A    
Cr6   O26   1.970161 S    
C81   H42   1.083191 S    
C22   C23   1.400028 A    
H25   C59   1.083763 S    
C71   H41   1.082564 S    
C91   C96   1.420006 A    
C114  H55   1.084422 S    
C13   C14   1.397800 A    
C92   H45   1.084931 S    
O22   Cr5   2.036783 S    
C31   C35   1.391817 A    
H26   C57   1.084003 S    
C56   C57   1.399089 A    
C88   C96   1.474316 S    
C98   C102  1.406697 A    
O7    Cr1   2.040262 S    
C7    C8    1.405013 A    
C80   H40   1.083117 S    
C53   C54   1.404631 A    
C81   C82   1.388583 A    
O12   C6    1.278248 A    
C86   C87   1.401014 A    
C41   C109  1.490927 S    
C7    C12   1.406930 A    
C27   H17   1.083545 S    
C73   C74   1.389297 A    
C1    C39   1.485745 S    
C75   C76   1.399086 A    
C94   H46   1.083726 S    
C95   N3    1.442288 S    
C90   C112  1.483554 S    
C11   H9    1.083356 S    
O21   Cr4   1.924631 S    
C67   C106  1.467699 S    
Cr2   O13   1.969449 S    
C45   C46   1.397925 A    
C99   C102  1.401701 A    
C79   C83   1.402901 A    
C100  C101  1.403332 A    
C2    C24   1.471201 S    
C42   C43   1.391262 A    
C6    C84   1.466920 S    
C47   C52   1.408046 A    
C64   C65   1.198687 T    
C1    O3    1.270254 A    
C9    H5    1.083491 S    
H19   C45   1.083575 S    
C97   C98   1.400316 A    
C74   C75   1.403529 A    
C49   C50   1.432154 S    
C61   H30   1.082612 S    
C67   C68   1.404014 A    
C26   C27   1.396686 A    
C112  H53   1.085686 S    
C33   C38   1.422338 A    
N1    O28   1.301220 A    
C13   C111  1.488037 S    
C70   C78   1.473045 S    
O9    Cr2   2.035627 S    
C114  O36   1.220328 D    
O2    Cr1   1.924243 S    
C41   C42   1.415148 A    
C15   C16   1.410837 A    
H21   C44   1.083108 S    
C76   H37   1.083386 S    
C75   C83   1.464753 S    
C43   C44   1.384150 A    
C4    C102  1.476467 S    
O6    Cr3   1.919951 S    
C39   C44   1.405912 A    
C48   H22   1.083809 S    
O11   Cr3   2.037871 S    
C68   C69   1.389008 A    
C2    O5    1.269983 A    
C7    C104  1.470603 S    
C32   C38   1.410936 A    
C106  O22   1.272873 A    
N4    O40   1.300929 A    
C33   N1    1.437463 S    
C62   C63   1.398421 A    
C71   C72   1.392539 A    
C92   C93   1.397280 A    
O16   Cr5   2.037859 S    
C60   C66   1.406518 A    
C16   C17   1.400448 A    
Cr4   O26   1.977237 S    
O2    C1    1.280024 A    
C28   C29   1.400195 A    
C81   C84   1.405009 A    
C22   H3    1.083409 S    
O19   C105  1.273076 A    
C45   C49   1.399987 A    
C91   C92   1.398067 A    
C34   C35   1.399418 A    
O5    Cr3   2.040237 S    
C21   H10   1.083055 S    
C14   C15   1.404088 A    
C27   C28   1.397034 A    
O4    C2    1.272272 A    
C98   H47   1.082929 S    
O7    C6    1.268350 A    
C5    O11   1.267824 A    
N4    O39   1.302065 A    
C12   H2    1.083068 S    
C57   C58   1.392063 A    
C17   C18   1.403097 A    
C59   C63   1.394138 A    
C73   C78   1.401783 A    
C35   C36   1.436393 S    
C59   C60   1.391544 A    
C73   H35   1.082403 S    
Cr5   O26   1.973937 S    
H18   C46   1.081556 S    
C72   H32   1.082252 S    
C100  H44   1.083649 S    
C104  O18   1.268612 A    
C67   C72   1.402740 A    
O3    Cr2   2.044025 S    
O25   Cr6   1.916767 S    
C28   C37   1.436454 S    
C29   C30   1.397454 A    
C4    O9    1.274863 A    
C113  O35   1.220453 D    
C26   H15   1.082975 S    
C63   C64   1.426978 S    
C11   C12   1.393917 A    
C110  O32   1.220324 D    
O10   C5    1.275306 A    
O25   C108  1.278930 A    
C94   C95   1.401163 A    
C52   C105  1.475448 S    
C95   C96   1.423561 A    
C25   C30   1.406126 A    
C69   C70   1.402378 A    
O8    C4    1.271217 A    
C93   C101  1.468267 S    
C87   C114  1.484707 S    
