data_mof_unit_20081.cif
_audit_creation_date              2012-10-26T19:35:15-0400
_audit_creation_method            fapswitch 2.2
_symmetry_space_group_name_H-M    P1
_symmetry_Int_Tables_number       1
_space_group_crystal_system       triclinic
_cell_length_a                    10.869129
_cell_length_b                    10.850022
_cell_length_c                    9.545695
_cell_angle_alpha                 90.242638
_cell_angle_beta                  88.335212
_cell_angle_gamma                 91.358622
_cell_volume                      1124.9279819

loop_
_atom_site_label
_atom_site_type_symbol
_atom_type_description
_atom_site_fract_x
_atom_site_fract_y
_atom_site_fract_z
_atom_type_partial_charge
C1    C     C_R   0.500523 0.262392 0.499643 0.554329
C2    C     C_R   0.457840 0.934374 0.380113 -0.144959
C3    C     C_R   0.486953 0.870768 0.502418 -0.037613
C4    C     C_R   0.261605 0.502420 0.503131 0.548300
C5    C     C_R   0.504054 0.937832 0.626225 0.048454
C6    C     C_3   0.604019 0.929293 0.729516 0.152526
C7    C     C_3   0.620326 0.068819 0.716474 0.148632
C8    C     C_R   0.566959 0.586926 0.071965 0.197505
C9    C     C_R   0.426630 0.420522 0.077533 0.006381
C10   C     C_R   0.426825 0.419555 0.928966 0.089226
C11   C     C_R   0.567283 0.586638 0.924556 0.222735
C12   C     C_R   0.055012 0.460898 0.629882 0.034056
C13   C     C_3   0.703618 0.606362 0.915569 -0.257527
C14   C     C_3   0.702892 0.606923 0.074160 -0.273642
C15   C     C_R   0.497682 0.737688 0.500498 0.548501
C16   C     C_R   0.736978 0.491249 0.498141 0.531621
C17   C     C_R   0.100987 0.448426 0.766370 -0.080743
C18   C     C_R   0.033908 0.383866 0.870429 -0.121634
C19   C     C_R   0.919539 0.331865 0.841373 -0.116264
C20   C     C_R   0.866719 0.355929 0.713588 -0.103560
C21   C     C_R   0.929621 0.430589 0.612248 0.016871
C22   C     C_1   0.354025 0.325357 0.861775 0.277967
C23   C     C_R   0.126306 0.503253 0.510570 -0.001653
C24   C     C_R   0.066466 0.535957 0.388522 -0.155333
C25   C     C_R   0.939515 0.529152 0.383625 -0.154940
C26   C     C_R   0.870188 0.478405 0.495508 -0.004697
C27   C     C_R   0.511704 0.065045 0.623366 0.066887
C28   C     C_R   0.494059 0.129070 0.499584 -0.027494
C29   C     C_R   0.460477 0.063042 0.379013 -0.143281
Cl1   Cl    Cl    0.596089 0.156122 0.873817 -0.569341
Cl2   Cl    Cl    0.540315 0.877315 0.894495 -0.565237
Cu1   Cu    Cu3+1 0.499990 0.499980 0.640670 1.002411
Cu2   Cu    Cu3+1 0.500010 0.500020 0.359330 0.961051
H1    H     H_    0.117823 0.571110 0.297631 0.140209
H2    H     H_    0.071509 0.373244 0.973378 0.114804
H3    H     H_    0.869158 0.278047 0.920201 0.164896
H4    H     H_    0.775930 0.317332 0.695614 0.165384
H5    H     H_    0.895687 0.565455 0.292826 0.126405
H6    H     H_    0.440380 0.110326 0.282905 0.174681
H7    H     H_    0.437525 0.885207 0.284210 0.182166
H8    H     H_    0.684532 0.876856 0.689722 0.078428
H9    H     H_    0.706741 0.096617 0.658505 0.065614
H10   H     H_    0.369958 0.354391 0.136464 0.125450
H11   H     H_    0.752030 0.526397 0.870308 0.160082
H12   H     H_    0.731601 0.696577 0.868689 0.166421
H13   H     H_    0.750726 0.526704 0.117210 0.144766
H14   H     H_    0.729031 0.697967 0.119661 0.154342
H15   H     H_    0.184811 0.492833 0.798719 0.144194
N1    N     N_R   0.500790 0.500930 0.147930 -0.249054
N2    N     N_R   0.500790 0.500890 0.852020 -0.248929
N3    N     N_1   0.296005 0.248239 0.809094 -0.255160
O1    O     O_R   0.500000 0.319640 0.618810 -0.464116
O2    O     O_R   0.500010 0.319680 0.381230 -0.508590
O3    O     O_R   0.319640 0.499980 0.618820 -0.517741
O4    O     O_R   0.319650 0.500020 0.381230 -0.511514
O5    O     O_R   0.499990 0.680320 0.618770 -0.471010
O6    O     O_R   0.500000 0.680360 0.381190 -0.501490
O7    O     O_R   0.680350 0.499980 0.618770 -0.520823
O8    O     O_R   0.680360 0.500020 0.381180 -0.508950

loop_
_geom_bond_atom_site_label_1
_geom_bond_atom_site_label_2
_ccdc_geom_bond_type
C12   C17   A    
Cu2   O4    S    
C1    C28   S    
Cu2   O6    S    
C21   C26   A    
C24   C25   A    
C6    C7    S    
C25   H5    S    
C15   O6    A    
C9    C10   A    
C7    C27   S    
C19   C20   A    
C17   H15   S    
Cu1   O7    S    
C23   C24   A    
C15   O5    A    
C29   H6    S    
C6    Cl2   S    
C9    N1    A    
C14   H13   S    
C7    Cl1   S    
C16   O7    A    
C13   C14   S    
C10   C22   S    
C13   H12   S    
C20   H4    S    
C11   C13   S    
C12   C23   A    
Cu1   N2    S    
C14   H14   S    
C16   O8    A    
C8    C11   A    
C8    N1    A    
Cu1   O3    S    
C28   C29   A    
Cu1   O5    S    
C17   C18   A    
C2    C3    A    
C19   H3    S    
C2    C29   A    
C4    O4    A    
Cu2   O2    S    
C5    C6    S    
C1    O1    A    
C9    H10   S    
Cu2   N1    S    
C10   N2    A    
C2    H7    S    
C3    C15   S    
C20   C21   A    
Cu2   O8    S    
C18   C19   A    
C18   H2    S    
C7    H9    S    
C27   C28   A    
C11   N2    A    
C4    C23   S    
C1    O2    A    
Cu1   O1    S    
C8    C14   S    
C4    O3    A    
C25   C26   A    
C5    C27   A    
C12   C21   A    
C6    H8    S    
C13   H11   S    
C24   H1    S    
Cu1   Cu2   S    
C22   N3    T    
C3    C5    A    
C16   C26   S    
