data_mof_unit_48690.cif
_audit_creation_date              2012-12-11T14:49:42-0500
_audit_creation_method            fapswitch 2.2
_symmetry_space_group_name_H-M    P1
_symmetry_Int_Tables_number       1
_space_group_crystal_system       monoclinic
_cell_length_a                    16.772612
_cell_length_b                    7.029787
_cell_length_c                    16.92335
_cell_angle_alpha                 90.0
_cell_angle_beta                  100.797716
_cell_angle_gamma                 90.0
_cell_volume                      1960.06743241

loop_
_atom_site_label
_atom_site_type_symbol
_atom_type_description
_atom_site_fract_x
_atom_site_fract_y
_atom_site_fract_z
_atom_type_partial_charge
O1    O     O_R   0.579510 0.506290 0.439030 -0.519663
O2    O     O_R   0.420490 0.006290 0.560970 -0.519663
O3    O     O_R   0.412540 0.170090 0.405290 -0.545337
O4    O     O_R   0.587460 0.670090 0.594710 -0.545337
C1    C     C_R   0.384889 0.345664 0.382439 0.690236
C2    C     C_R   0.615111 0.845664 0.617561 0.690236
O5    O     O_R   0.578390 0.176230 0.429330 -0.537576
O6    O     O_R   0.421610 0.676230 0.570670 -0.537576
O7    O     O_R   0.587530 0.011250 0.585190 -0.537812
O8    O     O_R   0.412470 0.511250 0.414810 -0.537812
C3    C     C_R   0.603913 0.345074 0.412758 0.751216
C4    C     C_R   0.396087 0.845074 0.587242 0.751216
O9    O     O_3   0.502800 0.340940 0.551110 -0.359204
O10   O     O_3   0.497200 0.840940 0.448890 -0.359204
V1    V     V_3+5 0.499480 0.064020 0.490520 1.496453
V2    V     V_3+5 0.500520 0.564020 0.509480 1.496454
C5    C     C_R   0.170439 0.916648 0.865698 -0.215230
C6    C     C_R   0.829561 0.416648 0.134302 -0.215231
C7    C     C_R   0.335341 0.852243 0.641022 -0.128067
C8    C     C_R   0.664659 0.352243 0.358978 -0.128067
C9    C     C_R   0.205136 0.746947 0.667523 -0.119080
C10   C     C_R   0.794864 0.246947 0.332477 -0.119080
C11   C     C_R   0.263272 0.749564 0.618699 -0.225992
C12   C     C_R   0.736727 0.249564 0.381301 -0.225992
C13   C     C_R   0.350225 0.952073 0.715199 0.391732
C14   C     C_R   0.649775 0.452073 0.284801 0.391732
C15   C     C_R   0.292555 0.942573 0.768416 -0.080747
C16   C     C_R   0.707445 0.442573 0.231584 -0.080748
C17   C     C_R   0.218682 0.840702 0.741909 0.062188
C18   C     C_R   0.781318 0.340702 0.258091 0.062188
C19   C     C_R   0.158258 0.832367 0.789639 -0.286803
C20   C     C_R   0.841742 0.332367 0.210361 -0.286802
C21   C     C_R   0.245651 0.002400 0.895972 0.364458
C22   C     C_R   0.754349 0.502399 0.104028 0.364458
C23   C     C_R   0.304739 0.024379 0.847316 0.384057
C24   C     C_R   0.695261 0.524379 0.152684 0.384057
H1    H     H_    0.101122 0.761040 0.767299 0.135415
H2    H     H_    0.898878 0.261040 0.232701 0.135415
H3    H     H_    0.149456 0.668210 0.647399 0.114366
H4    H     H_    0.850544 0.168210 0.352601 0.114366
H5    H     H_    0.251460 0.672384 0.562263 0.118934
H6    H     H_    0.748540 0.172384 0.437737 0.118934
C25   C     C_3   0.777608 0.694673 0.803918 0.163806
C26   C     C_3   0.222392 0.194673 0.196082 0.163806
H7    H     H_    0.755482 0.667191 0.860539 0.134211
H8    H     H_    0.244518 0.167191 0.139461 0.134211
C27   C     C_3   0.705440 0.672852 0.732451 -0.357472
C28   C     C_3   0.294560 0.172852 0.267549 -0.357472
H9    H     H_    0.650946 0.623114 0.755188 0.140788
H10   H     H_    0.349054 0.123114 0.244811 0.140788
H11   H     H_    0.718667 0.562943 0.689335 0.197712
H12   H     H_    0.281333 0.062943 0.310665 0.197712
H13   H     H_    0.883166 0.826786 0.717521 0.067927
H14   H     H_    0.116834 0.326786 0.282479 0.067927
H15   H     H_    0.777607 0.827794 0.610326 0.092749
H16   H     H_    0.222392 0.327794 0.389674 0.092749
C29   C     C_3   0.839982 0.942219 0.726502 0.349033
C30   C     C_3   0.160018 0.442220 0.273498 0.349033
C31   C     C_3   0.743705 0.038954 0.818685 -0.417440
C32   C     C_3   0.256295 0.538954 0.181315 -0.417440
C33   C     C_3   0.814020 0.902448 0.808866 0.006228
C34   C     C_3   0.185980 0.402448 0.191134 0.006228
H17   H     H_    0.764574 0.188427 0.819102 0.237993
H18   H     H_    0.235426 0.688427 0.180898 0.237993
H19   H     H_    0.725089 0.012632 0.877494 0.141863
H20   H     H_    0.274911 0.512632 0.122506 0.141864
C35   C     C_3   0.686861 0.863530 0.687543 0.002460
C36   C     C_3   0.313138 0.363530 0.312457 0.002460
C37   C     C_3   0.764362 0.929219 0.656678 -0.363877
C38   C     C_3   0.235638 0.429219 0.343322 -0.363876
C39   C     C_3   0.669262 0.012906 0.749823 -0.306058
C40   C     C_3   0.330738 0.512906 0.250177 -0.306058
H21   H     H_    0.616095 0.966715 0.775599 0.201899
H22   H     H_    0.383905 0.466715 0.224401 0.201899
H23   H     H_    0.653663 0.152873 0.720220 0.186822
H24   H     H_    0.346337 0.652874 0.279780 0.186822
H25   H     H_    0.752783 0.070117 0.626695 0.167750
H26   H     H_    0.247217 0.570117 0.373305 0.167750
O11   O     O_R   0.087500 0.266000 0.085220 -0.520436
O12   O     O_R   0.912500 0.766000 0.914780 -0.520435
O13   O     O_R   0.921600 0.589950 0.070670 -0.528383
O14   O     O_R   0.078400 0.089950 0.929330 -0.528383
C41   C     C_R   0.895352 0.421754 0.086502 0.745323
C42   C     C_R   0.104647 0.921754 0.913498 0.745323
O15   O     O_R   0.087460 0.596020 0.094710 -0.513090
O16   O     O_R   0.912540 0.096020 0.905290 -0.513090
O17   O     O_R   0.079520 0.760970 0.939020 -0.546435
O18   O     O_R   0.920480 0.260970 0.060980 -0.546435
C43   C     C_R   0.115139 0.424819 0.119220 0.703887
C44   C     C_R   0.884861 0.924819 0.880780 0.703887
O19   O     O_3   0.997180 0.425140 0.948910 -0.349562
O20   O     O_3   0.002820 0.925140 0.051090 -0.349562
V3    V     V_3+5 0.000520 0.702080 0.009480 1.563029
V4    V     V_3+5 0.999480 0.202080 0.990520 1.563029
O21   O     O_3   0.877044 0.123845 0.727079 -0.518039
C45   C     C_3   0.937615 0.122313 0.679024 0.128095
H27   H     H_    0.912025 0.075456 0.616534 0.088085
H28   H     H_    0.988330 0.026125 0.705665 0.090699
C46   C     C_3   0.972195 0.321432 0.675225 -0.624899
H29   H     H_    0.999829 0.370693 0.736625 0.243820
H30   H     H_    0.019761 0.320190 0.637566 0.140066
H31   H     H_    0.923401 0.421571 0.648255 0.227950
O22   O     O_3   0.122956 0.623845 0.272921 -0.518039
C47   C     C_3   0.062385 0.622313 0.320976 0.128095
H32   H     H_    0.087976 0.575457 0.383466 0.088085
H33   H     H_    0.011670 0.526125 0.294335 0.090699
C48   C     C_3   0.027805 0.821432 0.324775 -0.624898
H34   H     H_    0.000171 0.870693 0.263375 0.243820
H35   H     H_    0.980239 0.820190 0.362434 0.140066
H36   H     H_    0.076599 0.921571 0.351745 0.227950
O23   O     O_3   0.263289 0.061906 0.975291 -0.540609
C49   C     C_3   0.284100 0.901933 0.026229 0.040978
H37   H     H_    0.285317 0.762707 0.994453 0.119737
H38   H     H_    0.238149 0.887624 0.065164 0.139954
C50   C     C_3   0.367363 0.932188 0.078822 -0.540624
H39   H     H_    0.371624 0.076059 0.106243 0.215719
H40   H     H_    0.378088 0.823846 0.127402 0.187244
H41   H     H_    0.415294 0.917825 0.042027 0.277110
O24   O     O_3   0.736711 0.561906 0.024709 -0.540609
C51   C     C_3   0.715901 0.401933 0.973771 0.040979
H42   H     H_    0.714683 0.262707 0.005547 0.119736
H43   H     H_    0.761851 0.387625 0.934836 0.139954
C52   C     C_3   0.632637 0.432187 0.921178 -0.540626
H44   H     H_    0.628376 0.576060 0.893757 0.215720
H45   H     H_    0.621913 0.323847 0.872597 0.187243
H46   H     H_    0.584706 0.417823 0.957972 0.277110
Cl1   Cl    Cl    0.392364 0.151570 0.892790 -0.524879
Cl2   Cl    Cl    0.607635 0.651567 0.107210 -0.524879
Cl3   Cl    Cl    0.442522 0.080649 0.737244 -0.618065
Cl4   Cl    Cl    0.557478 0.580650 0.262756 -0.618065
Cl5   Cl    Cl    0.850324 0.511985 0.795172 -0.686612
Cl6   Cl    Cl    0.149676 0.011985 0.204828 -0.686612

loop_
_geom_bond_atom_site_label_1
_geom_bond_atom_site_label_2
_ccdc_geom_bond_type
C30   C34   S    
C18   C20   A    
C45   C46   S    
O14   V4    S    
C38   H26   S    
C12   H6    S    
C37   H25   S    
O21   C45   S    
O1    C3    A    
C42   O17   A    
C40   H24   S    
C13   Cl3   S    
C2    O7    A    
C47   H33   S    
C52   H44   S    
C27   H9    S    
C33   C44   S    
O5    C3    A    
C52   H45   S    
C15   C17   A    
C32   C40   S    
C50   H39   S    
C34   C43   S    
C32   C34   S    
C49   H37   S    
O16   V4    S    
O15   V3    S    
C8    C12   A    
C26   H8    S    
C50   H40   S    
C45   H28   S    
C48   H34   S    
C21   O23   S    
C20   H2    S    
C22   C24   A    
C14   Cl4   S    
C51   C52   S    
C36   C40   S    
C28   H10   S    
C41   O18   A    
C32   H20   S    
O6    V2    S    
C48   H35   S    
C24   Cl2   S    
C5    C21   A    
C1    C36   S    
C27   C35   S    
C47   H32   S    
O13   C41   A    
C51   H43   S    
O18   V4    S    
C3    C8    S    
C31   C33   S    
O11   V4    S    
C40   H22   S    
O16   C44   A    
C39   H21   S    
O15   C43   A    
C30   C38   S    
C52   H46   S    
C27   H11   S    
C15   C23   A    
C9    C17   A    
C19   H1    S    
C35   C37   S    
O4    V2    S    
C7    C11   A    
O19   V3    S    
O13   V3    S    
C46   H29   S    
C9    H3    S    
O6    C4    A    
C50   H41   S    
C10   H4    S    
C45   H27   S    
O20   V4    S    
C6    C41   S    
O1    V2    S    
C28   C36   S    
C23   Cl1   S    
O2    V1    S    
C6    C22   A    
H15   C37   S    
C25   Cl5   S    
C49   H38   S    
O4    C2    A    
C2    C35   S    
C46   H30   S    
H16   C38   S    
C9    C11   A    
C13   C15   A    
C5    C19   A    
C48   H36   S    
C10   C12   A    
C31   H17   S    
C6    C20   A    
O3    V1    S    
C51   H42   S    
C25   C33   S    
O2    C4    A    
H14   C30   S    
C22   O24   S    
H13   C29   S    
C10   C18   A    
O23   C49   S    
C14   C16   A    
O3    C1    A    
O24   C51   S    
C29   C33   S    
C26   Cl6   S    
O14   C42   A    
C11   H5    S    
C32   H18   S    
C5    C42   S    
C26   C34   S    
C16   C18   A    
O7    V1    S    
C1    O8    A    
C25   H7    S    
O8    V2    S    
C31   H19   S    
O19   V4    S    
C39   H23   S    
C8    C14   A    
O17   V3    S    
C4    C7    S    
O5    V1    S    
O20   V3    S    
C21   C23   A    
C35   C39   S    
C49   C50   S    
O12   C44   A    
C7    C13   A    
O11   C43   A    
C28   H12   S    
C46   H31   S    
C16   C24   A    
C17   C19   A    
C29   O21   S    
O9    V2    S    
O22   C47   S    
C36   C38   S    
O10   V1    S    
C30   O22   S    
C29   C37   S    
O12   V3    S    
C25   C27   S    
C47   C48   S    
C26   C28   S    
C31   C39   S    
