data_mof_unit_20197.cif
_audit_creation_date              2012-12-11T14:58:24-0500
_audit_creation_method            fapswitch 2.2
_symmetry_space_group_name_H-M    P1
_symmetry_Int_Tables_number       1
_space_group_crystal_system       triclinic
_cell_length_a                    10.97921
_cell_length_b                    11.059732
_cell_length_c                    18.827552
_cell_angle_alpha                 90.426447
_cell_angle_beta                  90.225842
_cell_angle_gamma                 59.473191
_cell_volume                      1969.2376903

loop_
_atom_site_label
_atom_site_type_symbol
_atom_type_description
_atom_site_fract_x
_atom_site_fract_y
_atom_site_fract_z
_atom_type_partial_charge
C1    C     C_R   0.360251 0.771181 0.397557 0.638739
C2    C     C_R   0.594299 0.083018 0.177006 0.135856
C3    C     C_R   0.349008 0.312434 0.169578 -0.064177
C4    C     C_R   0.456870 0.208727 0.281929 0.397589
C5    C     C_R   0.465683 0.206349 0.208810 0.018439
C6    C     C_R   0.046705 0.688387 0.294642 0.360344
C7    C     C_R   0.935861 0.797322 0.333091 0.485279
C8    C     C_R   0.587013 0.967336 0.154876 -0.071153
C9    C     C_R   0.700791 0.851933 0.121643 -0.128951
C10   C     C_R   0.234040 0.422645 0.206152 -0.109470
C11   C     C_R   0.231845 0.431370 0.280194 -0.025671
C12   C     C_R   0.382242 0.350821 0.390010 0.590374
C13   C     C_R   0.883018 0.769814 0.394421 0.268566
C14   C     C_R   0.942493 0.630301 0.417313 0.322850
C15   C     C_R   0.049031 0.520883 0.377500 -0.172074
C16   C     C_R   0.105350 0.548271 0.316709 -0.079913
C17   C     C_R   0.349042 0.326020 0.318040 0.010367
C18   C     C_R   0.702704 0.414197 0.278882 0.433517
C19   C     C_R   0.733005 0.409064 0.206918 -0.099890
C20   C     C_R   0.873895 0.340409 0.185667 0.000807
C21   C     C_R   0.982894 0.297010 0.235759 -0.087548
C22   C     C_R   0.952937 0.303127 0.307549 -0.146475
C23   C     C_R   0.776295 0.379505 0.402860 0.600708
C24   C     C_R   0.813303 0.358998 0.328895 0.089608
C25   C     C_R   0.476959 0.772070 0.284828 0.234723
C26   C     C_R   0.461664 0.783191 0.210951 -0.213976
C27   C     C_R   0.328812 0.870487 0.181979 -0.054250
C28   C     C_R   0.210371 0.939047 0.227145 0.413229
C29   C     C_R   0.222006 0.915678 0.298840 0.383037
C30   C     C_R   0.353726 0.827426 0.327701 0.034839
C31   C     C_R   0.461684 0.284764 0.717751 0.303581
C32   C     C_R   0.441591 0.281959 0.789269 -0.146146
C33   C     C_R   0.306455 0.330003 0.815209 -0.083296
C34   C     C_R   0.370332 0.708779 0.611147 0.561180
C35   C     C_R   0.188383 0.390072 0.769467 0.365243
C36   C     C_R   0.208301 0.395232 0.696940 0.370984
C37   C     C_R   0.345523 0.340012 0.670881 0.002763
C38   C     C_R   0.741442 0.471215 0.731317 -0.026841
C39   C     C_R   0.751336 0.457482 0.804090 0.413326
C40   C     C_R   0.823412 0.323709 0.834022 0.032731
C41   C     C_R   0.873170 0.204125 0.789940 -0.158264
C42   C     C_R   0.857684 0.218943 0.716300 -0.061466
C43   C     C_R   0.794062 0.353111 0.686697 0.025352
C44   C     C_R   0.252210 0.731942 0.727433 0.195187
C45   C     C_R   0.372402 0.352110 0.597148 0.598105
C46   C     C_R   0.236380 0.769962 0.799290 -0.199520
C47   C     C_R   0.316944 0.822607 0.829469 0.006400
C48   C     C_R   0.419473 0.830539 0.788444 0.409307
C49   C     C_R   0.434252 0.794787 0.717595 -0.145169
C50   C     C_R   0.351404 0.746024 0.686348 -0.009648
C51   C     C_R   0.911739 0.317070 0.111839 0.553570
C52   C     C_R   0.326766 0.289849 0.094860 0.529110
C53   C     C_R   0.305333 0.901652 0.106307 0.562060
C54   C     C_R   0.881655 0.309183 0.905188 0.581918
C55   C     C_R   0.294819 0.289299 0.885940 0.577927
C56   C     C_R   0.760520 0.378563 0.611271 0.558061
C57   C     C_R   0.277802 0.891627 0.898596 0.571564
C58   C     C_R   0.829236 0.847235 0.115675 -0.139390
C59   C     C_R   0.843874 0.954583 0.145735 -0.038706
C60   C     C_R   0.727633 0.069836 0.179397 0.331627
Cr1   Cr    Cr6+3 0.601770 0.606860 0.505860 1.149178
Cr2   Cr    Cr6+3 0.291380 0.601660 0.495070 1.148617
Cr3   Cr    Cr6+3 0.606880 0.291510 0.499120 1.198230
Cr4   Cr    Cr6+3 0.062440 0.063090 0.008210 1.045621
Cr5   Cr    Cr6+3 0.062880 0.375170 0.998920 1.084288
Cr6   Cr    Cr6+3 0.374700 0.061720 0.992470 1.092596
H1    H     H_    0.094893 0.414968 0.397176 0.142862
H2    H     H_    0.648424 0.448150 0.168136 0.137073
H3    H     H_    0.091865 0.251944 0.218920 0.137088
H4    H     H_    0.037940 0.262503 0.345957 0.135550
H5    H     H_    0.552748 0.728718 0.176770 0.105046
H6    H     H_    0.690009 0.766613 0.100623 0.132492
H7    H     H_    0.532917 0.235427 0.824131 0.180809
H8    H     H_    0.691666 0.575640 0.709795 0.160943
H9    H     H_    0.931454 0.099394 0.811856 0.154622
H10   H     H_    0.896452 0.126697 0.682714 0.179033
H11   H     H_    0.157158 0.763960 0.830712 0.148852
H12   H     H_    0.509878 0.808173 0.687000 0.180887
H13   H     H_    0.918532 0.758342 0.090382 0.143554
H14   H     H_    0.946126 0.945411 0.144274 0.234201
H15   H     H_    0.489065 0.973684 0.163541 0.133554
H16   H     H_    0.141781 0.499188 0.177049 0.188344
O1    O     O_R   0.748800 0.497470 0.428000 -0.432266
O2    O     O_R   0.300070 0.471040 0.567100 -0.456667
O3    O     O_R   0.491670 0.258900 0.574910 -0.458119
O4    O     O_R   0.718780 0.304180 0.577850 -0.471031
O5    O     O_3   0.500010 0.500010 0.500020 -0.338369
O6    O     O_R   0.186690 0.923650 0.086970 -0.451128
O7    O     O_R   0.957250 0.194250 0.084630 -0.457724
O8    O     O_R   0.934970 0.407490 0.085330 -0.544283
O9    O     O_R   0.203780 0.365190 0.067090 -0.514977
O10   O     O_R   0.417600 0.174890 0.067840 -0.533202
O11   O     O_R   0.375320 0.946260 0.070860 -0.536112
O12   O     O_R   0.476420 0.724060 0.429470 -0.439077
O13   O     O_R   0.160600 0.919630 0.926660 -0.543239
O14   O     O_R   0.933060 0.190520 0.936020 -0.535425
O15   O     O_R   0.908880 0.403460 0.925020 -0.399486
O16   O     O_R   0.179600 0.361450 0.918490 -0.445686
O17   O     O_R   0.391510 0.170860 0.907530 -0.479556
O18   O     O_R   0.351130 0.942530 0.922260 -0.411787
O19   O     O_3   0.166667 0.166667 0.999870 -0.286823
O20   O     O_R   0.264580 0.744340 0.416750 -0.464144
O21   O     O_R   0.309380 0.472470 0.418200 -0.514038
O22   O     O_R   0.501710 0.260430 0.414300 -0.391301
O23   O     O_R   0.728090 0.305600 0.428960 -0.435021
O24   O     O_R   0.738760 0.495930 0.588610 -0.471626
O25   O     O_R   0.467110 0.722640 0.578360 -0.534958
O26   O     O_R   0.254530 0.742800 0.577360 -0.431342
F1    F     F_    0.558701 0.095768 0.317949 -0.542950
O27   O     O_3   0.776271 0.881573 0.431297 -0.572863
H17   H     H_    0.747968 0.845711 0.472302 0.362039
F2    F     F_    0.903004 0.600620 0.479948 -0.581485
F3    F     F_    0.566268 0.468884 0.299772 -0.614741
O28   O     O_3   0.609592 0.705849 0.315537 -0.628360
H18   H     H_    0.681754 0.684110 0.278325 0.308901
F4    F     F_    0.080672 0.026472 0.201384 -0.634277
F5    F     F_    0.104140 0.977298 0.340058 -0.564112
F6    F     F_    0.595999 0.232147 0.694642 -0.620574
F7    F     F_    0.055906 0.435520 0.794078 -0.571306
F8    F     F_    0.095361 0.450758 0.652377 -0.545347
F9    F     F_    0.699592 0.575001 0.845043 -0.575319
O29   O     O_3   0.169392 0.685418 0.696102 -0.637381
H19   H     H_    0.101304 0.688537 0.731576 0.355133
F10   F     F_    0.883057 0.931758 0.312703 -0.491366
F11   F     F_    0.501061 0.880109 0.815101 -0.555021
O30   O     O_3   0.743940 0.161840 0.221127 -0.635865
H20   H     H_    0.845682 0.122401 0.230091 0.418381
F12   F     F_    0.101419 0.720627 0.238314 -0.616413

loop_
_geom_bond_atom_site_label_1
_geom_bond_atom_site_label_2
_ccdc_geom_bond_type
C33   C55   S    
C4    F1    S    
O30   H20   S    
C41   C42   A    
C35   F7    S    
C19   C20   A    
C9    H6    S    
Cr5   O19   S    
C7    F10   S    
O28   H18   S    
C14   F2    S    
C26   C27   A    
C13   O27   S    
C23   O1    A    
C18   C24   A    
C34   O25   A    
C28   C29   A    
Cr5   O16   S    
C12   O22   A    
C20   C51   S    
C51   O8    A    
C38   C39   A    
C2    C60   A    
Cr2   O26   S    
C15   C16   A    
C23   O23   A    
C49   H12   S    
C18   C19   A    
Cr6   O18   S    
O27   H17   S    
C28   F4    S    
C48   F11   S    
C11   C17   A    
C47   C48   A    
C1    O12   A    
C12   C17   S    
C23   C24   S    
C54   O15   A    
Cr3   O23   S    
C6    C16   A    
Cr1   O5    S    
C54   O14   A    
C59   C60   A    
C21   C22   A    
Cr3   O3    S    
C26   H5    S    
Cr6   O19   S    
Cr4   O19   S    
Cr4   O7    S    
C36   F8    S    
C18   F3    S    
C44   C46   A    
Cr5   O8    S    
C34   C50   S    
C53   O11   A    
C8    H15   S    
Cr4   O14   S    
C12   O21   A    
Cr1   O1    S    
C39   C40   A    
Cr1   O12   S    
C8    C9    A    
Cr6   O10   S    
C58   C59   A    
C57   O18   A    
C29   F5    S    
C10   H16   S    
C31   C37   A    
C21   H3    S    
C35   C36   A    
Cr6   O17   S    
C45   O3    A    
C31   F6    S    
C29   C30   A    
C41   H9    S    
C11   C16   S    
C56   O4    A    
C31   C32   A    
C7    C13   A    
C15   H1    S    
C19   H2    S    
Cr1   O24   S    
C56   O24   A    
C58   H13   S    
Cr6   O11   S    
C4    C17   A    
C40   C41   A    
C40   C54   S    
Cr3   O4    S    
C22   C24   A    
C52   O10   A    
C45   O2    A    
C42   C43   A    
C37   C45   S    
C32   H7    S    
Cr2   O21   S    
C38   H8    S    
C44   C50   A    
C25   C30   A    
Cr5   O9    S    
Cr2   O2    S    
C46   C47   A    
C9    C58   A    
Cr3   O5    S    
C2    C8    A    
Cr4   O13   S    
Cr3   O22   S    
C3    C5    A    
C59   H14   S    
C46   H11   S    
C3    C52   S    
C27   C53   S    
C6    C7    A    
Cr2   O5    S    
C42   H10   S    
C39   F9    S    
C34   O26   A    
C32   C33   A    
C60   O30   S    
C25   C26   A    
C6    F12   S    
C38   C43   A    
C3    C10   A    
C25   O28   S    
C51   O7    A    
C48   C49   A    
C55   O16   A    
C44   O29   S    
C1    C30   S    
C33   C35   A    
Cr4   O6    S    
C53   O6    A    
Cr1   O25   S    
C10   C11   A    
Cr5   O15   S    
C2    C5    S    
C43   C56   S    
C4    C5    A    
C20   C21   A    
C36   C37   A    
C49   C50   A    
C57   O13   A    
C55   O17   A    
C47   C57   S    
C14   C15   A    
C52   O9    A    
Cr2   O20   S    
O29   H19   S    
C13   C14   A    
C1    O20   A    
C22   H4    S    
C27   C28   A    
