data_mof_unit_12680.cif
_audit_creation_date              2012-12-10T22:16:24-0500
_audit_creation_method            fapswitch 2.2
_symmetry_space_group_name_H-M    P1
_symmetry_Int_Tables_number       1
_space_group_crystal_system       triclinic
_cell_length_a                    26.766901
_cell_length_b                    26.768155
_cell_length_c                    26.758305
_cell_angle_alpha                 89.987235
_cell_angle_beta                  89.988645
_cell_angle_gamma                 90.000197
_cell_volume                      19172.3395266

loop_
_atom_site_label
_atom_site_type_symbol
_atom_type_description
_atom_site_fract_x
_atom_site_fract_y
_atom_site_fract_z
_atom_type_partial_charge
C1    C     C_R   0.571784 0.296712 0.296709 0.946276
C2    C     C_R   0.428643 0.297087 0.297132 0.918893
C3    C     C_R   0.177685 0.886790 0.322308 -0.177428
C4    C     C_R   0.321802 0.113788 0.822015 -0.249861
C5    C     C_R   0.678126 0.886144 0.178262 -0.247084
C6    C     C_R   0.178290 0.113878 0.321858 -0.242201
C7    C     C_R   0.821599 0.886021 0.678230 -0.236390
C8    C     C_R   0.678065 0.886216 0.821798 -0.243770
C9    C     C_R   0.321601 0.113996 0.178236 -0.239820
C10   C     C_R   0.821685 0.885976 0.321611 -0.258313
C11   C     C_R   0.178228 0.113799 0.678029 -0.243687
C12   C     C_R   0.322344 0.886837 0.177658 -0.177394
C13   C     C_R   0.703183 0.703226 0.428294 0.926534
C14   C     C_R   0.678411 0.114142 0.821413 -0.228286
C15   C     C_R   0.178333 0.886051 0.678196 -0.247662
C16   C     C_R   0.821476 0.114270 0.321273 -0.227319
C17   C     C_R   0.886177 0.821748 0.678081 -0.239782
C18   C     C_R   0.114169 0.178592 0.321590 -0.226625
C19   C     C_R   0.886325 0.321913 0.822046 -0.245345
C20   C     C_R   0.115307 0.679480 0.179689 -0.214481
C21   C     C_R   0.885726 0.178655 0.321302 -0.179736
C22   C     C_R   0.113715 0.821815 0.677974 -0.232772
C23   C     C_R   0.886070 0.678142 0.178357 -0.235121
C24   C     C_R   0.297238 0.297230 0.571167 0.941920
C25   C     C_R   0.113637 0.321906 0.822187 -0.242951
C26   C     C_R   0.113858 0.178280 0.678087 -0.243012
C27   C     C_R   0.886312 0.821879 0.321899 -0.180439
C28   C     C_R   0.114192 0.678443 0.821382 -0.228434
C29   C     C_R   0.886071 0.321639 0.178353 -0.178197
C30   C     C_R   0.113928 0.821875 0.321650 -0.241446
C31   C     C_R   0.886127 0.178335 0.678113 -0.228125
C32   C     C_R   0.113867 0.321703 0.178080 -0.237357
C33   C     C_R   0.886615 0.677594 0.822088 -0.235103
C34   C     C_R   0.177211 0.322783 0.887298 -0.172441
C35   C     C_R   0.428293 0.703171 0.296773 0.924447
C36   C     C_R   0.821801 0.678011 0.113782 -0.246605
C37   C     C_R   0.678326 0.178423 0.885959 -0.242183
C38   C     C_R   0.321963 0.822199 0.113600 -0.245821
C39   C     C_R   0.821194 0.678639 0.885516 -0.222108
C40   C     C_R   0.177974 0.322027 0.113507 -0.174405
C41   C     C_R   0.322522 0.822506 0.887031 -0.177394
C42   C     C_R   0.677751 0.177976 0.113531 -0.246636
C43   C     C_R   0.822014 0.321833 0.113737 -0.240447
C44   C     C_R   0.178330 0.678199 0.886078 -0.242807
C45   C     C_R   0.321561 0.178447 0.114015 -0.175705
C46   C     C_R   0.571245 0.297211 0.702788 0.930466
C47   C     C_R   0.678046 0.821758 0.886220 -0.231295
C48   C     C_R   0.178666 0.678580 0.114348 -0.264388
C49   C     C_R   0.821484 0.321486 0.885898 -0.179960
C50   C     C_R   0.678473 0.821352 0.114227 -0.231143
C51   C     C_R   0.322397 0.177605 0.886888 -0.172815
C52   C     C_R   0.178300 0.613933 0.178404 -0.182424
C53   C     C_R   0.821629 0.386076 0.821824 -0.229755
C54   C     C_R   0.821966 0.613577 0.178035 -0.181986
C55   C     C_R   0.178373 0.386009 0.821859 -0.253364
C56   C     C_R   0.819490 0.616306 0.819375 -0.187380
C57   C     C_R   0.296612 0.703374 0.571909 0.947290
C58   C     C_R   0.178213 0.386208 0.178014 -0.244143
C59   C     C_R   0.179128 0.614765 0.820873 -0.187231
C60   C     C_R   0.821827 0.386059 0.178364 -0.237074
C61   C     C_R   0.386022 0.821847 0.178404 -0.240840
C62   C     C_R   0.614680 0.179032 0.820956 -0.186223
C63   C     C_R   0.385926 0.821505 0.821779 -0.242244
C64   C     C_R   0.613211 0.177690 0.177704 -0.176664
C65   C     C_R   0.386200 0.178239 0.822007 -0.240915
C66   C     C_R   0.614329 0.821276 0.178725 -0.180744
C67   C     C_R   0.386305 0.178145 0.177942 -0.235828
C68   C     C_R   0.702970 0.296998 0.428536 0.921562
C69   C     C_R   0.614417 0.821204 0.821201 -0.184954
C70   C     C_R   0.178016 0.822196 0.386420 -0.243611
C71   C     C_R   0.820288 0.179701 0.615379 -0.183267
C72   C     C_R   0.178979 0.178985 0.385400 -0.178775
C73   C     C_R   0.821086 0.821091 0.614525 -0.182210
C74   C     C_R   0.821366 0.178739 0.385608 -0.249620
C75   C     C_R   0.178515 0.821466 0.614108 -0.180602
C76   C     C_R   0.821796 0.821619 0.386094 -0.228720
C77   C     C_R   0.178139 0.178147 0.613690 -0.175039
C78   C     C_R   0.678256 0.613816 0.677902 -0.240480
C79   C     C_R   0.702711 0.428881 0.702673 0.928464
C80   C     C_R   0.321706 0.386132 0.321872 -0.235895
C81   C     C_R   0.322361 0.613232 0.677613 -0.264823
C82   C     C_R   0.678061 0.386205 0.321762 -0.238263
C83   C     C_R   0.321760 0.613829 0.321707 -0.179327
C84   C     C_R   0.677934 0.386579 0.677686 -0.227279
C85   C     C_R   0.678231 0.613954 0.321656 -0.249404
C86   C     C_R   0.321557 0.386014 0.678196 -0.230100
C87   C     C_R   0.386131 0.321758 0.678101 -0.257251
C88   C     C_R   0.614560 0.678938 0.321070 -0.182498
C89   C     C_R   0.386189 0.321758 0.321931 -0.236501
C90   C     C_R   0.297119 0.571318 0.297125 0.949303
C91   C     C_R   0.614087 0.678481 0.678143 -0.254564
C92   C     C_R   0.385524 0.678695 0.321064 -0.221111
C93   C     C_R   0.613722 0.321899 0.677997 -0.237801
C94   C     C_R   0.385127 0.679235 0.679080 -0.210967
C95   C     C_R   0.614708 0.320925 0.320906 -0.180054
C96   C     C_R   0.678323 0.321500 0.385919 -0.232081
C97   C     C_R   0.320657 0.679294 0.614993 -0.184305
C98   C     C_R   0.678797 0.678972 0.385440 -0.221108
C99   C     C_R   0.322069 0.322098 0.613457 -0.175087
C100  C     C_R   0.321524 0.678348 0.385880 -0.258518
C101  C     C_R   0.702876 0.571359 0.297090 0.918735
C102  C     C_R   0.679573 0.320454 0.615244 -0.183066
C103  C     C_R   0.321253 0.321261 0.385659 -0.177739
C104  C     C_R   0.677036 0.677014 0.612415 -0.174186
C105  C     C_R   0.700572 0.136763 0.136749 0.295443
C106  C     C_R   0.302504 0.866638 0.867006 0.255466
C107  C     C_R   0.865700 0.134370 0.698360 0.284768
C108  C     C_R   0.134229 0.866117 0.301546 0.260542
C109  C     C_R   0.302191 0.133653 0.866721 0.262435
C110  C     C_R   0.700187 0.863819 0.136111 0.288319
C111  C     C_R   0.135705 0.135762 0.300201 0.284170
C112  C     C_R   0.428129 0.703358 0.703329 0.934345
C113  C     C_R   0.296942 0.428503 0.702975 0.917508
C114  C     C_R   0.864449 0.864453 0.699603 0.285577
C115  C     C_R   0.699503 0.864526 0.864604 0.285514
C116  C     C_R   0.300731 0.135084 0.134810 0.257971
C117  C     C_R   0.866186 0.865894 0.301689 0.260923
C118  C     C_R   0.136463 0.136452 0.700398 0.293335
C119  C     C_R   0.302459 0.866981 0.133368 0.262061
C120  C     C_R   0.699907 0.135761 0.864131 0.286843
C121  C     C_R   0.135858 0.864024 0.699966 0.290455
C122  C     C_R   0.864851 0.135399 0.300354 0.250381
C123  C     C_R   0.865525 0.301346 0.865817 0.257298
C124  C     C_R   0.297348 0.571070 0.702662 0.916659
C125  C     C_R   0.138475 0.702317 0.138597 0.295175
C126  C     C_R   0.863335 0.700567 0.136682 0.290955
C127  C     C_R   0.133122 0.302723 0.867318 0.259782
C128  C     C_R   0.135569 0.699688 0.864359 0.286487
C129  C     C_R   0.865798 0.301317 0.134480 0.259665
C130  C     C_R   0.134369 0.301434 0.134050 0.257914
C131  C     C_R   0.866687 0.697084 0.866661 0.276950
C132  C     C_R   0.197326 0.633105 0.133442 0.277404
C133  C     C_R   0.800380 0.364599 0.864856 0.255364
C134  C     C_R   0.865497 0.634201 0.198721 0.256619
C135  C     C_R   0.702844 0.428683 0.297127 0.923716
C136  C     C_R   0.137577 0.362309 0.798809 0.294276
C137  C     C_R   0.797178 0.638873 0.861039 0.251143
C138  C     C_R   0.198257 0.365917 0.133748 0.262024
C139  C     C_R   0.136252 0.636053 0.799551 0.260750
C140  C     C_R   0.865321 0.365047 0.199157 0.257905
C141  C     C_R   0.197599 0.366532 0.866950 0.265568
C142  C     C_R   0.801753 0.633776 0.134082 0.271715
C143  C     C_R   0.864093 0.364176 0.800073 0.289475
C144  C     C_R   0.136284 0.636097 0.200567 0.240689
C145  C     C_R   0.799842 0.363818 0.136176 0.286259
C146  C     C_R   0.297065 0.428610 0.297103 0.919271
C147  C     C_R   0.199497 0.635064 0.864699 0.269962
C148  C     C_R   0.136672 0.363297 0.200566 0.287942
C149  C     C_R   0.863450 0.636361 0.799116 0.271246
C150  C     C_R   0.365811 0.866135 0.198431 0.260093
C151  C     C_R   0.635815 0.136026 0.799762 0.261935
C152  C     C_R   0.366209 0.802025 0.866565 0.269433
C153  C     C_R   0.633129 0.197655 0.133463 0.263205
C154  C     C_R   0.362929 0.137117 0.799155 0.291256
C155  C     C_R   0.634374 0.865344 0.198836 0.264344
C156  C     C_R   0.365397 0.198822 0.134304 0.257815
C157  C     C_R   0.703002 0.571460 0.702901 0.927359
C158  C     C_R   0.635186 0.800331 0.864574 0.256209
C159  C     C_R   0.633873 0.134193 0.198447 0.261280
C160  C     C_R   0.362228 0.862229 0.798605 0.293017
C161  C     C_R   0.635059 0.199471 0.864708 0.264151
C162  C     C_R   0.362947 0.799196 0.137040 0.289328
C163  C     C_R   0.634941 0.864814 0.800607 0.270022
C164  C     C_R   0.363954 0.136102 0.200075 0.286857
C165  C     C_R   0.635593 0.799976 0.135819 0.258224
C166  C     C_R   0.366137 0.198043 0.866500 0.256949
C167  C     C_R   0.136875 0.799339 0.363144 0.289171
C168  C     C_R   0.071497 0.797044 0.296975 0.915776
C169  C     C_R   0.863270 0.200921 0.636517 0.253028
C170  C     C_R   0.199300 0.135108 0.365154 0.262665
C171  C     C_R   0.800117 0.864319 0.635444 0.263319
C172  C     C_R   0.865312 0.199105 0.365048 0.264919
C173  C     C_R   0.134943 0.800826 0.634677 0.263781
C174  C     C_R   0.798992 0.863050 0.363223 0.293701
C175  C     C_R   0.198572 0.134377 0.634068 0.257892
C176  C     C_R   0.864737 0.800529 0.635004 0.266491
C177  C     C_R   0.136058 0.200254 0.364161 0.251410
C178  C     C_R   0.799426 0.136378 0.636184 0.269195
C179  C     C_R   0.928673 0.202885 0.702847 0.933007
C180  C     C_R   0.197649 0.866849 0.366485 0.261508
C181  C     C_R   0.134491 0.198691 0.634192 0.258673
C182  C     C_R   0.865643 0.801121 0.365379 0.254332
C183  C     C_R   0.199152 0.865036 0.634696 0.263343
C184  C     C_R   0.799053 0.136887 0.362976 0.289171
C185  C     C_R   0.697003 0.632847 0.632495 0.267685
C186  C     C_R   0.300484 0.364694 0.364950 0.256990
C187  C     C_R   0.365116 0.635111 0.699239 0.292191
C188  C     C_R   0.635140 0.364614 0.300385 0.259039
C189  C     C_R   0.302106 0.633525 0.366196 0.271496
C190  C     C_R   0.703053 0.796901 0.071564 0.931631
C191  C     C_R   0.700420 0.363821 0.635965 0.257943
C192  C     C_R   0.634359 0.634638 0.301223 0.274451
C193  C     C_R   0.362923 0.363066 0.700865 0.292204
C194  C     C_R   0.699456 0.364592 0.364598 0.285932
C195  C     C_R   0.301056 0.634780 0.634591 0.280535
C196  C     C_R   0.364360 0.364354 0.300299 0.284026
C197  C     C_R   0.638489 0.638384 0.701816 0.296829
C198  C     C_R   0.301142 0.365386 0.634304 0.249954
C199  C     C_R   0.700418 0.636411 0.363681 0.287294
C200  C     C_R   0.633930 0.366183 0.697893 0.286617
C201  C     C_R   0.297359 0.202638 0.928991 0.941113
C202  C     C_R   0.364595 0.635178 0.300328 0.245584
C203  C     C_R   0.364827 0.300617 0.365095 0.257812
C204  C     C_R   0.632994 0.697108 0.632635 0.273695
C205  C     C_R   0.362618 0.701455 0.637227 0.244170
C206  C     C_R   0.635802 0.299776 0.363977 0.252955
C207  C     C_R   0.636247 0.700640 0.363553 0.248818
C208  C     C_R   0.366256 0.302170 0.633394 0.268167
C209  C     C_R   0.636474 0.299385 0.636300 0.266090
C210  C     C_R   0.362571 0.701388 0.362448 0.288184
C211  C     C_R   0.928656 0.797098 0.702861 0.926698
C212  C     C_R   0.703544 0.296454 0.572079 0.950552
C213  C     C_R   0.071517 0.203051 0.296986 0.924474
C214  C     C_R   0.297432 0.797439 0.929082 0.949974
C215  C     C_R   0.702784 0.202854 0.071289 0.920225
C216  C     C_R   0.071425 0.202965 0.702912 0.925623
C217  C     C_R   0.928740 0.797174 0.297176 0.945741
C218  C     C_R   0.702923 0.202950 0.928595 0.921099
C219  C     C_R   0.297123 0.797194 0.071321 0.910751
C220  C     C_R   0.928482 0.203067 0.296937 0.947407
C221  C     C_R   0.071325 0.797103 0.702842 0.930319
C222  C     C_R   0.296998 0.203007 0.071448 0.940990
C223  C     C_R   0.296994 0.702954 0.428551 0.902646
C224  C     C_R   0.702865 0.797090 0.928656 0.930130
C225  C     C_R   0.203045 0.702990 0.071517 0.906047
C226  C     C_R   0.796962 0.296957 0.928505 0.947510
C227  C     C_R   0.202958 0.928574 0.702925 0.920494
C228  C     C_R   0.796947 0.071569 0.296889 0.931682
C229  C     C_R   0.202472 0.297525 0.929200 0.942257
C230  C     C_R   0.797072 0.702875 0.071382 0.925188
C231  C     C_R   0.202902 0.071347 0.297134 0.914644
C232  C     C_R   0.797029 0.928569 0.702938 0.929975
C233  C     C_R   0.797149 0.297102 0.071341 0.917402
C234  C     C_R   0.428585 0.297058 0.702885 0.912470
C235  C     C_R   0.202905 0.702879 0.928648 0.922980
C236  C     C_R   0.797165 0.071283 0.702821 0.929846
C237  C     C_R   0.202683 0.928939 0.297320 0.949502
C238  C     C_R   0.796960 0.703044 0.928442 0.937419
C239  C     C_R   0.202795 0.297205 0.071199 0.942767
C240  C     C_R   0.797031 0.928531 0.296998 0.910779
C241  C     C_R   0.202943 0.071393 0.702883 0.923901
C242  C     C_R   0.297338 0.928962 0.202655 0.949365
C243  C     C_R   0.702997 0.071492 0.796962 0.935747
C244  C     C_R   0.071442 0.297014 0.202921 0.917809
C245  C     C_R   0.571668 0.703186 0.296809 0.946729
C246  C     C_R   0.929022 0.702563 0.797411 0.928844
C247  C     C_R   0.702936 0.071466 0.202995 0.925195
C248  C     C_R   0.296992 0.928528 0.797079 0.916933
C249  C     C_R   0.928532 0.702947 0.203004 0.922313
C250  C     C_R   0.071379 0.297055 0.797176 0.921407
C251  C     C_R   0.702860 0.928663 0.797118 0.923369
C252  C     C_R   0.297000 0.071473 0.202962 0.917302
C253  C     C_R   0.928704 0.297149 0.797187 0.917693
C254  C     C_R   0.072083 0.703500 0.203562 0.936016
C255  C     C_R   0.297041 0.071424 0.797115 0.916434
C256  C     C_R   0.296862 0.296862 0.428395 0.941963
C257  C     C_R   0.702863 0.928649 0.202901 0.917871
C258  C     C_R   0.071513 0.703017 0.796950 0.936500
C259  C     C_R   0.928596 0.297034 0.202958 0.947869
C260  C     C_R   0.571654 0.796827 0.796830 0.944507
C261  C     C_R   0.428679 0.202885 0.202829 0.919148
C262  C     C_R   0.203040 0.796957 0.571495 0.951322
C263  C     C_R   0.796933 0.203111 0.428414 0.911534
C264  C     C_R   0.428478 0.797018 0.203047 0.915134
C265  C     C_R   0.571745 0.203257 0.796748 0.949793
C266  C     C_R   0.797046 0.796984 0.428554 0.919971
C267  C     C_R   0.702358 0.702354 0.570688 0.952652
C268  C     C_R   0.202867 0.202868 0.571287 0.941666
C269  C     C_R   0.571071 0.202687 0.202678 0.950622
C270  C     C_R   0.428432 0.796912 0.796993 0.921629
C271  C     C_R   0.203235 0.203231 0.428283 0.941138
C272  C     C_R   0.796787 0.796784 0.571695 0.945240
C273  C     C_R   0.428564 0.202985 0.797099 0.916044
C274  C     C_R   0.571576 0.796891 0.203112 0.948272
C275  C     C_R   0.796403 0.203589 0.572124 0.949870
C276  C     C_R   0.202874 0.797199 0.428685 0.911207
C277  C     C_R   0.202940 0.428599 0.202882 0.914289
C278  C     C_R   0.571590 0.703097 0.703009 0.909945
C279  C     C_R   0.795990 0.572605 0.795972 0.944266
C280  C     C_R   0.203301 0.571795 0.796705 0.958405
C281  C     C_R   0.797055 0.428548 0.202988 0.920283
C282  C     C_R   0.797180 0.571230 0.202815 0.950375
C283  C     C_R   0.203066 0.428453 0.797029 0.910061
C284  C     C_R   0.797007 0.428555 0.797057 0.927572
C285  C     C_R   0.202880 0.571305 0.202879 0.947405
C286  C     C_R   0.678053 0.113856 0.178296 -0.243992
C287  C     C_R   0.321694 0.886099 0.821940 -0.246336
C288  C     C_R   0.821762 0.113823 0.678098 -0.239349
H1    H     H_    0.771370 0.139121 0.138322 0.351665
H2    H     H_    0.268708 0.081513 0.100492 0.338531
H3    H     H_    0.899334 0.922508 0.272795 0.333492
H4    H     H_    0.137062 0.137147 0.771210 0.349765
H5    H     H_    0.274202 0.898932 0.075929 0.336614
H6    H     H_    0.770410 0.137504 0.871610 0.346467
H7    H     H_    0.138392 0.869746 0.770608 0.344548
H8    H     H_    0.899924 0.082769 0.267742 0.337818
H9    H     H_    0.920702 0.270853 0.899256 0.335204
H10   H     H_    0.150156 0.772220 0.132372 0.352152
H11   H     H_    0.861088 0.771338 0.136941 0.340442
H12   H     H_    0.274510 0.924041 0.898987 0.335366
H13   H     H_    0.075397 0.274725 0.898871 0.334357
H14   H     H_    0.135906 0.770234 0.871048 0.346278
H15   H     H_    0.899346 0.270638 0.079539 0.335955
H16   H     H_    0.079320 0.270869 0.100605 0.337038
H17   H     H_    0.878357 0.766262 0.876683 0.344402
H18   H     H_    0.223715 0.601340 0.075065 0.333455
H19   H     H_    0.767131 0.417015 0.899672 0.337947
H20   H     H_    0.920265 0.600576 0.229563 0.335721
H21   H     H_    0.145402 0.361458 0.728141 0.349708
H22   H     H_    0.755216 0.601677 0.904575 0.340952
H23   H     H_    0.870422 0.125361 0.768494 0.349073
H24   H     H_    0.228044 0.421805 0.100822 0.338343
H25   H     H_    0.085772 0.600108 0.764732 0.337415
H26   H     H_    0.899591 0.418791 0.230930 0.339259
H27   H     H_    0.225839 0.423787 0.898980 0.336455
H28   H     H_    0.772063 0.600745 0.078235 0.335986
H29   H     H_    0.869166 0.361956 0.729328 0.358039
H30   H     H_    0.087157 0.597955 0.234711 0.337431
H31   H     H_    0.729051 0.363820 0.135545 0.354416
H32   H     H_    0.231412 0.600452 0.918151 0.332058
H33   H     H_    0.139272 0.363202 0.271366 0.355879
H34   H     H_    0.078777 0.899255 0.271262 0.339588
H35   H     H_    0.914109 0.601277 0.763461 0.339551
H36   H     H_    0.421300 0.899384 0.228522 0.338926
H37   H     H_    0.600072 0.084973 0.765536 0.336971
H38   H     H_    0.422598 0.772999 0.899256 0.336014
H39   H     H_    0.600832 0.226175 0.076357 0.332578
H40   H     H_    0.358528 0.138091 0.728405 0.350882
H41   H     H_    0.600724 0.920283 0.229402 0.335450
H42   H     H_    0.420008 0.229941 0.100630 0.337792
H43   H     H_    0.600403 0.767166 0.917134 0.335506
H44   H     H_    0.600701 0.078788 0.228809 0.337036
H45   H     H_    0.273317 0.076841 0.898996 0.334786
H46   H     H_    0.357271 0.858313 0.728044 0.354681
H47   H     H_    0.600373 0.231145 0.918236 0.333633
H48   H     H_    0.360081 0.728453 0.139468 0.351597
H49   H     H_    0.600545 0.918292 0.768399 0.337071
H50   H     H_    0.363158 0.133906 0.270874 0.355719
H51   H     H_    0.600033 0.766152 0.084362 0.336529
H52   H     H_    0.422283 0.227544 0.899213 0.336916
H53   H     H_    0.138906 0.728534 0.360876 0.353479
H54   H     H_    0.912778 0.237277 0.600694 0.335178
H55   H     H_    0.230923 0.081249 0.399456 0.337374
H56   H     H_    0.770844 0.868558 0.138375 0.343171
H57   H     H_    0.766620 0.916371 0.600332 0.338023
H58   H     H_    0.899627 0.229619 0.419496 0.333655
H59   H     H_    0.081346 0.768684 0.600493 0.335441
H60   H     H_    0.728140 0.868939 0.355751 0.353534
H61   H     H_    0.229088 0.079283 0.600631 0.335086
H62   H     H_    0.917967 0.768179 0.600469 0.333541
H63   H     H_    0.085120 0.234657 0.399905 0.336661
H64   H     H_    0.764303 0.085709 0.600717 0.337949
H65   H     H_    0.226295 0.898961 0.423557 0.335657
H66   H     H_    0.079677 0.229466 0.600573 0.334082
H67   H     H_    0.136305 0.130119 0.229562 0.356924
H68   H     H_    0.899667 0.769895 0.419854 0.337275
H69   H     H_    0.230688 0.919038 0.600532 0.333560
H70   H     H_    0.728612 0.143039 0.369190 0.356593
H71   H     H_    0.724608 0.574894 0.601090 0.336116
H72   H     H_    0.267826 0.417663 0.399558 0.337004
H73   H     H_    0.399619 0.582250 0.732220 0.338937
H74   H     H_    0.600651 0.417692 0.267686 0.337884
H75   H     H_    0.274071 0.601098 0.423320 0.334351
H76   H     H_    0.735743 0.414666 0.600851 0.340144
H77   H     H_    0.600721 0.579367 0.271230 0.332383
H78   H     H_    0.867844 0.866238 0.770325 0.333566
H79   H     H_    0.367714 0.355804 0.771366 0.352960
H80   H     H_    0.770124 0.368210 0.367266 0.356148
H81   H     H_    0.269424 0.580471 0.600864 0.328589
H82   H     H_    0.366515 0.366360 0.229542 0.355759
H83   H     H_    0.640994 0.648797 0.771830 0.355858
H84   H     H_    0.269761 0.419661 0.600444 0.333529
H85   H     H_    0.770959 0.630076 0.360124 0.356154
H86   H     H_    0.623177 0.371503 0.767778 0.360779
H87   H     H_    0.416905 0.599906 0.267495 0.339780
H88   H     H_    0.418138 0.268322 0.399558 0.335740
H89   H     H_    0.770211 0.869611 0.865005 0.334462
H90   H     H_    0.575008 0.724461 0.601099 0.331865
H91   H     H_    0.410587 0.738280 0.600032 0.336826
H92   H     H_    0.600382 0.265490 0.415292 0.335515
H93   H     H_    0.600100 0.735933 0.413531 0.340508
H94   H     H_    0.423234 0.273581 0.601113 0.333786
H95   H     H_    0.586189 0.263890 0.600704 0.332105
H96   H     H_    0.353751 0.771603 0.368873 0.355066
O1    O     O_R   0.553790 0.256330 0.314650 -0.579045
O2    O     O_R   0.446210 0.256330 0.314650 -0.606143
O3    O     O_R   0.814650 0.743670 0.946210 -0.592791
O4    O     O_R   0.946210 0.256330 0.185350 -0.572421
O5    O     O_R   0.053790 0.743670 0.814650 -0.572863
O6    O     O_R   0.814650 0.256330 0.946210 -0.580467
O7    O     O_R   0.185350 0.743670 0.053790 -0.578908
O8    O     O_R   0.053790 0.743670 0.185350 -0.555307
O9    O     O_R   0.946210 0.256330 0.814650 -0.608113
O10   O     O_R   0.185350 0.743670 0.946210 -0.582587
O11   O     O_R   0.814650 0.256330 0.053790 -0.604167
O12   O     O_R   0.946210 0.743670 0.814650 -0.594854
O13   O     O_R   0.685350 0.743670 0.446210 -0.605364
O14   O     O_R   0.053790 0.256330 0.185350 -0.607228
O15   O     O_R   0.814650 0.743670 0.053790 -0.574442
O16   O     O_R   0.185350 0.256330 0.946210 -0.570793
O17   O     O_R   0.743670 0.185350 0.053790 -0.563804
O18   O     O_R   0.256330 0.814650 0.946210 -0.578727
O19   O     O_R   0.743670 0.946210 0.185350 -0.575272
O20   O     O_R   0.256330 0.053790 0.814650 -0.607643
O21   O     O_R   0.743670 0.814650 0.946210 -0.578971
O22   O     O_R   0.256330 0.185350 0.053790 -0.573983
O23   O     O_R   0.743670 0.053790 0.814650 -0.573154
O24   O     O_R   0.314650 0.256330 0.553790 -0.570732
O25   O     O_R   0.256330 0.946210 0.185350 -0.570464
O26   O     O_R   0.256330 0.814650 0.053790 -0.607742
O27   O     O_R   0.743670 0.185350 0.946210 -0.584487
O28   O     O_R   0.256330 0.053790 0.185350 -0.605465
O29   O     O_R   0.743670 0.946210 0.814650 -0.586191
O30   O     O_R   0.256330 0.185350 0.946210 -0.572048
O31   O     O_R   0.743670 0.814650 0.053790 -0.572291
O32   O     O_R   0.256330 0.946210 0.814650 -0.612087
O33   O     O_R   0.743670 0.053790 0.185350 -0.562725
O34   O     O_R   0.814650 0.946210 0.743670 -0.579908
O35   O     O_R   0.446210 0.743670 0.314650 -0.564258
O36   O     O_R   0.185350 0.053790 0.256330 -0.583659
O37   O     O_R   0.053790 0.814650 0.743670 -0.570593
O38   O     O_R   0.946210 0.185350 0.256330 -0.568173
O39   O     O_R   0.185350 0.053790 0.743670 -0.564354
O40   O     O_R   0.814650 0.946210 0.256330 -0.606582
O41   O     O_R   0.946210 0.185350 0.743670 -0.572087
O42   O     O_R   0.053790 0.814650 0.256330 -0.603424
O43   O     O_R   0.185350 0.946210 0.256330 -0.565370
O44   O     O_R   0.814650 0.053790 0.743670 -0.589869
O45   O     O_R   0.946210 0.814650 0.256330 -0.578426
O46   O     O_R   0.553790 0.256330 0.685350 -0.595882
O47   O     O_R   0.053790 0.185350 0.743670 -0.565373
O48   O     O_R   0.814650 0.053790 0.256330 -0.608229
O49   O     O_R   0.185350 0.946210 0.743670 -0.578148
O50   O     O_R   0.053790 0.185350 0.256330 -0.573257
O51   O     O_R   0.946210 0.814650 0.743670 -0.584214
O52   O     O_R   0.553790 0.756330 0.814650 -0.581097
O53   O     O_R   0.446210 0.243670 0.185350 -0.607425
O54   O     O_R   0.185350 0.756330 0.553790 -0.565058
O55   O     O_R   0.814650 0.243670 0.446210 -0.603404
O56   O     O_R   0.446210 0.756330 0.185350 -0.573370
O57   O     O_R   0.314650 0.743670 0.553790 -0.576408
O58   O     O_R   0.553790 0.243670 0.814650 -0.580503
O59   O     O_R   0.814650 0.756330 0.446210 -0.610052
O60   O     O_R   0.185350 0.243670 0.553790 -0.572978
O61   O     O_R   0.553790 0.243670 0.185350 -0.571287
O62   O     O_R   0.446210 0.756330 0.814650 -0.599761
O63   O     O_R   0.185350 0.243670 0.446210 -0.577760
O64   O     O_R   0.814650 0.756330 0.553790 -0.574926
O65   O     O_R   0.446210 0.243670 0.814650 -0.608625
O66   O     O_R   0.553790 0.756330 0.185350 -0.570275
O67   O     O_R   0.814650 0.243670 0.553790 -0.580478
O68   O     O_R   0.685350 0.256330 0.446210 -0.607359
O69   O     O_R   0.185350 0.756330 0.446210 -0.571444
O70   O     O_R   0.243670 0.185350 0.553790 -0.572689
O71   O     O_R   0.756330 0.814650 0.446210 -0.563446
O72   O     O_R   0.243670 0.446210 0.185350 -0.605579
O73   O     O_R   0.756330 0.553790 0.814650 -0.596911
O74   O     O_R   0.243670 0.814650 0.446210 -0.609265
O75   O     O_R   0.756330 0.185350 0.553790 -0.566643
O76   O     O_R   0.243670 0.553790 0.814650 -0.569351
O77   O     O_R   0.756330 0.446210 0.185350 -0.573176
O78   O     O_R   0.756330 0.814650 0.553790 -0.569827
O79   O     O_R   0.743670 0.685350 0.553790 -0.560675
O80   O     O_R   0.243670 0.185350 0.446210 -0.572360
O81   O     O_R   0.756330 0.553790 0.185350 -0.558641
O82   O     O_R   0.243670 0.446210 0.814650 -0.603717
O83   O     O_R   0.756330 0.185350 0.446210 -0.586370
O84   O     O_R   0.243670 0.814650 0.553790 -0.571856
O85   O     O_R   0.756330 0.446210 0.814650 -0.608769
O86   O     O_R   0.243670 0.553790 0.185350 -0.567086
O87   O     O_R   0.814650 0.446210 0.243670 -0.605635
O88   O     O_R   0.185350 0.553790 0.756330 -0.566939
O89   O     O_R   0.553790 0.814650 0.243670 -0.571055
O90   O     O_R   0.256330 0.314650 0.446210 -0.573848
O91   O     O_R   0.446210 0.185350 0.756330 -0.567799
O92   O     O_R   0.185350 0.553790 0.243670 -0.576503
O93   O     O_R   0.814650 0.446210 0.756330 -0.567568
O94   O     O_R   0.446210 0.185350 0.243670 -0.571806
O95   O     O_R   0.553790 0.814650 0.756330 -0.563252
O96   O     O_R   0.185350 0.446210 0.756330 -0.575728
O97   O     O_R   0.814650 0.553790 0.243670 -0.579760
O98   O     O_R   0.446210 0.814650 0.756330 -0.568659
O99   O     O_R   0.553790 0.185350 0.243670 -0.564331
O100  O     O_R   0.814650 0.553790 0.756330 -0.564774
O101  O     O_R   0.743670 0.446210 0.685350 -0.607413
O102  O     O_R   0.185350 0.446210 0.243670 -0.576414
O103  O     O_R   0.553790 0.185350 0.756330 -0.564031
O104  O     O_R   0.446210 0.814650 0.243670 -0.604527
O105  O     O_3   0.745869 0.119632 0.119630 -0.681379
O106  O     O_3   0.263366 0.889582 0.891274 -0.707906
O107  O     O_3   0.888229 0.112054 0.738775 -0.689124
O108  O     O_3   0.112718 0.888746 0.260646 -0.690858
O109  O     O_3   0.262432 0.111199 0.890441 -0.698399
O110  O     O_3   0.743987 0.882624 0.116964 -0.686443
O111  O     O_3   0.115761 0.116139 0.257138 -0.694874
O112  O     O_R   0.446210 0.743670 0.685350 -0.609784
O113  O     O_R   0.256330 0.553790 0.314650 -0.568799
O114  O     O_3   0.884360 0.884446 0.742502 -0.688559
O115  O     O_3   0.742396 0.884409 0.884728 -0.688516
O116  O     O_3   0.258636 0.114725 0.113405 -0.694218
O117  O     O_3   0.889683 0.888084 0.261344 -0.700271
O118  O     O_3   0.118507 0.118496 0.745048 -0.682249
O119  O     O_3   0.263077 0.891127 0.110535 -0.698125
O120  O     O_3   0.742944 0.115691 0.883732 -0.688827
O121  O     O_3   0.116532 0.882900 0.743660 -0.687119
O122  O     O_3   0.885750 0.115491 0.257795 -0.691406
O123  O     O_3   0.886860 0.260304 0.888395 -0.706114
O124  O     O_R   0.743670 0.314650 0.446210 -0.577431
O125  O     O_3   0.122681 0.748909 0.123561 -0.683368
O126  O     O_3   0.880926 0.745520 0.119152 -0.684508
O127  O     O_3   0.110044 0.263726 0.891673 -0.699175
O128  O     O_3   0.115244 0.742411 0.884329 -0.687524
O129  O     O_3   0.888196 0.260163 0.113272 -0.695853
O130  O     O_3   0.113076 0.260345 0.111616 -0.694003
O131  O     O_3   0.891281 0.734757 0.891403 -0.693420
O132  O     O_3   0.235308 0.607841 0.109617 -0.701453
O133  O     O_3   0.757534 0.384201 0.885442 -0.692179
O134  O     O_3   0.886608 0.611958 0.240016 -0.697237
O135  O     O_R   0.256330 0.685350 0.553790 -0.569298
O136  O     O_3   0.121884 0.377614 0.752289 -0.684270
O137  O     O_3   0.750124 0.624142 0.875552 -0.690107
O138  O     O_3   0.238740 0.387746 0.110679 -0.695485
O139  O     O_3   0.117663 0.616648 0.755731 -0.679290
O140  O     O_3   0.886866 0.385537 0.241116 -0.693023
O141  O     O_3   0.236948 0.389360 0.890947 -0.696185
O142  O     O_3   0.761293 0.610711 0.112242 -0.686634
O143  O     O_3   0.883046 0.383493 0.756377 -0.690065
O144  O     O_3   0.117545 0.616803 0.244357 -0.690934
O145  O     O_3   0.755717 0.382385 0.117616 -0.692812
O146  O     O_R   0.743670 0.553790 0.314650 -0.581912
O147  O     O_3   0.241572 0.613640 0.885062 -0.685435
O148  O     O_3   0.119131 0.380709 0.245598 -0.692047
O149  O     O_3   0.881744 0.617171 0.755058 -0.681828
O150  O     O_3   0.387397 0.888819 0.239288 -0.691404
O151  O     O_3   0.616012 0.117091 0.756270 -0.678264
O152  O     O_3   0.388465 0.762007 0.890024 -0.685719
O153  O     O_3   0.609231 0.237317 0.110829 -0.698093
O154  O     O_3   0.379601 0.120619 0.753432 -0.688173
O155  O     O_3   0.611909 0.886597 0.239942 -0.696325
O156  O     O_3   0.386360 0.240245 0.112159 -0.695219
O157  O     O_R   0.256330 0.446210 0.685350 -0.611333
O158  O     O_3   0.614537 0.757532 0.884242 -0.691466
O159  O     O_3   0.611261 0.112715 0.239419 -0.691283
O160  O     O_3   0.377755 0.877723 0.752133 -0.685317
O161  O     O_3   0.613540 0.241434 0.885176 -0.695723
O162  O     O_3   0.379623 0.753582 0.120340 -0.689652
O163  O     O_3   0.613617 0.885068 0.758372 -0.682966
O164  O     O_3   0.382791 0.117418 0.244052 -0.692316
O165  O     O_3   0.615549 0.756708 0.116644 -0.681984
O166  O     O_3   0.388150 0.238330 0.889698 -0.697597
O167  O     O_3   0.119920 0.753921 0.380157 -0.690174
O168  O     O_R   0.256330 0.314650 0.553790 -0.573530
O169  O     O_3   0.881054 0.245459 0.617984 -0.692843
O170  O     O_3   0.241137 0.114535 0.386845 -0.694320
O171  O     O_3   0.757103 0.883748 0.615058 -0.682129
O172  O     O_3   0.887521 0.240371 0.386184 -0.696684
O173  O     O_3   0.114637 0.758716 0.613266 -0.682211
O174  O     O_3   0.753559 0.880180 0.381050 -0.683565
O175  O     O_3   0.239614 0.113059 0.611558 -0.697045
O176  O     O_3   0.884878 0.758240 0.613806 -0.685066
O177  O     O_3   0.117215 0.243832 0.383858 -0.691629
O178  O     O_3   0.755542 0.117884 0.616819 -0.678042
O179  O     O_R   0.743670 0.685350 0.446210 -0.568696
O180  O     O_3   0.237248 0.890731 0.389092 -0.699715
O181  O     O_3   0.113346 0.239930 0.611878 -0.695554
O182  O     O_3   0.887606 0.759398 0.386184 -0.689683
O183  O     O_3   0.240936 0.885686 0.612952 -0.693659
O184  O     O_3   0.754267 0.118739 0.380494 -0.690074
O185  O     O_3   0.735734 0.609559 0.607797 -0.686748
O186  O     O_3   0.258000 0.384654 0.385955 -0.692772
O187  O     O_3   0.386017 0.615309 0.741820 -0.679703
O188  O     O_3   0.614101 0.384597 0.257908 -0.693561
O189  O     O_3   0.262825 0.609339 0.389013 -0.698647
O190  O     O_R   0.256330 0.553790 0.685350 -0.594106
O191  O     O_3   0.744340 0.382267 0.616609 -0.688591
O192  O     O_3   0.611565 0.613087 0.260460 -0.688020
O193  O     O_3   0.379657 0.380373 0.746281 -0.689140
O194  O     O_3   0.742037 0.384867 0.384908 -0.692120
O195  O     O_3   0.259382 0.614096 0.612614 -0.684888
O196  O     O_3   0.384002 0.384012 0.257101 -0.695493
O197  O     O_3   0.624790 0.624232 0.749276 -0.681567
O198  O     O_3   0.259490 0.386163 0.612454 -0.695152
O199  O     O_3   0.744291 0.617751 0.382807 -0.688716
O200  O     O_3   0.611039 0.389368 0.737605 -0.694285
O201  O     O_R   0.743670 0.446210 0.314650 -0.572690
O202  O     O_3   0.384354 0.614493 0.257577 -0.691882
O203  O     O_3   0.385008 0.258361 0.386341 -0.693557
O204  O     O_3   0.609607 0.735760 0.607907 -0.692258
O205  O     O_3   0.379962 0.746380 0.619256 -0.687736
O206  O     O_3   0.615971 0.256299 0.382954 -0.695126
O207  O     O_3   0.617186 0.744717 0.381854 -0.688666
O208  O     O_3   0.388861 0.262611 0.609486 -0.698683
O209  O     O_3   0.618212 0.255294 0.617214 -0.679878
O210  O     O_3   0.379698 0.747019 0.378803 -0.693801
O211  O     O_R   0.256330 0.685350 0.446210 -0.602184
O212  O     O_R   0.685350 0.256330 0.553790 -0.577524
O213  O     O_R   0.743670 0.314650 0.553790 -0.567824
O214  O     O_R   0.256330 0.446210 0.314650 -0.604417
O215  O     O_R   0.743670 0.553790 0.685350 -0.604764
O216  O     O_R   0.314650 0.446210 0.743670 -0.564939
O217  O     O_R   0.685350 0.553790 0.256330 -0.598063
O218  O     O_R   0.553790 0.314650 0.743670 -0.587283
O219  O     O_R   0.446210 0.685350 0.256330 -0.607793
O220  O     O_R   0.685350 0.553790 0.743670 -0.555361
O221  O     O_R   0.314650 0.446210 0.256330 -0.578418
O222  O     O_R   0.446210 0.685350 0.743670 -0.555931
O223  O     O_R   0.314650 0.743670 0.446210 -0.589533
O224  O     O_R   0.553790 0.314650 0.256330 -0.567670
O225  O     O_R   0.685350 0.446210 0.256330 -0.607888
O226  O     O_R   0.314650 0.553790 0.743670 -0.587024
O227  O     O_R   0.446210 0.314650 0.256330 -0.577763
O228  O     O_R   0.553790 0.685350 0.743670 -0.575605
O229  O     O_R   0.314650 0.553790 0.256330 -0.570560
O230  O     O_R   0.685350 0.446210 0.743670 -0.574116
O231  O     O_R   0.553790 0.685350 0.256330 -0.568682
O232  O     O_R   0.446210 0.314650 0.743670 -0.576906
O233  O     O_R   0.053790 0.756330 0.314650 -0.572635
O234  O     O_R   0.446210 0.256330 0.685350 -0.606027
O235  O     O_R   0.946210 0.243670 0.685350 -0.608036
O236  O     O_R   0.685350 0.756330 0.053790 -0.597480
O237  O     O_R   0.314650 0.243670 0.946210 -0.572011
O238  O     O_R   0.946210 0.756330 0.685350 -0.594437
O239  O     O_R   0.053790 0.243670 0.314650 -0.605740
O240  O     O_R   0.314650 0.756330 0.946210 -0.558012
O241  O     O_R   0.685350 0.243670 0.053790 -0.609440
O242  O     O_R   0.053790 0.243670 0.685350 -0.606189
O243  O     O_R   0.946210 0.756330 0.314650 -0.563216
O244  O     O_R   0.685350 0.243670 0.946210 -0.597942
O245  O     O_R   0.553790 0.743670 0.314650 -0.575406
O246  O     O_R   0.314650 0.756330 0.053790 -0.570154
O247  O     O_R   0.946210 0.243670 0.314650 -0.574297
O248  O     O_R   0.053790 0.756330 0.685350 -0.598117
O249  O     O_R   0.314650 0.243670 0.053790 -0.572774
O250  O     O_R   0.685350 0.756330 0.946210 -0.596391
O251  O     O_R   0.243670 0.685350 0.053790 -0.605080
O252  O     O_R   0.756330 0.314650 0.946210 -0.564304
O253  O     O_R   0.243670 0.946210 0.685350 -0.603050
O254  O     O_R   0.756330 0.053790 0.314650 -0.557255
O255  O     O_R   0.243670 0.314650 0.946210 -0.570835
O256  O     O_R   0.314650 0.256330 0.446210 -0.573535
O257  O     O_R   0.756330 0.685350 0.053790 -0.597033
O258  O     O_R   0.243670 0.053790 0.314650 -0.604224
O259  O     O_R   0.756330 0.946210 0.685350 -0.595629
O260  O     O_R   0.756330 0.314650 0.053790 -0.575133
O261  O     O_R   0.243670 0.685350 0.946210 -0.597053
O262  O     O_R   0.756330 0.053790 0.685350 -0.593193
O263  O     O_R   0.243670 0.946210 0.314650 -0.571292
O264  O     O_R   0.756330 0.685350 0.946210 -0.595527
O265  O     O_R   0.243670 0.314650 0.053790 -0.571058
O266  O     O_R   0.756330 0.946210 0.314650 -0.580057
O267  O     O_R   0.685350 0.743670 0.553790 -0.569534
O268  O     O_R   0.243670 0.053790 0.685350 -0.608064
O269  O     O_R   0.314650 0.946210 0.243670 -0.565927
O270  O     O_R   0.685350 0.053790 0.756330 -0.595762
O271  O     O_R   0.053790 0.314650 0.243670 -0.571000
O272  O     O_R   0.946210 0.685350 0.756330 -0.594784
O273  O     O_R   0.685350 0.053790 0.243670 -0.606378
O274  O     O_R   0.314650 0.946210 0.756330 -0.562623
O275  O     O_R   0.946210 0.685350 0.243670 -0.603186
O276  O     O_R   0.053790 0.314650 0.756330 -0.556377
O277  O     O_R   0.685350 0.946210 0.756330 -0.594477
O278  O     O_R   0.553790 0.743670 0.685350 -0.600312
O279  O     O_R   0.314650 0.053790 0.243670 -0.578385
O280  O     O_R   0.946210 0.314650 0.756330 -0.576282
O281  O     O_R   0.053790 0.685350 0.243670 -0.607017
O282  O     O_R   0.314650 0.053790 0.756330 -0.568101
O283  O     O_R   0.685350 0.946210 0.243670 -0.606869
O284  O     O_R   0.053790 0.685350 0.756330 -0.596601
O285  O     O_R   0.946210 0.314650 0.243670 -0.567824
O286  O     O_R   0.053790 0.256330 0.814650 -0.611926
O287  O     O_R   0.946210 0.743670 0.185350 -0.570407
O288  O     O_R   0.185350 0.256330 0.053790 -0.571573
Zn1   Zn    Zn3+2 0.500000 0.210530 0.289470 1.071691
Zn2   Zn    Zn3+2 0.210530 0.289470 0.500000 1.082874
Zn3   Zn    Zn3+2 0.789470 0.500000 0.710530 1.069869
Zn4   Zn    Zn3+2 0.210530 0.500000 0.289470 1.069798
Zn5   Zn    Zn3+2 0.789470 0.289470 0.500000 1.066847
Zn6   Zn    Zn3+2 0.210530 0.710530 0.500000 1.079318
Zn7   Zn    Zn3+2 0.789470 0.500000 0.289470 1.066106
Zn8   Zn    Zn3+2 0.210530 0.500000 0.710530 1.063125
Zn9   Zn    Zn3+2 0.289470 0.500000 0.789470 1.073465
Zn10  Zn    Zn3+2 0.710530 0.500000 0.210530 1.067953
Zn11  Zn    Zn3+2 0.500000 0.289470 0.789470 1.060905
Zn12  Zn    Zn3+2 0.500000 0.789470 0.710530 1.069789
Zn13  Zn    Zn3+2 0.500000 0.710530 0.210530 1.077463
Zn14  Zn    Zn3+2 0.710530 0.500000 0.789470 1.067138
Zn15  Zn    Zn3+2 0.289470 0.500000 0.210530 1.073195
Zn16  Zn    Zn3+2 0.500000 0.710530 0.789470 1.083053
Zn17  Zn    Zn3+2 0.500000 0.289470 0.210530 1.071450
Zn18  Zn    Zn3+2 0.000000 0.710530 0.289470 1.063418
Zn19  Zn    Zn3+2 1.000000 0.289470 0.710530 1.058432
Zn20  Zn    Zn3+2 0.710530 0.710530 0.000000 1.047227
Zn21  Zn    Zn3+2 0.289470 0.289470 0.000000 1.092731
Zn22  Zn    Zn3+2 1.000000 0.710530 0.710530 1.053571
Zn23  Zn    Zn3+2 0.710530 0.210530 0.500000 1.068154
Zn24  Zn    Zn3+2 1.000000 0.289470 0.289470 1.072126
Zn25  Zn    Zn3+2 0.289470 0.710530 0.000000 1.070930
Zn26  Zn    Zn3+2 0.710530 0.289470 0.000000 1.058980
Zn27  Zn    Zn3+2 0.289470 1.000000 0.710530 1.061253
Zn28  Zn    Zn3+2 0.710530 0.000000 0.289470 1.061340
Zn29  Zn    Zn3+2 0.289470 0.000000 0.289470 1.074898
Zn30  Zn    Zn3+2 0.710530 1.000000 0.710530 1.056050
Zn31  Zn    Zn3+2 1.000000 0.210530 0.789470 1.056771
Zn32  Zn    Zn3+2 1.000000 0.789470 0.210530 1.082714
Zn33  Zn    Zn3+2 0.210530 0.210530 0.000000 1.091515
Zn34  Zn    Zn3+2 0.289470 0.789470 0.500000 1.061838
Zn35  Zn    Zn3+2 0.789470 0.789470 0.000000 1.072206
Zn36  Zn    Zn3+2 1.000000 0.210530 0.210530 1.073745
Zn37  Zn    Zn3+2 1.000000 0.789470 0.789470 1.069805
Zn38  Zn    Zn3+2 0.789470 0.210530 0.000000 1.067759
Zn39  Zn    Zn3+2 0.210530 0.789470 0.000000 1.065216
Zn40  Zn    Zn3+2 0.789470 0.000000 0.210530 1.060097
Zn41  Zn    Zn3+2 0.210530 1.000000 0.789470 1.055622
Zn42  Zn    Zn3+2 0.789470 1.000000 0.789470 1.068167
Zn43  Zn    Zn3+2 0.210530 0.000000 0.210530 1.074073
Zn44  Zn    Zn3+2 0.500000 0.210530 0.710530 1.067262
Zn45  Zn    Zn3+2 0.500000 0.789470 0.289470 1.076469
Zn46  Zn    Zn3+2 0.289470 0.210530 0.500000 1.087677
Zn47  Zn    Zn3+2 0.710530 0.789470 0.500000 1.085755
Zn48  Zn    Zn3+2 0.789470 0.710530 0.500000 1.085685

loop_
_geom_bond_atom_site_label_1
_geom_bond_atom_site_label_2
_ccdc_geom_bond_type
C54   C282  S    
O60   Zn2   S    
C150  O150  S    
C8    C251  S    
C10   C174  A    
C247  O33   A    
C122  O122  S    
H72   O186  S    
C20   C144  A    
C242  O25   A    
C145  O145  S    
O91   Zn44  S    
C255  O20   A    
O201  Zn7   S    
O98   Zn12  S    
C254  O8    A    
O46   Zn44  S    
O82   Zn9   S    
C235  O261  A    
H28   O142  S    
O44   Zn42  S    
C94   C205  A    
C52   C144  A    
C131  O131  S    
C45   C222  S    
C214  O18   A    
O2    Zn1   S    
O102  Zn4   S    
C114  O114  S    
C63   C270  S    
C40   C239  S    
C120  O120  S    
C62   C265  S    
C66   C155  A    
C231  O258  A    
C244  O14   A    
C262  O84   A    
O41   Zn31  S    
C54   C134  A    
O101  Zn3   S    
C269  O61   A    
C88   C192  A    
H14   O128  S    
O6    Zn38  S    
C139  O139  S    
C49   C133  A    
H84   O198  S    
C251  O29   A    
C253  O9    A    
C48   C125  A    
C190  O31   A    
C67   C164  A    
C18   C177  A    
C234  O232  A    
C34   C127  A    
C21   C220  S    
C40   C138  A    
C14   C151  A    
O228  Zn16  S    
C77   C181  A    
C251  O277  A    
C199  O199  S    
C117  O117  S    
O224  Zn17  S    
C29   C140  A    
C230  O257  A    
O266  Zn28  S    
O62   Zn16  S    
C74   C263  S    
H41   O155  S    
C80   C146  S    
O85   Zn14  S    
C51   C109  A    
O104  Zn45  S    
O21   Zn35  S    
H33   O148  S    
H45   O109  S    
C103  C256  S    
C9    C116  A    
O94   Zn1   S    
O256  Zn46  S    
C37   C218  S    
H79   O193  S    
C207  O207  S    
H46   O160  S    
C2    O2    A    
O246  Zn25  S    
H61   O175  S    
C95   C188  A    
C177  O177  S    
C7    C232  S    
C27   C117  A    
C155  O155  S    
C80   C196  A    
O211  Zn6   S    
C258  O5    A    
O55   Zn5   S    
H2    O116  S    
C259  O4    A    
C52   C132  A    
C12   C150  A    
O274  Zn27  S    
C93   C200  A    
C53   C133  A    
C18   C111  A    
C68   O68   A    
O4    Zn36  S    
O279  Zn29  S    
C183  O183  S    
O29   Zn42  S    
C184  O184  S    
H10   O125  S    
C5    C155  A    
O28   Zn43  S    
O244  Zn26  S    
C65   C166  A    
C283  O82   A    
C163  O163  S    
H34   O108  S    
C67   C156  A    
C9    C164  A    
C47   C115  A    
C108  O108  S    
C90   O229  A    
O168  Zn2   S    
C43   C145  A    
C250  O276  A    
O70   Zn46  S    
O80   Zn46  S    
H7    O121  S    
C211  O51   A    
O57   Zn34  S    
C57   C97   S    
C42   C153  A    
C50   C165  A    
O74   Zn34  S    
C102  C191  A    
C113  O157  A    
C33   C246  S    
C225  O251  A    
C187  O187  S    
O248  Zn22  S    
O112  Zn12  S    
H50   O164  S    
C86   C198  A    
O232  Zn11  S    
C38   C119  A    
H11   O126  S    
O54   Zn6   S    
C2    O227  A    
O276  Zn19  S    
C12   C242  S    
C69   C163  A    
C115  O115  S    
C157  O215  A    
C71   C169  A    
O214  Zn4   S    
C277  O72   A    
C244  O271  A    
C104  C204  A    
C52   C285  S    
C7    C114  A    
C53   C284  S    
O249  Zn21  S    
O259  Zn30  S    
H58   O172  S    
C146  O221  A    
C267  O267  A    
C148  O148  S    
C16   C228  S    
H65   O180  S    
O216  Zn9   S    
H55   O170  S    
C31   C107  A    
O25   Zn43  S    
H93   O207  S    
C36   C126  A    
C168  O233  A    
C241  O268  A    
C16   C184  A    
O68   Zn23  S    
O61   Zn17  S    
C13   O13   A    
C21   C172  A    
C215  O17   A    
O282  Zn27  S    
H71   O185  S    
O213  Zn5   S    
C97   C195  A    
O280  Zn19  S    
C168  O42   A    
C250  O286  A    
O75   Zn23  S    
C20   C125  A    
C86   C193  A    
C33   C149  A    
C70   C167  A    
O252  Zn26  S    
C146  O214  A    
C216  O47   A    
C39   C131  A    
O48   Zn40  S    
C1    O224  A    
C195  O195  S    
C217  O243  A    
C64   C159  A    
C24   O168  A    
C252  O279  A    
C206  O206  S    
C232  O34   A    
C63   C152  A    
C190  O236  A    
C30   C168  S    
O18   Zn39  S    
C23   C249  S    
O242  Zn19  S    
O72   Zn15  S    
O73   Zn14  S    
C164  O164  S    
C171  O171  S    
C60   C281  S    
C138  O138  S    
C213  O239  A    
H35   O149  S    
O286  Zn31  S    
C111  O111  S    
O53   Zn17  S    
C59   C147  A    
O215  Zn3   S    
C4    C109  A    
C34   C141  A    
C275  O67   A    
C48   C225  S    
C218  O244  A    
H4    O118  S    
C6    C111  A    
H66   O181  S    
C273  O65   A    
C50   C110  A    
O233  Zn18  S    
C70   C180  A    
H73   O187  S    
C221  O37   A    
C125  O125  S    
H19   O133  S    
C19   C123  A    
O277  Zn30  S    
C29   C259  S    
O27   Zn38  S    
C98   C199  A    
C279  O73   A    
O157  Zn8   S    
H15   O129  S    
C30   C167  A    
C272  O78   A    
H89   O115  S    
C79   C84   S    
C101  O146  A    
C154  O154  S    
C62   C161  A    
C74   C184  A    
C5    C110  A    
O23   Zn42  S    
H53   O167  S    
C254  O281  A    
C82   C135  S    
H38   O152  S    
C212  O213  A    
H27   O141  S    
C219  O26   A    
O254  Zn28  S    
C158  O158  S    
C16   C122  A    
C42   C215  S    
C234  O234  A    
C130  O130  S    
C13   O179  A    
C271  O80   A    
C220  O247  A    
C29   C129  A    
C91   C197  A    
C284  O93   A    
C162  O162  S    
O218  Zn11  S    
C204  O204  S    
C79   O230  A    
C248  O274  A    
O285  Zn24  S    
C109  O109  S    
C237  O263  A    
C103  C203  A    
C106  O106  S    
C87   C234  S    
C91   C204  A    
C58   C138  A    
C95   C206  A    
O83   Zn23  S    
C178  O178  S    
C32   C244  S    
C28   C139  A    
H82   O196  S    
C83   C202  A    
C5    C257  S    
C67   C261  S    
C278  O278  A    
O39   Zn41  S    
O43   Zn43  S    
O13   Zn47  S    
H22   O137  S    
C70   C276  S    
C230  O15   A    
H77   O192  S    
C65   C273  S    
C61   C162  A    
O243  Zn18  S    
C43   C129  A    
C87   C193  A    
H90   O204  S    
C228  O48   A    
C100  C223  S    
H92   O206  S    
C64   C153  A    
O225  Zn10  S    
O79   Zn48  S    
C82   C188  A    
C232  O259  A    
C3    C180  A    
C180  O180  S    
C201  O237  A    
H12   O106  S    
C81   C195  A    
C12   C119  A    
H68   O182  S    
C71   C275  S    
H85   O199  S    
C58   C277  S    
C1    C95   S    
H70   O184  S    
H9    O123  S    
O220  Zn14  S    
C266  O59   A    
C243  O270  A    
C45   C156  A    
O31   Zn35  S    
C11   C175  A    
O267  Zn47  S    
C60   C140  A    
C23   C126  A    
C143  O143  S    
O24   Zn46  S    
C233  O11   A    
O38   Zn36  S    
C222  O249  A    
C1    O1    A    
C216  O242  A    
C11   C241  S    
C215  O241  A    
C34   C229  S    
C220  O38   A    
C22   C173  A    
C92   C202  A    
C179  O235  A    
C6    C170  A    
C186  O186  S    
H88   O203  S    
C151  O151  S    
C280  O76   A    
C80   C186  A    
C170  O170  S    
C23   C134  A    
C89   C203  A    
O103  Zn44  S    
C137  O137  S    
C38   C219  S    
C3    C237  S    
C157  O220  A    
C81   C187  A    
C26   C118  A    
O59   Zn48  S    
C269  O99   A    
C248  C287  S    
C239  O288  A    
C174  O174  S    
C102  C209  A    
C20   C254  S    
C46   O218  A    
C141  O141  S    
C3    C108  A    
O230  Zn14  S    
H54   O169  S    
C124  O226  A    
O264  Zn20  S    
C28   C258  S    
H5    O119  S    
C77   C268  S    
C263  O55   A    
C265  O103  A    
C160  C287  A    
O262  Zn30  S    
C76   C174  A    
H86   O200  S    
C10   C117  A    
O47   Zn31  S    
C56   C137  A    
C264  O104  A    
C45   C116  A    
H18   O132  S    
H47   O161  S    
O255  Zn21  S    
C277  O102  A    
C99   C198  A    
C94   C112  S    
O239  Zn24  S    
C256  O256  A    
C227  O49   A    
C282  O81   A    
C167  O167  S    
C87   C208  A    
O229  Zn15  S    
C153  O153  S    
C28   C128  A    
O17   Zn38  S    
H25   O139  S    
C188  O188  S    
H26   O140  S    
C268  O70   A    
C213  O50   A    
O16   Zn33  S    
H96   O210  S    
C59   C280  S    
C274  O89   A    
H95   O209  S    
O89   Zn45  S    
C35   O219  A    
O288  Zn33  S    
C160  O160  S    
C212  O212  A    
C161  O161  S    
O96   Zn8   S    
O66   Zn13  S    
C123  O123  S    
C55   C141  A    
C7    C171  A    
C247  O273  A    
C79   O101  A    
O95   Zn12  S    
C121  O121  S    
C104  C267  S    
O12   Zn37  S    
O71   Zn47  S    
O1    Zn1   S    
C196  O196  S    
O64   Zn48  S    
O250  Zn20  S    
H16   O130  S    
C68   C96   S    
C262  O54   A    
C86   C113  S    
C246  O12   A    
C71   C178  A    
C221  O248  A    
C4    C154  A    
O245  Zn45  S    
O49   Zn41  S    
C75   C173  A    
O237  Zn21  S    
C55   C136  A    
O270  Zn30  S    
C179  O41   A    
C44   C147  A    
H24   O138  S    
O219  Zn13  S    
C84   C191  A    
C26   C216  S    
C249  O287  A    
C21   C122  A    
C166  O166  S    
C107  O107  S    
C85   C101  S    
C271  O63   A    
O33   Zn40  S    
C194  O194  S    
O226  Zn9   S    
C105  O105  S    
C201  O30   A    
O278  Zn12  S    
C274  O66   A    
C15   C183  A    
C11   C118  A    
C72   C271  S    
C214  O240  A    
C118  O118  S    
C152  O152  S    
C185  O185  S    
C245  O245  A    
C273  O91   A    
C35   C92   S    
H75   O189  S    
C124  O190  A    
C261  O94   A    
C211  O238  A    
H42   O156  S    
C238  O3    A    
C203  O203  S    
O81   Zn10  S    
C56   C279  S    
C189  O189  S    
C102  C212  S    
O67   Zn5   S    
C247  C286  S    
C191  O191  S    
C32   C130  A    
C22   C221  S    
C193  O193  S    
O212  Zn23  S    
O37   Zn37  S    
C91   C278  S    
H3    O117  S    
C159  C286  A    
C62   C151  A    
C225  O7    A    
O273  Zn28  S    
C256  O90   A    
C9    C252  S    
O269  Zn29  S    
C43   C233  S    
C90   O113  A    
C259  O285  A    
O14   Zn36  S    
H91   O205  S    
C202  O202  S    
C169  O169  S    
C147  O147  S    
C106  C287  A    
C31   C179  S    
H39   O153  S    
O251  Zn25  S    
C2    C89   S    
C249  O275  A    
C173  O173  S    
C39   C137  A    
C222  O22   A    
H8    O122  S    
C25   C250  S    
H78   O114  S    
H63   O177  S    
C59   C139  A    
H56   O110  S    
C275  O75   A    
C283  O96   A    
O11   Zn38  S    
C78   C185  A    
C133  O133  S    
H87   O202  S    
H13   O127  S    
C127  O127  S    
C255  O282  A    
C54   C142  A    
O135  Zn6   S    
C27   C217  S    
O100  Zn3   S    
C14   C120  A    
O7    Zn39  S    
O76   Zn9   S    
C98   C207  A    
C44   C235  S    
C92   C210  A    
C88   C207  A    
O124  Zn5   S    
C240  O266  A    
H57   O171  S    
C22   C121  A    
C37   C161  A    
C248  O32   A    
C119  O119  S    
O235  Zn19  S    
C218  O27   A    
O9    Zn31  S    
O268  Zn27  S    
O287  Zn32  S    
C83   C189  A    
H62   O176  S    
C17   C211  S    
C73   C272  S    
O217  Zn10  S    
O63   Zn2   S    
C263  O83   A    
C46   O46   A    
O227  Zn17  S    
C32   C148  A    
C149  O149  S    
C260  O95   A    
H20   O134  S    
C192  O192  S    
C57   O57   A    
C217  O45   A    
C99   C208  A    
O271  Zn24  S    
C73   C176  A    
C25   C127  A    
C276  O74   A    
C135  O201  A    
C41   C214  S    
H48   O162  S    
O19   Zn40  S    
C31   C169  A    
H80   O194  S    
C100  C210  A    
C268  O60   A    
C50   C190  S    
C42   C105  A    
C82   C194  A    
O30   Zn33  S    
C278  O228  A    
C64   C269  S    
O93   Zn3   S    
C66   C165  A    
O234  Zn44  S    
C14   C243  S    
C270  O62   A    
C26   C181  A    
O265  Zn21  S    
O238  Zn22  S    
C49   C123  A    
C134  O134  S    
O86   Zn15  S    
C15   C227  S    
O32   Zn41  S    
O78   Zn47  S    
C48   C132  A    
C165  O165  S    
C97   C205  A    
O99   Zn1   S    
C30   C108  A    
C51   C201  S    
O222  Zn16  S    
O77   Zn10  S    
H37   O151  S    
O190  Zn8   S    
C47   C224  S    
C142  O142  S    
O22   Zn33  S    
C10   C240  S    
O36   Zn43  S    
C200  O200  S    
C24   C99   S    
H17   O131  S    
O52   Zn16  S    
C100  C189  A    
O275  Zn18  S    
H76   O191  S    
C75   C183  A    
C266  O71   A    
O92   Zn4   S    
C172  O172  S    
C279  O100  A    
C285  O86   A    
H74   O188  S    
C126  O126  S    
C41   C152  A    
C84   C200  A    
C85   C192  A    
C104  C185  A    
C46   C93   S    
O236  Zn20  S    
H21   O136  S    
C208  O208  S    
O90   Zn2   S    
C270  O98   A    
C252  O28   A    
C205  O205  S    
O283  Zn28  S    
H83   O197  S    
C58   C148  A    
H52   O166  S    
C282  O97   A    
C55   C283  S    
O231  Zn13  S    
C24   O24   A    
H43   O158  S    
O15   Zn35  S    
C13   C98   S    
C25   C136  A    
C226  O6    A    
C57   O135  A    
O5    Zn37  S    
O40   Zn40  S    
C8    C115  A    
C88   C245  S    
O97   Zn7   S    
H60   O174  S    
C85   C199  A    
C285  O92   A    
O3    Zn35  S    
C236  O262  A    
C258  O284  A    
C110  O110  S    
H44   O159  S    
C236  C288  S    
C78   C197  A    
C73   C171  A    
C272  O64   A    
C61   C150  A    
C101  O217  A    
C74   C172  A    
C17   C176  A    
O261  Zn25  S    
H64   O178  S    
C33   C131  A    
C219  O246  A    
H6    O120  S    
C77   C175  A    
C6    C231  S    
C197  O197  S    
O26   Zn39  S    
C103  C186  A    
C267  O79   A    
C72   C177  A    
C260  O52   A    
C76   C182  A    
C245  O231  A    
C129  O129  S    
C261  O53   A    
C140  O140  S    
C128  O128  S    
H31   O145  S    
C17   C114  A    
O58   Zn11  S    
C246  O272  A    
H32   O147  S    
O257  Zn20  S    
O272  Zn22  S    
C210  O210  S    
C81   C124  S    
C281  O87   A    
H36   O150  S    
C36   C142  A    
C94   C187  A    
C132  O132  S    
C265  O58   A    
C236  O44   A    
O260  Zn26  S    
O240  Zn25  S    
O284  Zn22  S    
O179  Zn48  S    
C135  O225  A    
C89   C196  A    
C112  O222  A    
O221  Zn15  S    
C223  O223  A    
H94   O208  S    
C53   C143  A    
C72   C170  A    
C241  O39   A    
C209  O209  S    
C116  O116  S    
C40   C130  A    
C65   C154  A    
C181  O181  S    
C136  O136  S    
H81   O195  S    
C78   C157  S    
C96   C206  A    
H69   O183  S    
C224  O250  A    
O56   Zn13  S    
C235  O10   A    
C178  C288  A    
C69   C158  A    
O113  Zn4   S    
C239  O265  A    
O34   Zn42  S    
C224  O21   A    
C36   C230  S    
C144  O144  S    
O8    Zn32  S    
O223  Zn34  S    
C69   C260  S    
C93   C209  A    
C41   C106  A    
C257  O19   A    
C18   C213  S    
H40   O154  S    
C96   C194  A    
C242  O269  A    
O42   Zn32  S    
H1    O105  S    
C156  O156  S    
C243  O23   A    
C284  O85   A    
C257  O283  A    
C83   C90   S    
O281  Zn18  S    
C44   C128  A    
C19   C253  S    
C19   C143  A    
C15   C121  A    
C113  O216  A    
C229  O255  A    
C238  O264  A    
C237  O43   A    
C61   C264  S    
H23   O107  S    
C112  O112  A    
C8    C163  A    
H49   O163  S    
O146  Zn7   S    
O258  Zn29  S    
O263  Zn29  S    
H51   O165  S    
C253  O280  A    
C35   O35   A    
C233  O260  A    
C63   C160  A    
C105  C286  A    
O45   Zn32  S    
O253  Zn27  S    
C223  O211  A    
O10   Zn39  S    
C68   O124  A    
C107  C288  A    
C56   C149  A    
C27   C182  A    
H67   O111  S    
C227  O253  A    
C226  O252  A    
C280  O88   A    
C264  O56   A    
C231  O36   A    
C37   C120  A    
O65   Zn11  S    
C228  O254  A    
O241  Zn26  S    
O35   Zn45  S    
O20   Zn41  S    
O247  Zn24  S    
C182  O182  S    
C229  O16   A    
O87   Zn7   S    
C276  O69   A    
C75   C262  S    
C281  O77   A    
C66   C274  S    
C240  O40   A    
C175  O175  S    
C38   C162  A    
H59   O173  S    
C198  O198  S    
C76   C266  S    
C60   C145  A    
H30   O144  S    
O69   Zn6   S    
C51   C166  A    
O51   Zn37  S    
C4    C255  S    
O88   Zn8   S    
C49   C226  S    
O50   Zn36  S    
H29   O143  S    
C39   C238  S    
C159  O159  S    
C176  O176  S    
C47   C158  A    
O84   Zn34  S    
