data_mof_unit_32946.cif
_audit_creation_date              2012-12-11T15:23:43-0500
_audit_creation_method            fapswitch 2.2
_symmetry_space_group_name_H-M    P1
_symmetry_Int_Tables_number       1
_space_group_crystal_system       triclinic
_cell_length_a                    17.522003
_cell_length_b                    24.752682
_cell_length_c                    15.007134
_cell_angle_alpha                 89.873202
_cell_angle_beta                  126.002463
_cell_angle_gamma                 89.804426
_cell_volume                      5265.49755789

loop_
_atom_site_label
_atom_site_type_symbol
_atom_type_description
_atom_site_fract_x
_atom_site_fract_y
_atom_site_fract_z
_atom_type_partial_charge
C1    C     C_R   0.355554 0.348027 0.911535 0.597875
C2    C     C_R   0.633542 0.345639 0.087972 0.691880
C3    C     C_R   0.855554 0.848027 0.911536 0.597885
C4    C     C_R   0.133541 0.845639 0.087972 0.691868
C5    C     C_R   0.339286 0.662092 0.995422 0.092061
C6    C     C_R   0.641359 0.671527 0.001559 0.089725
C7    C     C_R   0.839299 0.162100 0.995421 0.092063
C8    C     C_R   0.141362 0.171526 0.001559 0.089724
C9    C     C_R   0.456368 0.499064 0.281282 0.032364
C10   C     C_R   0.439671 0.499450 0.635667 0.031300
C11   C     C_R   0.956365 0.999064 0.281278 0.032360
C12   C     C_R   0.939673 0.999450 0.635668 0.031300
C13   C     C_R   0.183029 0.501843 0.651840 -0.050590
C14   C     C_R   0.823427 0.502795 0.271256 -0.052423
C15   C     C_R   0.683021 0.001842 0.651859 -0.050611
C16   C     C_R   0.323426 0.002798 0.271249 -0.052395
C17   C     C_2   0.982144 0.464600 0.367313 -0.151974
C18   C     C_2   0.079134 0.471511 0.462712 -0.120442
C19   C     C_2   0.482152 0.964608 0.367316 -0.151986
C20   C     C_2   0.579136 0.971518 0.462728 -0.120399
C21   C     C_2   0.924177 0.507240 0.321704 -0.166083
C22   C     C_2   0.096451 0.505213 0.542103 -0.182182
C23   C     C_2   0.424181 0.007248 0.321724 -0.166177
C24   C     C_2   0.596441 0.005211 0.542125 -0.182184
C25   C     C_R   0.181118 0.696931 0.913043 -0.375498
C26   C     C_R   0.798043 0.704505 0.084118 -0.367512
C27   C     C_R   0.681133 0.196936 0.913050 -0.375500
C28   C     C_R   0.298046 0.204502 0.084114 -0.367507
C29   C     C_R   0.621120 0.233869 0.913107 0.668655
C30   C     C_R   0.359350 0.240501 0.086524 0.658648
C31   C     C_R   0.121107 0.733867 0.913099 0.668644
C32   C     C_R   0.859348 0.740504 0.086530 0.658650
C33   C     C_R   0.661417 0.270923 0.000018 -0.006830
C34   C     C_R   0.320147 0.280255 0.004182 -0.015991
C35   C     C_R   0.161403 0.770916 0.000020 -0.006800
C36   C     C_R   0.820146 0.780256 0.004183 -0.015987
C37   C     C_R   0.758850 0.272374 0.082003 -0.269937
C38   C     C_R   0.222324 0.286980 0.927590 -0.247474
C39   C     C_R   0.258833 0.772356 0.082019 -0.269923
C40   C     C_R   0.722323 0.786979 0.927587 -0.247474
C41   C     C_R   0.317164 0.737766 0.078130 -0.198796
C42   C     C_R   0.662405 0.752054 0.928107 -0.191640
C43   C     C_R   0.817181 0.237783 0.078114 -0.198771
C44   C     C_R   0.162408 0.252055 0.928111 -0.191638
C45   C     C_R   0.419934 0.641158 0.089154 -0.145952
C46   C     C_R   0.571389 0.644734 0.908441 -0.139238
C47   C     C_R   0.919942 0.141163 0.089153 -0.145959
C48   C     C_R   0.071391 0.144733 0.908441 -0.139236
C49   C     C_R   0.278345 0.700276 0.993977 0.103611
C50   C     C_R   0.700856 0.711078 0.005998 0.095369
C51   C     C_R   0.778360 0.200287 0.993973 0.103594
C52   C     C_R   0.200859 0.211077 0.005998 0.095364
C53   C     C_R   0.398843 0.548054 0.468306 -0.169081
C54   C     C_R   0.401537 0.547881 0.378049 -0.168704
C55   C     C_R   0.898844 0.048054 0.468306 -0.169082
C56   C     C_R   0.901535 0.047881 0.378047 -0.168702
C57   C     C_R   0.415285 0.498968 0.342240 0.145934
C58   C     C_R   0.408587 0.499253 0.521684 0.146511
C59   C     C_R   0.915282 0.998968 0.342236 0.145933
C60   C     C_R   0.908589 0.999253 0.521684 0.146509
C61   C     C_R   0.404660 0.450074 0.380927 -0.171858
C62   C     C_R   0.401626 0.450202 0.470858 -0.171344
C63   C     C_R   0.904659 0.950074 0.380925 -0.171856
C64   C     C_R   0.901627 0.950203 0.470858 -0.171343
C65   C     C_R   0.484069 0.453804 0.252158 -0.117038
C66   C     C_R   0.454347 0.454222 0.698532 -0.118171
C67   C     C_R   0.984067 0.953805 0.252157 -0.117031
C68   C     C_R   0.954348 0.954222 0.698532 -0.118172
C69   C     C_R   0.237254 0.546061 0.708134 -0.235971
C70   C     C_R   0.766922 0.546235 0.251480 -0.249819
C71   C     C_R   0.737248 0.046061 0.708144 -0.235952
C72   C     C_R   0.266920 0.046236 0.251476 -0.249804
C73   C     C_R   0.485945 0.544441 0.254885 -0.120920
C74   C     C_R   0.454712 0.544672 0.698539 -0.123279
C75   C     C_R   0.985941 0.044441 0.254880 -0.120919
C76   C     C_R   0.954713 0.044672 0.698540 -0.123276
C77   C     C_R   0.235311 0.455599 0.708367 0.603908
C78   C     C_R   0.767116 0.456677 0.237263 0.646997
C79   C     C_R   0.735307 0.955598 0.708378 0.603905
C80   C     C_R   0.267116 0.956679 0.237258 0.647027
C81   C     C_R   0.325311 0.638698 0.904225 -0.139582
C82   C     C_R   0.658884 0.646265 0.092874 -0.146695
C83   C     C_R   0.825319 0.138703 0.904225 -0.139583
C84   C     C_R   0.158886 0.146265 0.092874 -0.146688
C85   C     C_R   0.440394 0.350466 0.094219 -0.199443
C86   C     C_R   0.553826 0.348427 0.906692 -0.188061
C87   C     C_R   0.940393 0.850466 0.094219 -0.199431
C88   C     C_R   0.053824 0.848427 0.906692 -0.188068
C89   C     C_R   0.378368 0.319915 0.004008 -0.117555
C90   C     C_R   0.607814 0.315398 0.996984 -0.153133
C91   C     C_R   0.878366 0.819916 0.004009 -0.117578
C92   C     C_R   0.107810 0.815397 0.996985 -0.153127
H1    H     H_    0.152570 0.665383 0.851731 0.140499
H2    H     H_    0.825832 0.670416 0.140377 0.141114
H3    H     H_    0.652584 0.165383 0.851748 0.140503
H4    H     H_    0.325836 0.170412 0.140370 0.141118
H5    H     H_    0.392538 0.740752 0.140467 0.128025
H6    H     H_    0.586809 0.756638 0.867981 0.125422
H7    H     H_    0.892556 0.240774 0.140441 0.128032
H8    H     H_    0.086811 0.256639 0.867988 0.125422
H9    H     H_    0.397773 0.586657 0.501014 0.107350
H10   H     H_    0.401859 0.586365 0.344149 0.110255
H11   H     H_    0.897775 0.086658 0.501015 0.107349
H12   H     H_    0.901856 0.086366 0.344147 0.110254
H13   H     H_    0.455432 0.654852 0.172808 0.088332
H14   H     H_    0.537729 0.655569 0.823078 0.094770
H15   H     H_    0.955440 0.154858 0.172807 0.088337
H16   H     H_    0.037731 0.155568 0.823078 0.094770
H17   H     H_    0.475426 0.412062 0.264317 0.089756
H18   H     H_    0.437915 0.412753 0.671743 0.100201
H19   H     H_    0.975425 0.912062 0.264317 0.089756
H20   H     H_    0.937916 0.912753 0.671743 0.100201
H21   H     H_    0.482024 0.585695 0.273728 0.090536
H22   H     H_    0.438713 0.586250 0.671330 0.086700
H23   H     H_    0.982015 0.085696 0.273718 0.090539
H24   H     H_    0.938715 0.086250 0.671331 0.086698
H25   H     H_    0.478582 0.338811 0.179757 0.170129
H26   H     H_    0.517150 0.337888 0.820920 0.175188
H27   H     H_    0.978580 0.838812 0.179757 0.170136
H28   H     H_    0.017147 0.837887 0.820920 0.175202
H29   H     H_    0.956646 0.423627 0.352991 0.187088
H30   H     H_    0.131185 0.441773 0.477657 0.174966
H31   H     H_    0.456663 0.923633 0.352959 0.187129
H32   H     H_    0.631195 0.941787 0.477669 0.174949
N1    N     N_R   0.395440 0.396300 0.944370 -0.102068
N2    N     N_R   0.604560 0.396300 0.055630 -0.096693
N3    N     N_R   0.895440 0.896300 0.944370 -0.102067
N4    N     N_R   0.104560 0.896300 0.055630 -0.096728
N5    N     N_R   0.449890 0.602500 0.055780 -0.038037
N6    N     N_R   0.550110 0.602500 0.944220 -0.039937
N7    N     N_R   0.949890 0.102500 0.055780 -0.038037
N8    N     N_R   0.050110 0.102500 0.944220 -0.039936
N9    N     N_R   0.525090 0.470990 0.205640 -0.041375
N10   N     N_R   0.474910 0.470990 0.794360 -0.042153
N11   N     N_R   0.025090 0.970990 0.205640 -0.041372
N12   N     N_R   0.974910 0.970990 0.794360 -0.042153
N13   N     N_R   0.320240 0.527820 0.794510 -0.070670
N14   N     N_R   0.679760 0.527820 0.205490 -0.071820
N15   N     N_R   0.820240 0.027820 0.794510 -0.070671
N16   N     N_R   0.179760 0.027820 0.205490 -0.071827
N17   N     N_R   0.524580 0.527810 0.205160 -0.042370
N18   N     N_R   0.475420 0.527810 0.794840 -0.042757
N19   N     N_R   0.024580 0.027810 0.205160 -0.042370
N20   N     N_R   0.975420 0.027810 0.794840 -0.042757
N21   N     N_R   0.320750 0.470990 0.794990 -0.099294
N22   N     N_R   0.679250 0.470990 0.205010 -0.103253
N23   N     N_R   0.820750 0.970990 0.794990 -0.099292
N24   N     N_R   0.179250 0.970990 0.205010 -0.103255
N25   N     N_R   0.393580 0.602500 0.942610 -0.036414
N26   N     N_R   0.606420 0.602500 0.057390 -0.034737
N27   N     N_R   0.893580 0.102500 0.942610 -0.036414
N28   N     N_R   0.106420 0.102500 0.057390 -0.034736
N29   N     N_R   0.451750 0.396300 0.057540 -0.086133
N30   N     N_R   0.548250 0.396300 0.942460 -0.090509
N31   N     N_R   0.951750 0.896300 0.057540 -0.086130
N32   N     N_R   0.048250 0.896300 0.942460 -0.090524
Ni1   Ni    Ni4+2 0.435420 0.434250 0.870220 0.252406
Ni2   Ni    Ni4+2 0.564580 0.434250 0.129780 0.247703
Ni3   Ni    Ni4+2 0.935420 0.934250 0.870220 0.252399
Ni4   Ni    Ni4+2 0.064580 0.934250 0.129780 0.247707
Ni5   Ni    Ni4+2 0.563400 0.564580 0.128670 0.201037
Ni6   Ni    Ni4+2 0.436600 0.564580 0.871330 0.197327
Ni7   Ni    Ni4+2 0.063400 0.064580 0.128670 0.201036
Ni8   Ni    Ni4+2 0.936600 0.064580 0.871330 0.197326
O1    O     O_3   0.320206 0.328086 0.807544 -0.598582
C93   C     C_3   0.333323 0.271815 0.807511 -0.160570
H33   H     H_    0.277218 0.249455 0.804640 0.129378
H34   H     H_    0.404541 0.258261 0.878626 0.170320
H35   H     H_    0.326565 0.261449 0.731391 0.176793
O2    O     O_3   0.674176 0.328703 0.195657 -0.611409
C94   C     C_3   0.651239 0.274787 0.201121 -0.216601
H36   H     H_    0.578387 0.263743 0.130853 0.178392
H37   H     H_    0.656184 0.269903 0.277711 0.174572
H38   H     H_    0.703175 0.246392 0.207252 0.150497
O3    O     O_3   0.820206 0.828085 0.807546 -0.598584
C95   C     C_3   0.833333 0.771814 0.807514 -0.160552
H39   H     H_    0.777222 0.749454 0.804641 0.129369
H40   H     H_    0.904544 0.758262 0.878632 0.170309
H41   H     H_    0.826573 0.761449 0.731397 0.176809
O4    O     O_3   0.174166 0.828703 0.195655 -0.611401
C96   C     C_3   0.151216 0.774790 0.201117 -0.216572
H42   H     H_    0.078368 0.763747 0.130836 0.178373
H43   H     H_    0.156141 0.769912 0.277694 0.174590
H44   H     H_    0.203158 0.746390 0.207270 0.150489
H45   H     H_    0.953486 0.547734 0.339301 0.139465
H46   H     H_    0.044215 0.534371 0.528970 0.140568
H47   H     H_    0.453486 0.047743 0.339346 0.139483
H48   H     H_    0.544199 0.034362 0.528999 0.140570
O5    O     O_3   0.523836 0.232646 0.835101 -0.637605
C97   C     C_3   0.499531 0.229801 0.727219 -0.343205
H49   H     H_    0.502171 0.187343 0.705392 0.161321
H50   H     H_    0.544596 0.256171 0.715705 0.134314
H51   H     H_    0.425816 0.244196 0.668555 0.174558
O6    O     O_3   0.456619 0.235163 0.161297 -0.639988
C98   C     C_3   0.483339 0.229528 0.269998 -0.344583
H52   H     H_    0.476668 0.186865 0.287454 0.160392
H53   H     H_    0.442694 0.256986 0.286882 0.134671
H54   H     H_    0.558677 0.240434 0.328440 0.168994
O7    O     O_3   0.023824 0.732650 0.835082 -0.637612
C99   C     C_3   0.999530 0.729809 0.727204 -0.343223
H55   H     H_    0.002163 0.687352 0.705371 0.161325
H56   H     H_    0.044605 0.756177 0.715704 0.134321
H57   H     H_    0.925818 0.744210 0.668537 0.174563
O8    O     O_3   0.956616 0.735168 0.161310 -0.639997
C100  C     C_3   0.983331 0.729528 0.270007 -0.344602
H58   H     H_    0.976669 0.686863 0.287458 0.160398
H59   H     H_    0.942675 0.756978 0.286888 0.134679
H60   H     H_    0.058665 0.740440 0.328456 0.168990
H61   H     H_    0.791047 0.301461 0.147958 0.203623
H62   H     H_    0.192225 0.319449 0.867698 0.143671
H63   H     H_    0.291029 0.801436 0.147984 0.203605
H64   H     H_    0.692224 0.819446 0.867691 0.143675
H65   H     H_    0.407973 0.411470 0.349867 0.106118
H66   H     H_    0.402882 0.411635 0.505498 0.107442
H67   H     H_    0.907970 0.911471 0.349864 0.106119
H68   H     H_    0.902884 0.911635 0.505499 0.107441
H69   H     H_    0.222648 0.587351 0.678709 0.130833
H70   H     H_    0.788330 0.587902 0.267304 0.132976
H71   H     H_    0.722639 0.087351 0.678718 0.130832
H72   H     H_    0.288327 0.087903 0.267307 0.132972
O9    O     O_3   0.212915 0.403367 0.670070 -0.595297
C101  C     C_3   0.135027 0.386802 0.668430 -0.189845
H73   H     H_    0.068507 0.406256 0.600193 0.133203
H74   H     H_    0.145996 0.394870 0.748211 0.095898
H75   H     H_    0.126245 0.342572 0.654424 0.180821
O10   O     O_3   0.791332 0.406747 0.219297 -0.617945
C102  C     C_3   0.814282 0.410937 0.142766 -0.340220
H76   H     H_    0.831051 0.452167 0.129546 0.150514
H77   H     H_    0.755520 0.395929 0.060962 0.160667
H78   H     H_    0.876387 0.384828 0.171450 0.169103
O11   O     O_3   0.712909 0.903367 0.670079 -0.595294
C103  C     C_3   0.635019 0.886801 0.668434 -0.189835
H79   H     H_    0.568500 0.906250 0.600187 0.133226
H80   H     H_    0.645981 0.894873 0.748210 0.095886
H81   H     H_    0.626244 0.842570 0.654438 0.180819
O12   O     O_3   0.291348 0.906742 0.219339 -0.617897
C104  C     C_3   0.314297 0.910911 0.142806 -0.340431
H82   H     H_    0.331313 0.952114 0.129787 0.150592
H83   H     H_    0.255444 0.896024 0.060934 0.160670
H84   H     H_    0.376260 0.884697 0.171370 0.169137
H85   H     H_    0.273285 0.649038 0.818632 0.092638
H86   H     H_    0.702557 0.660364 0.176985 0.091881
H87   H     H_    0.773297 0.149045 0.818632 0.092636
H88   H     H_    0.202558 0.160364 0.176984 0.091879

loop_
_geom_bond_atom_site_label_1
_geom_bond_atom_site_label_2
_ccdc_geom_bond_type
C28   H4    S    
C26   H2    S    
C7    C83   A    
C55   C56   A    
C25   C31   A    
C97   H49   S    
C6    C82   A    
C87   C91   A    
C27   C29   A    
C14   C70   A    
C80   O12   S    
C27   H3    S    
C19   C20   S    
C16   C72   A    
C94   H36   S    
N23   Ni3   S    
N16   N24   A    
C31   O7    S    
C71   H71   S    
C39   C41   A    
C73   N17   A    
C53   C54   A    
N16   Ni7   S    
C45   N5    A    
C12   C68   A    
C19   H31   S    
O1    C93   S    
C57   C61   A    
C9    C73   A    
C69   H69   S    
C88   N32   A    
C14   C21   S    
N13   N21   A    
N15   Ni8   S    
C10   C58   S    
C1    N1    A    
C46   N6    A    
C2    N2    A    
C26   C50   A    
N24   Ni4   S    
N13   Ni6   S    
C3    N3    A    
C96   H44   S    
O2    C94   S    
N19   Ni7   S    
C74   H22   S    
C55   H11   S    
C73   H21   S    
O12   C104  S    
C82   H86   S    
C3    C91   A    
N9    Ni2   S    
C68   H20   S    
C81   H85   S    
N29   Ni2   S    
C2    C90   A    
C97   H51   S    
C76   H24   S    
C5    C81   A    
C66   N10   A    
N12   Ni3   S    
N7    N27   A    
C95   H41   S    
C15   C79   A    
C88   C92   A    
C29   C33   A    
C53   H9    S    
C99   H55   S    
N6    N26   A    
C97   H50   S    
C95   H39   S    
C1    O1    S    
C88   H28   S    
C8    C52   S    
C9    C57   S    
C61   C62   A    
C28   C52   A    
C98   H54   S    
C4    C92   A    
C35   C92   S    
C44   C52   A    
C40   C42   A    
O6    C98   S    
C74   N18   A    
C78   O10   S    
C64   H68   S    
C8    C84   A    
C104  H82   S    
N20   Ni8   S    
C93   H34   S    
C62   H66   S    
C5    C49   S    
C87   H27   S    
C85   N29   A    
C61   H65   S    
C4    O4    S    
C11   C59   S    
C41   C49   A    
C34   C38   A    
C45   H13   S    
N14   N22   A    
C83   N27   A    
C10   C66   A    
C69   N13   A    
C72   H72   S    
C94   H38   S    
C13   C77   A    
C78   N22   A    
O10   C102  S    
C30   C34   A    
C39   H63   S    
C20   C24   D    
C36   C40   A    
C83   H87   S    
C56   H12   S    
N30   Ni1   S    
C84   H88   S    
C86   C90   A    
C96   H43   S    
N3    N31   A    
C37   H61   S    
N4    Ni4   S    
C85   C89   A    
C26   C32   A    
C44   H8    S    
C79   N23   A    
C101  H75   S    
C96   H42   S    
C5    C45   A    
N3    Ni3   S    
C103  H81   S    
C6    C50   S    
C98   H52   S    
C47   N7    A    
C16   C80   A    
C7    C47   A    
C22   H46   S    
C80   N24   A    
C67   N11   A    
C8    C48   A    
N8    Ni8   S    
C38   C44   A    
O9    C101  S    
C32   O8    S    
N10   N18   A    
N21   Ni1   S    
N2    Ni2   S    
C102  H76   S    
N7    Ni7   S    
C25   H1    S    
C3    O3    S    
C65   H17   S    
C102  H78   S    
C9    C65   A    
C103  H80   S    
C17   C18   S    
N5    Ni5   S    
C86   H26   S    
C70   H70   S    
C38   H62   S    
C68   N12   A    
C85   H25   S    
C79   O11   S    
C82   N26   A    
C75   N19   A    
C58   C62   A    
C42   C50   A    
N15   N23   A    
C36   C91   S    
C67   H19   S    
C15   C24   S    
N2    N30   A    
C18   H30   S    
C70   N14   A    
C16   C23   S    
C47   H15   S    
C104  H83   S    
C12   C76   A    
C48   H16   S    
C93   H33   S    
N8    N28   A    
C29   O5    S    
C37   C43   A    
C75   H23   S    
C11   C67   A    
C72   N16   A    
C84   N28   A    
O4    C96   S    
C19   C23   D    
C17   H29   S    
C33   C37   A    
C100  H60   S    
C77   O9    S    
N26   Ni5   S    
C100  H58   S    
C101  H74   S    
C4    N4    A    
C1    C89   A    
N11   Ni4   S    
C6    C46   A    
C102  H77   S    
N31   Ni4   S    
C18   C22   D    
N1    Ni1   S    
C59   C63   A    
C54   H10   S    
N32   Ni3   S    
C43   H7    S    
C76   N20   A    
N17   Ni5   S    
N18   Ni6   S    
C71   N15   A    
C53   C58   A    
C32   C36   A    
C21   H45   S    
N22   Ni2   S    
C87   N31   A    
C94   H37   S    
C15   C71   A    
C40   H64   S    
N9    N17   A    
C56   C59   A    
C60   C64   A    
C24   H48   S    
N1    N29   A    
C42   H6    S    
C86   N30   A    
C34   C89   S    
C7    C51   S    
C28   C30   A    
C2    O2    S    
O3    C95   S    
C11   C75   A    
C33   C90   S    
C23   H47   S    
C10   C74   A    
N6    Ni6   S    
C30   O6    S    
C77   N21   A    
C13   C69   A    
C43   C51   A    
C99   H57   S    
C81   N25   A    
C35   C39   A    
C46   H14   S    
C31   C35   A    
N11   N19   A    
C103  H79   S    
C27   C51   A    
C13   C22   S    
N14   Ni5   S    
C41   H5    S    
C14   C78   A    
O5    C97   S    
C25   C49   A    
C20   H32   S    
N28   Ni7   S    
N4    N32   A    
C63   C64   A    
C12   C60   S    
O7    C99   S    
N10   Ni1   S    
O8    C100  S    
C66   H18   S    
C93   H35   S    
N12   N20   A    
N27   Ni8   S    
C104  H84   S    
O11   C103  S    
C48   N8    A    
N25   Ni6   S    
C63   H67   S    
N5    N25   A    
C55   C60   A    
C100  H59   S    
C101  H73   S    
C99   H56   S    
C65   N9    A    
C95   H40   S    
C98   H53   S    
C54   C57   A    
C17   C21   D    
