data_mof_unit_13713.cif
_audit_creation_date              2012-12-10T18:45:04-0500
_audit_creation_method            fapswitch 2.2
_symmetry_space_group_name_H-M    P1
_symmetry_Int_Tables_number       1
_space_group_crystal_system       triclinic
_cell_length_a                    10.752301
_cell_length_b                    9.798574
_cell_length_c                    10.75664
_cell_angle_alpha                 90.144942
_cell_angle_beta                  87.401689
_cell_angle_gamma                 90.706618
_cell_volume                      1132.03622833

loop_
_atom_site_label
_atom_site_type_symbol
_atom_type_description
_atom_site_fract_x
_atom_site_fract_y
_atom_site_fract_z
_atom_type_partial_charge
C1    C     C_R   0.258536 0.498992 0.501999 0.915955
C2    C     C_R   0.739914 0.500896 0.483606 0.918164
C3    C     C_R   0.939736 0.626165 0.468944 0.131928
C4    C     C_R   0.055905 0.615993 0.517621 0.086447
C5    C     C_R   0.568020 0.073733 0.582447 -0.123874
C6    C     C_R   0.431851 0.071431 0.417644 -0.127259
C7    C     C_R   0.568132 0.929325 0.582984 0.108337
C8    C     C_R   0.431428 0.927010 0.417349 0.111864
C9    C     C_R   0.512036 0.500416 0.259364 0.865239
C10   C     C_R   0.489067 0.500519 0.740929 0.870470
C11   C     C_R   0.582849 0.751653 0.101789 0.153185
C12   C     C_R   0.425816 0.751886 0.902701 0.149502
C13   C     C_R   0.547936 0.874856 0.049341 -0.230279
C14   C     C_R   0.461613 0.874821 0.957473 -0.234768
C15   C     C_R   0.476769 0.626929 0.943235 0.052004
C16   C     C_R   0.531328 0.626587 0.058451 0.051853
C17   C     C_R   0.526973 0.501786 0.125029 -0.129094
C18   C     C_R   0.477536 0.502211 0.875644 -0.133894
C19   C     C_R   0.510540 0.377987 0.062625 -0.208807
C20   C     C_R   0.492554 0.378244 0.937110 -0.212172
C21   C     C_R   0.066115 0.381282 0.437947 0.049407
C22   C     C_R   0.937001 0.381617 0.429026 0.034456
C23   C     C_R   0.873103 0.503217 0.455783 -0.184647
C24   C     C_R   0.124826 0.496740 0.490464 -0.165043
H1    H     H_    0.511183 0.280848 0.110535 0.163052
H2    H     H_    0.489670 0.281221 0.888674 0.162577
H3    H     H_    0.583995 0.970881 0.083584 0.151260
H4    H     H_    0.425500 0.970711 0.925638 0.150363
H5    H     H_    0.622414 0.130306 0.647818 0.139963
H6    H     H_    0.377392 0.126158 0.352343 0.147297
N1    N     N_R   0.500000 0.857200 0.500000 -0.096584
N2    N     N_R   0.500000 0.142810 0.500000 -0.086042
O1    O     O_R   0.316770 0.614620 0.499990 -0.605594
O2    O     O_R   0.683230 0.614620 0.500010 -0.609357
O3    O     O_R   0.316800 0.385290 0.500000 -0.593307
O4    O     O_R   0.683200 0.385290 0.500000 -0.592168
O5    O     O_R   0.500010 0.614690 0.316770 -0.610288
O6    O     O_R   0.499990 0.614690 0.683230 -0.605410
O7    O     O_R   0.500040 0.385360 0.316770 -0.622798
O8    O     O_R   0.499960 0.385360 0.683230 -0.626084
Zn1   Zn    Zn3+2 0.500000 0.653120 0.500000 0.943926
Zn2   Zn    Zn3+2 0.500000 0.346880 0.500000 0.954708
N3    N     N_3   0.681163 0.756113 0.186746 -0.460938
H7    H     H_    0.708779 0.657462 0.207614 0.165857
H8    H     H_    0.646917 0.803550 0.267939 0.218586
N4    N     N_3   0.325211 0.755778 0.820692 -0.458834
H9    H     H_    0.295013 0.656719 0.802382 0.166960
H10   H     H_    0.358275 0.801836 0.738174 0.218607
N5    N     N_3   0.136155 0.263735 0.398286 -0.432684
H11   H     H_    0.122895 0.246258 0.303895 0.171327
H12   H     H_    0.104083 0.178671 0.449271 0.176280
N6    N     N_3   0.871142 0.261286 0.390814 -0.431912
H13   H     H_    0.886299 0.182963 0.453934 0.185075
H14   H     H_    0.905491 0.231832 0.302490 0.171351
C25   C     C_3   0.928907 0.737594 0.372549 -0.345148
C26   C     C_3   0.858564 0.862494 0.420486 -0.881489
H15   H     H_    0.759055 0.838284 0.436041 0.287716
H16   H     H_    0.895458 0.900888 0.508477 0.251753
H17   H     H_    0.867382 0.944932 0.349914 0.237624
H18   H     H_    0.023137 0.772435 0.337935 0.199603
H19   H     H_    0.886027 0.695958 0.289208 0.193437
C27   C     C_3   0.081021 0.708249 0.626928 -0.341489
C28   C     C_3   0.143223 0.844941 0.592225 -0.850361
H20   H     H_    0.243146 0.832345 0.569908 0.280968
H21   H     H_    0.101482 0.893277 0.511695 0.247860
H22   H     H_    0.134041 0.915872 0.672686 0.239276
H23   H     H_    0.991407 0.730134 0.678619 0.200182
H24   H     H_    0.136100 0.652504 0.693388 0.178293
N7    N     N_3   0.640655 0.858427 0.669633 -0.388452
H25   H     H_    0.733165 0.890554 0.656666 0.161674
H26   H     H_    0.612174 0.890538 0.758671 0.176748
N8    N     N_3   0.357017 0.853668 0.332289 -0.388026
H27   H     H_    0.264555 0.882905 0.347935 0.158578
H28   H     H_    0.383594 0.885628 0.242516 0.177093

loop_
_geom_bond_atom_site_label_1
_geom_bond_atom_site_label_2
_ccdc_geom_bond_type
C10   O6    A    
C7    N7    S    
C15   C18   A    
C6    N2    A    
N3    H7    S    
C26   H17   S    
C11   N3    S    
C27   C28   S    
C13   C14   A    
N8    H28   S    
C11   C13   A    
C11   C16   A    
O4    Zn2   S    
C19   C20   A    
C12   C15   A    
C27   H24   S    
C25   C26   S    
C5    N2    A    
O1    Zn1   S    
C28   H21   S    
C2    O2    A    
O8    Zn2   S    
C28   H22   S    
C1    O1    A    
C21   C22   A    
C26   H15   S    
N3    H8    S    
C16   C17   A    
O2    Zn1   S    
C20   H2    S    
C27   H23   S    
C10   C18   S    
C4    C24   A    
C21   N5    S    
C25   H19   S    
C9    C17   S    
C17   C19   A    
C12   C14   A    
N6    H14   S    
N5    H11   S    
O7    Zn2   S    
C18   C20   A    
C22   C23   A    
O5    Zn1   S    
N7    H25   S    
C19   H1    S    
N4    H10   S    
C8    N8    S    
C7    N1    A    
C15   C16   A    
C22   N6    S    
C28   H20   S    
C5    H5    S    
C4    C27   S    
N7    H26   S    
C9    O7    A    
N6    H13   S    
C1    O3    A    
C1    C24   S    
C12   N4    S    
O6    Zn1   S    
C21   C24   A    
C2    O4    A    
C2    C23   S    
C5    C7    A    
O3    Zn2   S    
N2    Zn2   S    
N4    H9    S    
C13   H3    S    
C10   O8    A    
C6    C8    A    
N1    Zn1   S    
C14   H4    S    
C3    C25   S    
C25   H18   S    
C8    N1    A    
C3    C23   A    
C6    H6    S    
C3    C4    A    
C26   H16   S    
N8    H27   S    
N5    H12   S    
C9    O5    A    
