data_mof_unit_11796.cif
_audit_creation_date              2012-12-10T18:06:40-0500
_audit_creation_method            fapswitch 2.2
_symmetry_space_group_name_H-M    P1
_symmetry_Int_Tables_number       1
_space_group_crystal_system       triclinic
_cell_length_a                    12.577857
_cell_length_b                    13.14312
_cell_length_c                    15.367253
_cell_angle_alpha                 84.301163
_cell_angle_beta                  99.733547
_cell_angle_gamma                 96.673281
_cell_volume                      2478.61625876

loop_
_atom_site_label
_atom_site_type_symbol
_atom_type_description
_atom_site_fract_x
_atom_site_fract_y
_atom_site_fract_z
_atom_type_partial_charge
C1    C     C_R   0.441858 0.308727 0.505986 0.823993
C2    C     C_R   0.407730 0.443507 0.100890 0.085827
C3    C     C_R   0.306156 0.479504 0.063329 0.101664
C4    C     C_R   0.471356 0.404499 0.046658 0.074314
C5    C     C_R   0.444002 0.422511 0.954204 0.032993
C6    C     C_R   0.339938 0.450671 0.917957 -0.201663
C7    C     C_R   0.270293 0.476900 0.971695 -0.046125
C8    C     C_R   0.562237 0.350018 0.081053 -0.214070
C9    C     C_R   0.628880 0.322627 0.025171 -0.218646
C10   C     C_R   0.611251 0.355563 0.935203 0.173031
C11   C     C_R   0.521394 0.410429 0.900491 0.095991
C12   C     C_R   0.433827 0.509740 0.335898 0.824663
C13   C     C_R   0.681456 0.334764 0.878920 -0.203529
C14   C     C_R   0.665692 0.373282 0.790109 -0.149111
C15   C     C_R   0.514853 0.457703 0.814591 -0.252558
C16   C     C_R   0.638133 0.942804 0.360474 -0.221225
C17   C     C_R   0.576966 0.801369 0.460157 -0.088601
C18   C     C_R   0.326911 0.159397 0.560931 -0.202902
C19   C     C_R   0.300844 0.053946 0.572729 -0.081475
C20   C     C_R   0.356530 0.988175 0.535810 -0.156853
C21   C     C_R   0.436680 0.027813 0.483368 0.070732
C22   C     C_R   0.448542 0.133937 0.459092 0.101742
C23   C     C_R   0.554519 0.691900 0.486094 0.951613
C24   C     C_R   0.506029 0.965708 0.454693 0.068267
C25   C     C_R   0.570521 0.005512 0.389550 0.167460
C26   C     C_R   0.566076 0.107236 0.354448 -0.234111
C27   C     C_R   0.505896 0.171045 0.389099 -0.202076
C28   C     C_R   0.516319 0.866343 0.492659 -0.264940
C29   C     C_R   0.640623 0.840104 0.394326 0.005526
C30   C     C_R   0.403015 0.199830 0.506143 -0.105862
C31   C     C_R   0.137751 0.688692 0.563998 -0.223918
C32   C     C_R   0.754229 0.373164 0.400059 0.066384
C33   C     C_R   0.846961 0.348437 0.372030 -0.239545
C34   C     C_R   0.561867 0.478906 0.664511 0.959353
C35   C     C_R   0.946427 0.402873 0.400194 -0.126845
C36   C     C_R   0.952118 0.482620 0.455940 0.012186
C37   C     C_R   0.855736 0.504058 0.483543 0.046337
C38   C     C_R   0.049633 0.540311 0.489215 -0.055217
C39   C     C_R   0.043083 0.634214 0.525739 -0.083720
C40   C     C_R   0.940999 0.659607 0.538798 0.317381
C41   C     C_R   0.862858 0.576527 0.545707 0.380135
C42   C     C_R   0.151845 0.504737 0.494786 -0.069539
C43   C     C_R   0.233466 0.641967 0.582128 0.545362
C44   C     C_R   0.388381 0.500280 0.242734 -0.045203
C45   C     C_R   0.586105 0.440230 0.758510 -0.082242
C46   C     C_R   0.244590 0.519407 0.118158 -0.183775
C47   C     C_R   0.285547 0.529689 0.207140 -0.188270
C48   C     C_R   0.447450 0.455834 0.190157 -0.249387
H1    H     H_    0.746899 0.287311 0.903043 0.156121
H2    H     H_    0.611463 0.138290 0.302121 0.136483
H3    H     H_    0.686959 0.973188 0.310132 0.144480
H4    H     H_    0.475867 0.837152 0.547787 0.214341
H5    H     H_    0.289084 0.209185 0.595978 0.174041
H6    H     H_    0.333505 0.906895 0.546844 0.174977
H7    H     H_    0.240404 0.022916 0.613377 0.191649
H8    H     H_    0.503082 0.249172 0.359857 0.146999
H9    H     H_    0.454509 0.509797 0.791009 0.223088
H10   H     H_    0.134686 0.759850 0.592318 0.243986
H11   H     H_    0.162766 0.437185 0.464006 0.141797
H12   H     H_    0.676838 0.333030 0.376067 0.117171
H13   H     H_    0.016780 0.384061 0.375737 0.131882
H14   H     H_    0.841368 0.288307 0.327678 0.144206
H15   H     H_    0.713235 0.347788 0.746475 0.225590
H16   H     H_    0.696730 0.279418 0.052983 0.146547
H17   H     H_    0.166042 0.545585 0.092231 0.148498
H18   H     H_    0.237567 0.562244 0.247590 0.161895
H19   H     H_    0.527143 0.435273 0.218961 0.154001
H20   H     H_    0.310744 0.448984 0.847726 0.195310
H21   H     H_    0.580906 0.324415 0.150403 0.134323
N1    N     N_R   0.239390 0.551900 0.544730 -0.157005
N2    N     N_R   0.759950 0.448600 0.455730 -0.108004
O1    O     O_R   0.374950 0.371210 0.521360 -0.626767
O2    O     O_R   0.542050 0.338030 0.492790 -0.618726
O3    O     O_R   0.368720 0.526070 0.390200 -0.629889
O4    O     O_R   0.535820 0.492890 0.361630 -0.636734
O5    O     O_R   0.457950 0.661970 0.507210 -0.579483
O6    O     O_R   0.625050 0.628790 0.478640 -0.598224
O7    O     O_R   0.464180 0.507110 0.638370 -0.563432
O8    O     O_R   0.631280 0.473930 0.609800 -0.534374
Zn1   Zn    Zn3+2 0.388420 0.522150 0.519080 0.990902
Zn2   Zn    Zn3+2 0.611580 0.477850 0.480920 1.004757
C49   C     C_1   0.164857 0.505739 0.930306 0.244108
N3    N     N_1   0.080418 0.528869 0.897418 -0.108198
C50   C     C_1   0.705757 0.776392 0.358227 0.242978
N4    N     N_1   0.758051 0.725372 0.329342 -0.203143
S1    S     S_3+6 0.325837 0.686713 0.675212 0.019066
O9    O     O_2   0.303749 0.792836 0.690956 -0.329489
O10   O     O_2   0.302598 0.616472 0.754222 -0.326454
O11   O     O_3   0.458110 0.692013 0.668958 -0.555710
H22   H     H_    0.496295 0.710378 0.727995 0.376844
S2    S     S_3+6 0.922750 0.774878 0.583081 0.052676
O12   O     O_2   0.983526 0.777784 0.676020 -0.225961
O13   O     O_2   0.964681 0.865527 0.526400 -0.329818
O14   O     O_3   0.790508 0.780373 0.585292 -0.538810
H23   H     H_    0.786182 0.849010 0.605108 0.385263
S3    S     S_3+6 0.871956 0.522368 0.656509 0.070581
O15   O     O_2   0.839366 0.408862 0.656725 -0.334317
O16   O     O_2   0.987403 0.538317 0.702483 -0.273072
O17   O     O_3   0.793990 0.580057 0.711349 -0.509316
H24   H     H_    0.820424 0.562448 0.774900 0.378818

loop_
_geom_bond_atom_site_label_1
_geom_bond_atom_site_label_2
_ccdc_geom_bond_type
C8    C9    A    
C12   O3    A    
C9    H16   S    
C17   C29   A    
C35   C36   A    
C16   H3    S    
C23   O5    A    
C4    C8    A    
C8    H21   S    
C17   C23   S    
C31   C43   A    
C31   H10   S    
C36   C37   A    
C5    C11   A    
C3    C7    A    
C26   H2    S    
C5    C6    A    
O7    Zn1   S    
C41   S3    S    
S3    O17   S    
C42   N1    A    
C18   C19   A    
C18   H5    S    
C11   C15   A    
C19   C20   A    
C33   H14   S    
S3    O16   D    
C18   C30   A    
C14   C45   A    
C9    C10   A    
C47   H18   S    
C44   C47   A    
C6    H20   S    
C40   S2    S    
O3    Zn1   S    
C21   C22   A    
C15   H9    S    
O2    Zn2   S    
C32   N2    A    
C1    O1    A    
N1    Zn1   S    
C24   C28   A    
C24   C25   A    
C29   C50   S    
C20   H6    S    
C39   C40   A    
O8    Zn2   S    
S1    O9    D    
O4    Zn2   S    
C2    C48   A    
C16   C29   A    
C10   C13   A    
C23   O6    A    
C2    C4    A    
C34   O8    A    
S2    O13   D    
O17   H24   S    
O6    Zn2   S    
S3    O15   D    
C17   C28   A    
C26   C27   A    
C35   H13   S    
C34   C45   S    
C50   N4    T    
C46   H17   S    
C13   H1    S    
C40   C41   A    
C43   N1    A    
C22   C27   A    
C37   N2    A    
C12   O4    A    
C32   H12   S    
S2    O12   D    
C19   H7    S    
C16   C25   A    
C46   C47   A    
C22   C30   A    
C27   H8    S    
C43   S1    S    
O5    Zn1   S    
C4    C5    A    
S1    O11   S    
C42   H11   S    
C38   C42   A    
C6    C7    A    
C3    C46   A    
C1    O2    A    
C32   C33   A    
C36   C38   A    
C2    C3    A    
C25   C26   A    
C12   C44   S    
C34   O7    A    
S2    O14   S    
C28   H4    S    
C38   C39   A    
C14   H15   S    
C1    C30   S    
C33   C35   A    
C31   C39   A    
S1    O10   D    
C48   H19   S    
C37   C41   A    
O14   H23   S    
C10   C11   A    
C7    C49   S    
C20   C21   A    
O1    Zn1   S    
C49   N3    T    
C21   C24   A    
C15   C45   A    
O11   H22   S    
C13   C14   A    
C44   C48   A    
N2    Zn2   S    
