data_mof_unit_65250.cif
_audit_creation_date              2012-12-10T22:08:24-0500
_audit_creation_method            fapswitch 2.2
_symmetry_space_group_name_H-M    P1
_symmetry_Int_Tables_number       1
_space_group_crystal_system       triclinic
_cell_length_a                    15.971002
_cell_length_b                    16.169607
_cell_length_c                    29.976047
_cell_angle_alpha                 91.289457
_cell_angle_beta                  90.164907
_cell_angle_gamma                 91.163897
_cell_volume                      7737.55889883

loop_
_atom_site_label
_atom_site_type_symbol
_atom_type_description
_atom_site_fract_x
_atom_site_fract_y
_atom_site_fract_z
_atom_type_partial_charge
C1    C     C_R   0.618874 0.999695 0.559088 0.890116
C2    C     C_R   0.381126 0.000304 0.440912 0.890116
C3    C     C_R   0.924337 0.855910 0.154704 -0.215837
C4    C     C_R   0.075660 0.144088 0.845298 -0.215848
C5    C     C_R   0.061065 0.879567 0.211644 -0.210659
C6    C     C_R   0.938953 0.120452 0.788348 -0.210646
C7    C     C_R   0.060735 0.815288 0.180013 0.314259
C8    C     C_R   0.939287 0.184732 0.819978 0.314277
C9    C     C_R   0.934364 0.139539 0.212848 -0.137694
C10   C     C_R   0.065616 0.860442 0.787138 -0.137641
C11   C     C_R   0.934656 0.202015 0.182074 -0.165169
C12   C     C_R   0.065324 0.797963 0.817911 -0.165147
C13   C     C_R   0.082407 0.939357 0.307159 -0.276335
C14   C     C_R   0.917594 0.060637 0.692838 -0.276336
C15   C     C_R   0.145453 0.933477 0.338908 0.316309
C16   C     C_R   0.854551 0.066517 0.661087 0.316306
C17   C     C_R   0.907014 0.079836 0.308630 -0.195229
C18   C     C_R   0.092955 0.920176 0.691357 -0.195240
C19   C     C_R   0.844513 0.077856 0.340787 -0.144063
C20   C     C_R   0.155455 0.922156 0.659198 -0.144074
C21   C     C_3   0.997549 0.011254 0.248481 -0.010028
C22   C     C_3   0.002447 0.988748 0.751520 -0.010017
C23   C     C_R   0.617616 0.000958 0.440834 0.897777
C24   C     C_R   0.382384 0.999042 0.559165 0.897770
C25   C     C_R   0.071716 0.011902 0.282181 0.014426
C26   C     C_R   0.928273 0.988101 0.717824 0.014404
C27   C     C_R   0.197488 0.001987 0.348166 0.017665
C28   C     C_R   0.802500 0.998017 0.651840 0.017664
C29   C     C_R   0.921400 0.010584 0.280237 0.130494
C30   C     C_R   0.078594 0.989411 0.719761 0.130446
C31   C     C_R   0.796962 0.005721 0.346396 0.152705
C32   C     C_R   0.203035 0.994269 0.653603 0.152675
C33   C     C_R   0.002312 0.085196 0.216559 0.040373
C34   C     C_R   0.997684 0.914807 0.783443 0.040396
C35   C     C_R   0.002104 0.212156 0.153612 0.022893
C36   C     C_R   0.997896 0.787845 0.846388 0.022908
C37   C     C_R   0.993377 0.934647 0.215811 -0.035605
C38   C     C_R   0.006626 0.065357 0.784188 -0.035596
C39   C     C_R   0.992429 0.804234 0.151271 0.009736
C40   C     C_R   0.007582 0.195776 0.848724 0.009745
C41   C     C_1   0.733987 0.003294 0.379814 -0.044992
C42   C     C_1   0.266011 0.996698 0.620186 -0.044992
C43   C     C_1   0.680945 0.001699 0.407844 -0.138882
C44   C     C_1   0.319053 0.998298 0.592155 -0.138884
C45   C     C_R   0.120824 0.083638 0.295664 0.299624
C46   C     C_R   0.879145 0.916373 0.704352 0.299622
C47   C     C_1   0.262028 0.999246 0.380975 0.045873
C48   C     C_1   0.737966 0.000757 0.619028 0.045870
C49   C     C_1   0.316419 0.999176 0.408454 -0.118532
C50   C     C_1   0.683578 0.000825 0.591547 -0.118533
C51   C     C_1   0.999188 0.275330 0.121422 0.047051
C52   C     C_1   0.000814 0.724668 0.878577 0.047052
C53   C     C_1   0.998359 0.327491 0.093889 -0.106833
C54   C     C_1   0.001642 0.672508 0.906110 -0.106827
C55   C     C_1   0.991790 0.741101 0.117311 0.048813
C56   C     C_1   0.008216 0.258906 0.882686 0.048817
C57   C     C_1   0.991954 0.688006 0.088895 -0.108954
C58   C     C_1   0.008048 0.311997 0.911104 -0.108950
C59   C     C_R   0.993994 0.623749 0.055995 0.887722
C60   C     C_R   0.006006 0.376251 0.944004 0.887714
C61   C     C_R   0.999048 0.388576 0.060896 0.888504
C62   C     C_R   0.000952 0.611423 0.939103 0.888506
C63   C     C_R   0.184493 0.076320 0.327120 -0.197175
C64   C     C_R   0.815475 0.923693 0.672897 -0.197190
C65   C     C_R   0.874439 0.937037 0.288133 -0.116749
C66   C     C_R   0.125586 0.062937 0.711880 -0.116744
C67   C     C_R   0.811986 0.935298 0.320323 -0.128287
C68   C     C_R   0.188041 0.064670 0.679692 -0.128301
C69   C     C_R   0.072410 0.097514 0.187340 0.261865
C70   C     C_R   0.927602 0.902507 0.812675 0.261870
C71   C     C_R   0.071252 0.160796 0.155920 0.279096
C72   C     C_R   0.928767 0.839232 0.844097 0.279088
C73   C     C_R   0.923588 0.920480 0.186210 0.266992
C74   C     C_R   0.076405 0.079513 0.813795 0.266970
H1    H     H_    0.222651 0.130235 0.336496 0.194777
H2    H     H_    0.777304 0.869783 0.663529 0.194779
H3    H     H_    0.886626 0.879615 0.270435 0.150232
H4    H     H_    0.113428 0.120347 0.729590 0.150257
H5    H     H_    0.041559 0.885880 0.301519 0.185259
H6    H     H_    0.958454 0.114107 0.698471 0.185274
H7    H     H_    0.880935 0.241676 0.179885 0.175172
H8    H     H_    0.119031 0.758281 0.820086 0.175160
H9    H     H_    0.834090 0.132232 0.361677 0.159119
H10   H     H_    0.165855 0.867798 0.638297 0.159123
O1    O     O_R   0.591150 0.068800 0.545430 -0.596786
O2    O     O_R   0.408850 0.931200 0.454570 -0.596784
O3    O     O_R   0.588750 0.931200 0.454570 -0.610264
O4    O     O_R   0.411250 0.068800 0.545430 -0.610264
O5    O     O_R   0.590220 0.070350 0.455860 -0.608672
O6    O     O_R   0.409780 0.929650 0.544140 -0.608673
O7    O     O_R   0.589680 0.929650 0.544140 -0.614599
O8    O     O_R   0.410320 0.070350 0.455860 -0.614597
O9    O     O_R   0.065580 0.596830 0.043410 -0.593316
O10   O     O_R   0.934420 0.403170 0.956590 -0.593317
O11   O     O_R   0.928990 0.412290 0.044840 -0.615239
O12   O     O_R   0.071010 0.587710 0.955160 -0.615238
O13   O     O_R   0.069930 0.417270 0.047240 -0.590722
O14   O     O_R   0.930070 0.582730 0.952760 -0.590724
O15   O     O_R   0.924640 0.591850 0.041010 -0.611442
O16   O     O_R   0.075360 0.408150 0.958990 -0.611447
Zn1   Zn    Zn3+2 0.500990 0.093570 0.500870 1.032372
Zn2   Zn    Zn3+2 0.499010 0.906430 0.499130 1.032372
Zn3   Zn    Zn3+2 0.094790 0.503330 0.001610 1.061180
Zn4   Zn    Zn3+2 0.905210 0.496670 0.998390 1.061179
Br1   Br    Br    0.174191 0.035201 0.190705 -0.388189
Br2   Br    Br    0.825832 0.964837 0.809322 -0.388175
Br3   Br    Br    0.822332 0.982977 0.185795 -0.497355
Br4   Br    Br    0.177639 0.016988 0.814222 -0.497358
H11   H     H_    0.117492 0.887449 0.231155 0.222384
H12   H     H_    0.882529 0.112575 0.768835 0.222371
H13   H     H_    0.878026 0.132960 0.232223 0.196595
H14   H     H_    0.121943 0.867007 0.767753 0.196569
H15   H     H_    0.944355 0.135857 0.305979 0.187889
H16   H     H_    0.055593 0.864171 0.693997 0.187875
H17   H     H_    0.776475 0.878482 0.325437 0.153466
H18   H     H_    0.223578 0.121468 0.674590 0.153474
Br5   Br    Br    0.164139 0.178225 0.115682 -0.347566
Br6   Br    Br    0.835915 0.821848 0.884364 -0.347588
H19   H     H_    0.871326 0.846285 0.132360 0.201073
H20   H     H_    0.128661 0.153704 0.867646 0.201072
Br7   Br    Br    0.156569 0.745688 0.176182 -0.392949
Br8   Br    Br    0.843470 0.254341 0.823804 -0.392985
Br9   Br    Br    0.157499 0.831140 0.369246 -0.439182
Br10  Br    Br    0.842530 0.168840 0.630734 -0.439193
Br11  Br    Br    0.103944 0.196887 0.279325 -0.494463
Br12  Br    Br    0.896008 0.803125 0.720697 -0.494460

loop_
_geom_bond_atom_site_label_1
_geom_bond_atom_site_label_2
_ccdc_geom_bond_type
C16   C28   A    
C66   C68   A    
C13   H5    S    
C9    H13   S    
C5    C37   A    
C4    H20   S    
C17   C29   A    
C19   C31   A    
O9    Zn3   S    
O4    Zn1   S    
C17   H15   S    
C47   C49   T    
C11   H7    S    
C22   C34   S    
C31   C67   A    
C15   Br9   S    
C62   O12   A    
C20   C32   A    
C73   Br3   S    
C21   C33   S    
C58   C60   S    
C22   C38   S    
C23   C43   S    
C69   C71   A    
C67   H17   S    
O6    Zn2   S    
C21   C25   S    
C62   O14   A    
C53   C61   S    
C39   C55   S    
C4    C40   A    
C45   Br11  S    
C65   C67   A    
C6    C38   A    
C10   H14   S    
C18   C30   A    
C14   H6    S    
C12   C36   A    
C31   C41   S    
C1    C50   S    
C34   C70   A    
C4    C74   A    
C36   C52   S    
C33   C69   A    
C32   C68   A    
C48   C50   T    
O15   Zn4   S    
O10   Zn4   S    
C1    O7    A    
C23   O3    A    
C9    C33   A    
C41   C43   T    
C13   C25   A    
C42   C44   T    
C7    Br7   S    
C19   H9    S    
C52   C54   T    
C1    O1    A    
C66   H4    S    
C65   H3    S    
C71   Br5   S    
C3    H19   S    
C70   Br2   S    
C5    C7    A    
C69   Br1   S    
C6    C8    A    
C54   C62   S    
C40   C56   S    
C21   C29   S    
C45   C63   A    
O16   Zn3   S    
C46   C64   A    
C51   C53   T    
C6    H12   S    
O11   Zn4   S    
C2    C49   S    
O3    Zn2   S    
C9    C11   A    
C15   C27   A    
C13   C15   A    
C23   O5    A    
C64   H2    S    
C12   H8    S    
C10   C34   A    
O13   Zn3   S    
C14   C26   A    
C2    O8    A    
C24   O4    A    
C30   C66   A    
C10   C12   A    
O8    Zn1   S    
C68   H18   S    
C29   C65   A    
C28   C64   A    
C55   C57   T    
C35   C51   S    
C24   C44   S    
C14   C16   A    
O7    Zn2   S    
O2    Zn2   S    
C25   C45   A    
O1    Zn1   S    
C18   H16   S    
C38   C74   A    
C27   C47   S    
C37   C73   A    
C28   C48   S    
C32   C42   S    
C22   C30   S    
O5    Zn1   S    
C46   Br12  S    
C61   O13   A    
C60   O16   A    
C24   O6    A    
C61   O11   A    
C59   O9    A    
C20   H10   S    
C16   Br10  S    
C35   C71   A    
C8    Br8   S    
C63   H1    S    
O14   Zn4   S    
C59   O15   A    
C5    H11   S    
C11   C35   A    
C17   C19   A    
C56   C58   T    
C2    O2    A    
C18   C20   A    
C3    C73   A    
C57   C59   S    
C26   C46   A    
C74   Br4   S    
C21   C37   S    
C22   C26   S    
O12   Zn3   S    
C72   Br6   S    
C7    C39   A    
C27   C63   A    
C70   C72   A    
C8    C40   A    
C3    C39   A    
C36   C72   A    
C60   O10   A    
