data_mof_unit_67926.cif
_audit_creation_date              2013-03-05T16:14:17-0500
_audit_creation_method            fapswitch 2.2
_symmetry_space_group_name_H-M    P1
_symmetry_Int_Tables_number       1
_space_group_crystal_system       triclinic
_cell_length_a                    10.777428
_cell_length_b                    10.809374
_cell_length_c                    10.004176
_cell_angle_alpha                 88.237362
_cell_angle_beta                  89.559708
_cell_angle_gamma                 90.5725
_cell_volume                      1164.81214269

loop_
_atom_site_label
_atom_site_type_symbol
_atom_site_description
_atom_site_fract_x
_atom_site_fract_y
_atom_site_fract_z
_atom_type_partial_charge
O1    O     O_R   0.499990 0.316750 0.614620 -0.629558
O2    O     O_R   0.500010 0.683250 0.385380 -0.629468
O3    O     O_R   0.499990 0.316780 0.385290 -0.579428
O4    O     O_R   0.500010 0.683220 0.614710 -0.579380
C1    C     C_R   0.502986 0.260257 0.501386 0.919616
C2    C     C_R   0.497080 0.739748 0.498615 0.919607
O5    O     O_R   0.316760 0.500000 0.614660 -0.535733
O6    O     O_R   0.683240 0.500000 0.385340 -0.535750
O7    O     O_R   0.316760 0.500020 0.385330 -0.620706
O8    O     O_R   0.683240 0.499980 0.614670 -0.621034
C3    C     C_R   0.260592 0.498402 0.499117 0.966921
C4    C     C_R   0.739404 0.501618 0.500887 0.966819
Zn1   Zn    Zn3+2 0.500000 0.499980 0.653120 1.081364
Zn2   Zn    Zn3+2 0.500000 0.500020 0.346880 1.081533
C5    C     C_R   0.190733 0.896813 0.280340 0.124495
C6    C     C_R   0.808760 0.103752 0.720486 0.124534
C7    C     C_R   0.159915 0.803602 0.376832 0.155007
C8    C     C_R   0.839924 0.196670 0.623791 0.154502
C9    C     C_R   0.128153 0.684181 0.334727 -0.183358
C10   C     C_R   0.871829 0.316136 0.665626 -0.182966
C11   C     C_R   0.137548 0.655459 0.197189 0.217383
C12   C     C_R   0.862346 0.345180 0.803072 0.217881
C13   C     C_R   0.185550 0.745834 0.104974 0.138250
C14   C     C_R   0.813713 0.255225 0.895398 0.137964
C15   C     C_R   0.208789 0.866665 0.146175 0.133403
C16   C     C_R   0.790242 0.134308 0.854494 0.133431
C17   C     C_R   0.937297 0.602511 0.445558 0.302589
C18   C     C_R   0.062677 0.397580 0.554524 0.303175
C19   C     C_R   0.872149 0.503133 0.505819 -0.154005
C20   C     C_R   0.127842 0.496932 0.494216 -0.153938
C21   C     C_R   0.934711 0.404545 0.569607 0.044174
C22   C     C_R   0.065281 0.595589 0.430540 0.044462
C23   C     C_R   0.531236 0.067464 0.383108 0.022806
C24   C     C_R   0.469002 0.932547 0.616916 0.023572
H1    H     H_    0.554784 0.118555 0.291390 0.211699
H2    H     H_    0.445432 0.881462 0.708631 0.211713
C25   C     C_R   0.523180 0.940369 0.380162 -0.088886
C26   C     C_R   0.477080 0.059638 0.619867 -0.088500
H3    H     H_    0.541389 0.895840 0.287013 0.212474
H4    H     H_    0.458868 0.104164 0.713018 0.212317
C27   C     C_R   0.493761 0.872594 0.497365 -0.056589
C28   C     C_R   0.506450 0.127417 0.502653 -0.056491
C29   C     C_R   0.568622 0.584432 0.067050 0.259478
C30   C     C_R   0.431402 0.415553 0.932949 0.259305
C31   C     C_R   0.568938 0.584370 0.924600 0.271746
C32   C     C_R   0.431090 0.415602 0.075395 0.272258
N1    N     N_R   0.499970 0.499970 0.857200 -0.198983
N2    N     N_R   0.500030 0.500030 0.142800 -0.198813
N3    N     N_R   0.252168 0.959902 0.051605 0.271708
O9    O     O_R   0.183140 0.994414 0.951261 -0.220664
O10   O     O_R   0.359268 0.013578 0.068521 -0.331227
N4    N     N_R   0.746129 0.041420 0.949135 0.271256
O11   O     O_R   0.813589 0.008510 0.051269 -0.221504
O12   O     O_R   0.640594 0.985577 0.929871 -0.330987
Br1   Br    Br    0.670113 0.703129 0.826734 -0.200435
Br2   Br    Br    0.329979 0.296729 0.173213 -0.200941
N5    N     N_R   0.193716 0.024063 0.315148 0.283141
O13   O     O_R   0.123284 0.103154 0.252072 -0.199206
O14   O     O_R   0.257957 0.059504 0.416328 -0.347291
N6    N     N_R   0.806100 0.976368 0.686146 0.283810
O15   O     O_R   0.876539 0.897630 0.749733 -0.198883
O16   O     O_R   0.742215 0.940451 0.584908 -0.346555
N7    N     N_R   0.152452 0.831095 0.516323 0.252978
O17   O     O_R   0.207092 0.760136 0.604450 -0.367538
O18   O     O_R   0.086219 0.922635 0.556906 -0.189633
N8    N     N_R   0.847632 0.168803 0.484404 0.252983
O19   O     O_R   0.793346 0.239655 0.395905 -0.366892
O20   O     O_R   0.913825 0.077059 0.444277 -0.189727
N9    N     N_R   0.092408 0.538114 0.150981 0.276839
O21   O     O_R   0.986765 0.492648 0.193763 -0.277752
O22   O     O_R   0.149989 0.481199 0.056834 -0.271520
N10   N     N_R   0.908132 0.462363 0.849079 0.276777
O23   O     O_R   0.014132 0.507034 0.806404 -0.277994
O24   O     O_R   0.850911 0.519777 0.943106 -0.270720
Br3   Br    Br    0.215593 0.710460 0.919981 -0.205377
Br4   Br    Br    0.782842 0.291440 0.080050 -0.207901
Br5   Br    Br    0.855118 0.754181 0.398229 -0.249417
Br6   Br    Br    0.144792 0.245951 0.602053 -0.248588
Br7   Br    Br    0.666826 0.705342 0.150955 -0.239807
Br8   Br    Br    0.333313 0.294561 0.849050 -0.239825

loop_
_geom_bond_atom_site_label_1
_geom_bond_atom_site_label_2
_geom_bond_distance
_ccdc_geom_bond_type
N8    O20   1.299143 A    
C1    C28   1.436444 S    
N7    O18   1.299161 A    
C4    C19   1.431826 S    
C17   C19   1.396051 A    
O5    C3    1.309445 A    
O1    C1    1.303680 A    
C23   C28   1.402803 A    
C9    C11   1.422902 A    
C14   C16   1.402738 A    
C26   C28   1.396009 A    
N5    O14   1.296153 A    
C29   Br7   1.893787 S    
N6    O16   1.296195 A    
C6    N6    1.429428 S    
O4    Zn1   2.006001 S    
N9    O22   1.298077 A    
C7    C9    1.409889 A    
C3    C20   1.431874 S    
C30   C32   1.425055 A    
N3    O10   1.301247 A    
C2    C27   1.436457 S    
C20   C22   1.405999 A    
C18   Br6   1.919162 S    
C29   N2    1.374229 A    
C8    C10   1.409820 A    
C30   N1    1.374187 A    
N8    O19   1.299198 A    
C19   C21   1.405932 A    
C5    N5    1.429352 S    
O2    C2    1.303702 A    
C24   C27   1.402799 A    
C9    C22   1.488471 S    
C12   N10   1.444533 S    
N4    O12   1.300759 A    
C31   N1    1.368013 A    
C6    C16   1.403815 A    
C32   N2    1.368074 A    
C30   Br8   1.893693 S    
N10   O24   1.298054 A    
Zn1   N1    2.041646 S    
C14   Br4   1.927191 S    
Zn2   N2    2.041646 S    
C17   Br5   1.919412 S    
C23   C25   1.376924 A    
C11   N9    1.444463 S    
N6    O15   1.300923 A    
O7    Zn2   2.009066 S    
C16   N4    1.433759 S    
O7    C3    1.284735 A    
O6    C4    1.309468 A    
C29   C31   1.425090 A    
O3    Zn2   2.006000 S    
O8    C4    1.284682 A    
O4    C2    1.296375 A    
C10   C12   1.422940 A    
C11   C13   1.414273 A    
C12   C14   1.414371 A    
O1    Zn1   2.029300 S    
N4    O11   1.301304 A    
C5    C7    1.409208 A    
O6    Zn2   2.014888 S    
C17   C22   1.389350 A    
C24   C26   1.376895 A    
C18   C21   1.389262 A    
C13   Br3   1.926899 S    
N10   O23   1.299743 A    
O3    C1    1.296389 A    
O8    Zn1   2.009065 S    
C8    N8    1.437603 S    
C18   C20   1.396113 A    
C25   H3    1.079482 S    
C7    N7    1.437515 S    
C26   H4    1.079475 S    
N5    O13   1.300931 A    
C23   H1    1.083404 S    
C24   H2    1.083401 S    
C13   C15   1.402393 A    
C25   C27   1.396012 A    
N9    O21   1.299785 A    
O2    Zn2   2.029299 S    
C15   N3    1.433362 S    
C5    C15   1.403480 A    
N7    O17   1.299158 A    
O5    Zn1   2.014890 S    
C31   Br1   1.916707 S    
C6    C8    1.409201 A    
N3    O9    1.301675 A    
C32   Br2   1.916887 S    
C10   C21   1.488573 S    
