data_mof_unit_13026.cif
_audit_creation_date              2012-12-11T16:57:16-0500
_audit_creation_method            fapswitch 2.2
_symmetry_space_group_name_H-M    P1
_symmetry_Int_Tables_number       1
_space_group_crystal_system       triclinic
_cell_length_a                    14.387848
_cell_length_b                    16.390176
_cell_length_c                    7.015137
_cell_angle_alpha                 89.938049
_cell_angle_beta                  98.615507
_cell_angle_gamma                 90.033355
_cell_volume                      1635.6366322

loop_
_atom_site_label
_atom_site_type_symbol
_atom_type_description
_atom_site_fract_x
_atom_site_fract_y
_atom_site_fract_z
_atom_type_partial_charge
O1    O     O_R   0.584990 0.413650 0.534420 -0.527363
O2    O     O_R   0.584990 0.586350 0.534420 -0.525806
O3    O     O_R   0.596190 0.585230 0.208380 -0.496829
O4    O     O_R   0.596190 0.414770 0.208380 -0.498084
O5    O     O_R   0.415010 0.586420 0.976930 -0.548304
O6    O     O_R   0.415010 0.413580 0.976930 -0.549779
C1    C     C_R   0.620596 0.613018 0.384440 0.765830
C2    C     C_R   0.619346 0.386166 0.384331 0.753571
O7    O     O_3   0.440560 0.500000 0.319140 -0.420018
V1    V     V_3+5 0.511030 0.500000 0.068070 1.652895
O8    O     O_R   0.403810 0.414840 0.643540 -0.543009
O9    O     O_R   0.403810 0.585160 0.643540 -0.543835
C3    C     C_R   0.382369 0.385701 0.806789 0.739054
C4    C     C_R   0.381672 0.613790 0.806650 0.739955
V2    V     V_3+5 0.488970 0.500000 0.560620 1.539196
O10   O     O_3   0.559440 0.500000 0.859420 -0.302263
H1    H     H_    0.175089 0.796466 0.815748 0.175436
H2    H     H_    0.184754 0.195391 0.812257 0.182156
C5    C     C_2   0.305448 0.675646 0.801262 0.083754
C6    C     C_2   0.307733 0.322399 0.801441 0.088217
C7    C     C_2   0.300146 0.727016 0.953278 0.378578
C8    C     C_2   0.304363 0.270068 0.952614 0.384346
H3    H     H_    0.239628 0.812398 0.251369 0.169900
H4    H     H_    0.238133 0.189553 0.252626 0.176473
C9    C     C_2   0.199768 0.824018 0.111081 -0.306084
C10   C     C_2   0.201944 0.174495 0.110989 -0.318833
C11   C     C_2   0.219317 0.784608 0.952259 -0.144974
C12   C     C_2   0.225212 0.210616 0.950850 -0.153212
C13   C     C_R   0.693179 0.732425 0.579615 -0.211537
C14   C     C_R   0.692942 0.267712 0.584003 -0.202962
C15   C     C_R   0.688911 0.683262 0.415387 -0.135875
C16   C     C_R   0.686166 0.315150 0.415845 -0.155353
C17   C     C_R   0.759261 0.697708 0.298688 0.533912
C18   C     C_R   0.755458 0.300566 0.297799 0.543880
C19   C     C_R   0.812889 0.771142 0.319000 -0.305947
C20   C     C_R   0.810904 0.228952 0.320179 -0.258487
H5    H     H_    0.862116 0.783981 0.221783 0.189831
H6    H     H_    0.862357 0.219195 0.227917 0.114300
C21   C     C_R   0.816072 0.820490 0.482409 -0.125567
C22   C     C_R   0.814016 0.178773 0.481701 -0.072584
C23   C     C_R   0.758927 0.796478 0.616604 -0.125475
C24   C     C_R   0.759778 0.203793 0.620588 -0.115373
C25   C     C_3   0.784679 0.772934 0.824934 0.258022
C26   C     C_3   0.800829 0.236944 0.812787 0.270670
C27   C     C_3   0.713302 0.703146 0.785262 0.786818
C28   C     C_3   0.723160 0.300988 0.783143 0.812225
H7    H     H_    0.761203 0.821124 0.918153 0.069103
H8    H     H_    0.796770 0.191586 0.928867 0.022939
O11   O     O_R   0.921430 0.915960 0.371040 -0.538691
O12   O     O_R   0.921430 0.084040 0.371040 -0.548426
O13   O     O_R   0.910450 0.087500 0.697310 -0.545006
O14   O     O_R   0.910450 0.912500 0.697310 -0.534123
O15   O     O_R   0.091710 0.087460 0.928430 -0.543668
O16   O     O_R   0.091710 0.912540 0.928430 -0.540247
C29   C     C_R   0.886553 0.112897 0.519447 0.734599
C30   C     C_R   0.886697 0.887307 0.519598 0.718548
O17   O     O_3   0.065970 0.000000 0.586140 -0.371059
V3    V     V_3+5 0.995640 0.000000 0.837400 1.439865
O18   O     O_R   0.103020 0.915700 0.261710 -0.535763
O19   O     O_R   0.103020 0.084300 0.261710 -0.534006
C31   C     C_R   0.125484 0.886831 0.099987 0.762681
C32   C     C_R   0.127134 0.111919 0.100095 0.714382
V4    V     V_3+5 0.017940 1.000000 0.344880 1.434250
O20   O     O_3   0.947330 0.000000 0.046180 -0.380087
Cl1   Cl    Cl    0.761344 0.601694 0.795208 -0.549130
Cl2   Cl    Cl    0.768732 0.403315 0.783005 -0.512645
O21   O     O_3   0.378161 0.736426 0.094465 -0.586994
C33   C     C_3   0.365415 0.695172 0.265543 -0.135908
H9    H     H_    0.302786 0.654207 0.251759 0.171048
H10   H     H_    0.362487 0.739998 0.382680 0.141155
H11   H     H_    0.428482 0.657678 0.312267 0.155545
O22   O     O_3   0.383108 0.261580 0.092414 -0.584459
C34   C     C_3   0.369496 0.300836 0.265280 -0.146873
H12   H     H_    0.368467 0.254759 0.380791 0.141202
H13   H     H_    0.305441 0.339967 0.253775 0.170649
H14   H     H_    0.431068 0.340024 0.312496 0.154971
Cl3   Cl    Cl    0.213654 0.670388 0.603534 -0.751783
Cl4   Cl    Cl    0.215495 0.326429 0.604381 -0.731359
O23   O     O_3   0.782462 0.635693 0.182349 -0.508302
C35   C     C_3   0.877236 0.612117 0.238990 -0.101165
H15   H     H_    0.895229 0.565840 0.136334 0.195643
H16   H     H_    0.887668 0.585572 0.386389 0.103189
H17   H     H_    0.928184 0.662305 0.230535 0.138950
O24   O     O_3   0.781290 0.362268 0.184064 -0.519236
C36   C     C_3   0.857429 0.404857 0.289556 -0.111655
H18   H     H_    0.908817 0.365210 0.381910 0.137693
H19   H     H_    0.830361 0.451950 0.380579 0.164216
H20   H     H_    0.897569 0.434124 0.185652 0.171158
O25   O     O_3   0.879088 0.749062 0.898480 -0.560509
C37   C     C_3   0.933422 0.713744 0.767921 -0.094625
H21   H     H_    0.891975 0.682556 0.643987 0.138360
H22   H     H_    0.980152 0.667122 0.846760 0.173518
H23   H     H_    0.979642 0.760471 0.716886 0.131493
O26   O     O_3   0.890188 0.271235 0.795772 -0.534948
C38   C     C_3   0.958869 0.252090 0.953203 -0.103479
H24   H     H_    0.954773 0.295312 0.072815 0.143190
H25   H     H_    0.028732 0.260921 0.908032 0.167036
H26   H     H_    0.954877 0.187650 0.000314 0.109003
O27   O     O_3   0.638456 0.707807 0.897471 -0.538586
C39   C     C_3   0.568755 0.766334 0.831804 -0.289629
H27   H     H_    0.524341 0.744893 0.697876 0.136464
H28   H     H_    0.599124 0.827296 0.809395 0.113238
H29   H     H_    0.522821 0.773795 0.943654 0.207120
O28   O     O_3   0.655005 0.295336 0.911130 -0.539798
C40   C     C_3   0.594886 0.226709 0.882334 -0.301958
H30   H     H_    0.554915 0.222667 0.005352 0.203898
H31   H     H_    0.634281 0.168644 0.879033 0.112988
H32   H     H_    0.543053 0.234177 0.749156 0.144556

loop_
_geom_bond_atom_site_label_1
_geom_bond_atom_site_label_2
_ccdc_geom_bond_type
O11   V4    S    
O1    C2    A    
C34   H13   S    
C34   H12   S    
O2    C1    A    
O4    C2    A    
C37   H21   S    
C38   H26   S    
C21   C23   A    
C36   H18   S    
C40   H31   S    
C25   O25   S    
C24   C26   S    
O19   V4    S    
C19   H5    S    
H4    C10   S    
C28   Cl2   S    
O3    C1    A    
C35   H15   S    
V2    O10   S    
O19   C32   A    
C5    Cl3   S    
O8    V2    S    
C38   H24   S    
C33   H9    S    
C15   C17   A    
O1    V2    S    
O7    V1    S    
C18   C20   A    
C22   C24   A    
C7    C11   S    
C8    C12   S    
C7    O21   S    
O12   V4    S    
C23   C25   S    
C18   O24   S    
C35   H17   S    
C8    O22   S    
O28   C40   S    
C26   C28   S    
O17   V4    S    
C36   H19   S    
V3    O20   S    
C40   H32   S    
O18   C31   A    
C1    C15   S    
O21   C33   S    
C2    C16   S    
C20   C22   A    
H2    C12   S    
O24   C36   S    
C35   H16   S    
C27   O27   S    
C17   O23   S    
C28   O28   S    
C39   H29   S    
V4    O20   S    
C13   C27   S    
H1    C11   S    
C19   C21   A    
O15   C32   A    
C37   H22   S    
C21   C30   S    
O9    V2    S    
C22   C29   S    
C39   H28   S    
O13   V3    S    
C9    C31   S    
O2    V2    S    
C25   C27   S    
O5    C4    A    
O14   V3    S    
C6    C8    D    
C27   Cl1   S    
C34   H14   S    
O4    V1    S    
C37   H23   S    
O16   V3    S    
C36   H20   S    
C3    C6    S    
C13   C23   A    
C10   C12   D    
C4    C5    S    
C14   C28   S    
O9    C4    A    
O22   C34   S    
O6    V1    S    
O15   V3    S    
C38   H25   S    
O16   C31   A    
C9    C11   D    
O11   C30   A    
C40   H30   S    
O18   V4    S    
O12   C29   A    
O27   C39   S    
C6    Cl4   S    
C20   H6    S    
O7    V2    S    
O5    V1    S    
C13   C15   A    
O3    V1    S    
V1    O10   S    
O6    C3    A    
C14   C16   A    
O8    C3    A    
O17   V3    S    
C33   H11   S    
C39   H27   S    
C17   C19   A    
O13   C29   A    
H3    C9    S    
C10   C32   S    
O26   C38   S    
C26   O26   S    
O23   C35   S    
O14   C30   A    
C33   H10   S    
C14   C24   A    
O25   C37   S    
C25   H7    S    
C26   H8    S    
C16   C18   A    
C5    C7    D    
