data_mof_unit_17468.cif
_audit_creation_date              2013-03-05T15:55:01-0500
_audit_creation_method            fapswitch 2.2
_symmetry_space_group_name_H-M    P1
_symmetry_Int_Tables_number       1
_space_group_crystal_system       triclinic
_cell_length_a                    11.657107
_cell_length_b                    12.448406
_cell_length_c                    13.294512
_cell_angle_alpha                 117.116605
_cell_angle_beta                  75.13268
_cell_angle_gamma                 101.303188
_cell_volume                      1652.63549048

loop_
_atom_site_label
_atom_site_type_symbol
_atom_site_description
_atom_site_fract_x
_atom_site_fract_y
_atom_site_fract_z
_atom_type_partial_charge
O1    O     O_R   0.533340 0.972510 0.318140 -0.519148
O2    O     O_R   0.488570 0.806530 0.359650 -0.525204
C1    C     C_R   0.511710 0.855606 0.285992 0.892513
O3    O     O_R   0.685190 0.083000 0.479260 -0.569897
O4    O     O_R   0.640410 0.917020 0.520770 -0.513450
C2    C     C_R   0.715695 0.000286 0.499644 0.827188
Cu1   Cu    Cu3+1 0.526510 0.098270 0.475420 1.090793
Cu2   Cu    Cu3+1 0.473490 0.901730 0.524580 1.083824
O5    O     O_R   0.511430 0.193470 0.640350 -0.524654
O6    O     O_R   0.466660 0.027490 0.681860 -0.520465
O7    O     O_R   0.359590 0.082980 0.479230 -0.570419
O8    O     O_R   0.314810 0.917000 0.520740 -0.516230
C3    C     C_R   0.491571 0.145587 0.713578 0.865721
C4    C     C_R   0.284306 0.999889 0.500520 0.839409
C5    C     C_1   0.837681 0.001303 0.499825 -0.101082
C6    C     C_1   0.940247 0.001110 0.500106 0.069008
C7    C     C_1   0.059846 0.999985 0.500440 0.044647
C8    C     C_1   0.162332 0.999327 0.500630 -0.105576
C9    C     C_R   0.409809 0.278192 0.039370 0.307330
C10   C     C_R   0.491322 0.231390 0.836889 -0.297048
C11   C     C_R   0.618645 0.812350 0.084515 0.146191
C12   C     C_R   0.690430 0.725262 0.993217 0.178676
C13   C     C_R   0.662914 0.602944 0.970895 0.440918
C14   C     C_R   0.550491 0.564197 0.022879 -0.089445
C15   C     C_R   0.486003 0.651502 0.122163 -0.190643
C16   C     C_R   0.504705 0.440640 0.984435 -0.104362
C17   C     C_R   0.424136 0.402616 0.063863 -0.231422
C18   C     C_R   0.359848 0.490054 0.163874 0.422473
C19   C     C_R   0.381106 0.612432 0.182624 0.423320
C20   C     C_R   0.528783 0.356452 0.867818 0.306646
C21   C     C_R   0.448438 0.191278 0.924860 0.328383
C22   C     C_R   0.529788 0.775137 0.160540 -0.225370
C23   C     C_R   0.714960 0.360745 0.356437 0.344739
N1    N     N_R   0.566700 0.246290 0.438210 -0.268116
C24   C     C_R   0.328971 0.751495 0.637675 0.371586
C25   C     C_R   0.302828 0.665509 0.683506 0.132927
C26   C     C_R   0.378051 0.574929 0.642564 -0.186396
C27   C     C_R   0.474381 0.562428 0.551611 -0.085913
C28   C     C_R   0.507972 0.659768 0.516814 0.043307
C29   C     C_R   0.539559 0.456241 0.493810 -0.145127
C30   C     C_R   0.654194 0.465036 0.428327 -0.223272
C31   C     C_R   0.701148 0.576577 0.427110 0.272545
C32   C     C_R   0.619969 0.653569 0.439177 0.438002
C33   C     C_R   0.495825 0.340569 0.494432 0.630013
C34   C     C_R   0.673590 0.252988 0.369048 0.540250
N2    N     N_R   0.434010 0.754320 0.561170 -0.254821
H1    H     H_    0.360284 0.515401 0.684467 0.267780
O9    O     O_3   0.463244 0.072139 0.897863 -0.560592
C35   C     C_3   0.360882 0.012015 0.940010 0.009374
H2    H     H_    0.356946 0.915062 0.878402 0.175578
H3    H     H_    0.276216 0.047283 0.949258 0.186132
H4    H     H_    0.369235 0.014687 0.022337 0.208363
N3    N     N_R   0.828236 0.611255 0.411533 0.173906
O10   O     O_R   0.898301 0.559096 0.434374 -0.253464
O11   O     O_R   0.869968 0.712096 0.402549 -0.343603
O12   O     O_3   0.809976 0.362504 0.269669 -0.551801
C36   C     C_3   0.766636 0.320405 0.167007 -0.208600
H5    H     H_    0.694618 0.373803 0.177698 0.129368
H6    H     H_    0.733876 0.222831 0.136066 0.246282
H7    H     H_    0.840834 0.330551 0.099576 0.185224
O13   O     O_3   0.382935 0.320080 0.551193 -0.565397
C37   C     C_3   0.301067 0.295017 0.479575 -0.212485
H8    H     H_    0.213307 0.262522 0.518091 0.189396
H9    H     H_    0.328280 0.223009 0.391363 0.207853
H10   H     H_    0.288414 0.377989 0.474700 0.139759
N4    N     N_R   0.238089 0.827461 0.663733 0.167638
O14   O     O_R   0.139287 0.778742 0.625816 -0.269782
O15   O     O_R   0.243787 0.939364 0.740316 -0.350491
N5    N     N_R   0.198083 0.667498 0.770180 0.162526
O16   O     O_R   0.153791 0.768942 0.844307 -0.271929
O17   O     O_R   0.151091 0.568370 0.780662 -0.327469
O18   O     O_3   0.650060 0.716205 0.371945 -0.519226
C38   C     C_3   0.680483 0.636539 0.254118 -0.311504
H11   H     H_    0.606167 0.565663 0.225810 0.131446
H12   H     H_    0.763481 0.593657 0.233287 0.186435
H13   H     H_    0.699653 0.690315 0.203764 0.165322
O19   O     O_3   0.260741 0.453456 0.228197 -0.516701
C39   C     C_3   0.277868 0.497641 0.342141 -0.092689
H14   H     H_    0.275162 0.597296 0.389545 0.195331
H15   H     H_    0.362835 0.471535 0.344460 0.119082
H16   H     H_    0.203161 0.457198 0.388527 0.191660
N6    N     N_R   0.372876 0.243307 0.132532 0.127245
O20   O     O_R   0.450199 0.251403 0.191475 -0.411161
O21   O     O_R   0.261176 0.211501 0.163615 -0.364532
N7    N     N_R   0.577669 0.400399 0.780793 0.183580
O22   O     O_R   0.676194 0.362862 0.708244 -0.297936
O23   O     O_R   0.526055 0.481779 0.776928 -0.355193
N8    N     N_R   0.632222 0.935613 0.098208 0.182270
O24   O     O_R   0.735521 0.986698 0.069006 -0.285413
O25   O     O_R   0.537870 0.991583 0.125211 -0.327638
O26   O     O_3   0.747673 0.523203 0.898414 -0.485544
C40   C     C_3   0.804729 0.497079 0.965097 -0.214484
H17   H     H_    0.741266 0.449850 0.013459 0.107900
H18   H     H_    0.850291 0.580674 0.024546 0.160990
H19   H     H_    0.874085 0.435101 0.906360 0.221665
N9    N     N_R   0.794763 0.759531 0.925774 0.204436
O27   O     O_R   0.888519 0.813357 0.971305 -0.259890
O28   O     O_R   0.805469 0.712928 0.814477 -0.211100
O29   O     O_3   0.299756 0.693279 0.261733 -0.584373
C41   C     C_3   0.224927 0.708176 0.201766 -0.197596
H20   H     H_    0.176534 0.620374 0.152099 0.191817
H21   H     H_    0.275952 0.750596 0.143816 0.161412
H22   H     H_    0.157172 0.769780 0.265333 0.198121
O30   O     O_3   0.733631 0.149344 0.305543 -0.530882
C42   C     C_3   0.853798 0.172409 0.319082 -0.094504
H23   H     H_    0.883956 0.087130 0.306284 0.158413
H24   H     H_    0.866491 0.241918 0.406561 0.144120
H25   H     H_    0.911815 0.198230 0.251675 0.223199

loop_
_geom_bond_atom_site_label_1
_geom_bond_atom_site_label_2
_geom_bond_distance
_ccdc_geom_bond_type
N4    O15   1.298852 A    
C29   C30   1.410023 A    
C32   O18   1.377365 S    
C23   C34   1.403557 A    
C30   C31   1.394934 A    
C4    C8    1.420141 S    
C24   C25   1.407563 A    
C9    C21   1.424301 A    
C35   H2    1.107263 S    
Cu1   Cu2   2.729953 S    
C10   C20   1.423223 A    
O19   C39   1.410571 S    
Cu1   O7    1.907348 S    
C42   H24   1.115303 S    
C16   C17   1.411960 A    
C26   C27   1.395516 A    
C18   C19   1.407790 A    
C14   C16   1.418926 A    
C31   N3    1.448238 S    
O4    C2    1.306050 A    
O7    C4    1.305274 A    
C39   H15   1.112921 S    
C36   H6    1.110720 S    
C5    C6    1.197066 T    
O12   C36   1.410917 S    
C38   H11   1.111557 S    
N5    O17   1.301853 A    
O5    C3    1.309917 A    
C41   H20   1.113738 S    
C37   H9    1.114319 S    
C2    C5    1.420193 S    
C6    C7    1.398151 S    
C35   H3    1.113706 S    
N9    O28   1.300993 A    
C13   C14   1.420938 A    
C26   H1    1.076702 S    
C9    N6    1.432229 S    
C9    C17   1.414115 A    
C37   H10   1.103827 S    
C23   O12   1.384125 S    
N7    O23   1.301222 A    
N4    O14   1.301483 A    
C11   N8    1.441397 S    
C11   C12   1.408413 A    
C38   H12   1.108125 S    
N5    O16   1.300956 A    
O3    Cu1   1.911924 S    
C41   H21   1.113000 S    
O30   C42   1.414810 S    
C42   H25   1.109117 S    
N3    O11   1.301625 A    
C15   C19   1.413061 A    
C11   C22   1.417940 A    
C19   O29   1.384081 S    
N1    C33   1.371935 A    
C14   C15   1.411331 A    
O3    C2    1.306689 A    
O26   C40   1.408623 S    
C39   H14   1.108844 S    
C36   H7    1.109150 S    
C28   C32   1.432184 A    
C24   N4    1.429134 S    
N7    O22   1.303369 A    
C41   H22   1.109164 S    
O1    C1    1.307105 A    
C37   H8    1.109136 S    
C34   O30   1.387459 S    
O29   C41   1.409215 S    
Cu2   O8    1.911924 S    
C35   H4    1.108491 S    
N9    O27   1.300972 A    
C40   H18   1.112942 S    
C7    C8    1.196972 T    
C1    C22   1.486215 S    
N1    C34   1.358749 A    
C20   N7    1.441880 S    
C18   O19   1.383978 S    
C28   N2    1.407355 A    
O9    C35   1.409641 S    
N8    O25   1.301453 A    
C16   C20   1.411229 A    
N6    O21   1.301514 A    
C21   O9    1.393377 S    
C38   H13   1.104225 S    
C13   O26   1.383487 S    
C31   C32   1.406152 A    
C25   N5    1.443294 S    
Cu1   O5    1.938600 S    
C25   C26   1.385566 A    
C3    C10   1.493625 S    
O1    Cu1   1.951574 S    
C12   N9    1.432067 S    
O2    Cu2   1.938600 S    
O8    C4    1.307339 A    
O18   C38   1.414104 S    
O6    C3    1.324303 A    
O4    Cu2   1.907347 S    
N3    O10   1.302219 A    
C33   O13   1.378609 S    
C42   H23   1.109251 S    
C23   C30   1.408067 A    
O2    C1    1.322920 A    
C27   C29   1.443321 A    
C39   H16   1.108027 S    
C36   H5    1.112765 S    
C27   C28   1.437947 A    
C15   C22   1.414004 A    
C40   H17   1.111907 S    
Cu1   N1    2.057437 S    
C40   H19   1.109062 S    
O13   C37   1.411890 S    
Cu2   N2    2.045368 S    
C29   C33   1.433282 A    
N8    O24   1.300042 A    
Cu2   O6    1.951573 S    
N6    O20   1.300584 A    
C17   C18   1.415396 A    
C12   C13   1.398185 A    
C24   N2    1.382621 A    
C10   C21   1.414742 A    
