data_mof_unit_24059.cif
_audit_creation_date              2012-12-10T17:09:51-0500
_audit_creation_method            fapswitch 2.2
_symmetry_space_group_name_H-M    P1
_symmetry_Int_Tables_number       1
_space_group_crystal_system       triclinic
_cell_length_a                    10.998276
_cell_length_b                    13.194595
_cell_length_c                    11.689984
_cell_angle_alpha                 98.871476
_cell_angle_beta                  91.193917
_cell_angle_gamma                 91.579568
_cell_volume                      1674.952487

loop_
_atom_site_label
_atom_site_type_symbol
_atom_type_description
_atom_site_fract_x
_atom_site_fract_y
_atom_site_fract_z
_atom_type_partial_charge
C1    C     C_R   0.499259 0.298955 0.479706 0.811449
C2    C     C_R   0.061577 0.463259 0.593939 0.013074
C3    C     C_R   0.127651 0.503753 0.507167 -0.110895
C4    C     C_R   0.063191 0.540122 0.416195 -0.068802
C5    C     C_R   0.937360 0.521331 0.401013 -0.078171
C6    C     C_R   0.870985 0.483964 0.488788 -0.110863
C7    C     C_R   0.467832 0.811170 0.533300 -0.135234
C8    C     C_R   0.497200 0.184582 0.469324 -0.138401
C9    C     C_R   0.497238 0.016374 0.347068 -0.091084
C10   C     C_R   0.505803 0.123636 0.358831 -0.084470
C11   C     C_R   0.491956 0.134963 0.569405 -0.037295
C12   C     C_R   0.262222 0.501885 0.503000 0.848147
C13   C     C_R   0.470466 0.027220 0.556933 0.074752
C14   C     C_R   0.473238 0.967476 0.444818 0.026202
C15   C     C_R   0.455153 0.859848 0.434439 -0.108734
C16   C     C_R   0.453015 0.870069 0.643489 -0.094906
C17   C     C_R   0.444683 0.976706 0.653610 -0.050928
C18   C     C_R   0.390496 0.397540 0.028330 -0.127117
C19   C     C_R   0.400751 0.408131 0.149261 0.087955
C20   C     C_R   0.549569 0.543257 0.153219 0.178032
C21   C     C_R   0.550610 0.529372 0.029838 0.032636
C22   C     C_R   0.462390 0.461511 0.967867 -0.028905
C23   C     C_R   0.489861 0.699547 0.521021 0.823833
C24   C     C_R   0.449908 0.459648 0.846940 0.014626
C25   C     C_R   0.616420 0.576422 0.846311 0.058913
C26   C     C_R   0.635985 0.579681 0.965036 -0.095668
C27   C     C_R   0.737376 0.494880 0.496211 0.796474
C28   C     C_R   0.116980 0.430386 0.691478 -0.101075
C29   C     C_R   0.044989 0.426340 0.788798 -0.044675
C30   C     C_R   0.922745 0.393076 0.767745 -0.076953
C31   C     C_R   0.874919 0.390636 0.655539 -0.080615
C32   C     C_R   0.934283 0.449142 0.580766 0.012756
Cu1   Cu    Cu3+1 0.509250 0.507730 0.615930 0.968943
Cu2   Cu    Cu3+1 0.490750 0.492270 0.384070 0.999398
H1    H     H_    0.381973 0.410680 0.797660 0.119439
H2    H     H_    0.678975 0.616442 0.797142 0.139573
H3    H     H_    0.346631 0.358893 0.195765 0.142585
N1    N     N_R   0.523180 0.519350 0.790130 -0.191850
N2    N     N_R   0.476820 0.480650 0.209890 -0.232316
O1    O     O_R   0.506570 0.354460 0.582000 -0.603944
O2    O     O_R   0.490940 0.341410 0.386200 -0.582055
O3    O     O_R   0.327470 0.506530 0.597920 -0.591257
O4    O     O_R   0.311840 0.493480 0.402120 -0.577334
O5    O     O_R   0.509060 0.658590 0.613800 -0.582664
O6    O     O_R   0.493430 0.645540 0.418000 -0.602219
O7    O     O_R   0.688160 0.506520 0.597880 -0.598149
O8    O     O_R   0.672530 0.493470 0.402080 -0.576458
C33   C     C_2   0.124807 0.606550 0.342121 0.391393
H4    H     H_    0.107683 0.595409 0.249192 0.106438
O9    O     O_2   0.191550 0.677685 0.386623 -0.553171
C34   C     C_1   0.402522 0.030718 0.762751 0.291708
N3    N     N_1   0.369327 0.071951 0.850550 -0.220852
C35   C     C_1   0.533487 0.169024 0.255965 0.314866
N4    N     N_1   0.555985 0.204178 0.173779 -0.218356
C36   C     C_2   0.526639 0.191935 0.686181 0.421743
H5    H     H_    0.471724 0.252647 0.728137 0.103014
O10   O     O_2   0.615241 0.167175 0.738970 -0.517882
C37   C     C_1   0.308051 0.318584 0.969598 0.231332
N5    N     N_1   0.240845 0.255718 0.923329 -0.220505
C38   C     C_1   0.752164 0.623256 0.011303 0.321938
N6    N     N_1   0.845655 0.658086 0.047001 -0.239500
C39   C     C_2   0.615694 0.633076 0.220256 0.395436
H6    H     H_    0.665597 0.628158 0.298709 0.109472
O11   O     O_2   0.612719 0.716935 0.188874 -0.563282
C40   C     C_1   0.195916 0.344825 0.665928 0.258111
N7    N     N_1   0.256177 0.274415 0.643888 -0.320903
C41   C     C_2   0.100514 0.456134 0.906029 0.396607
H7    H     H_    0.192262 0.489010 0.914782 0.063772
O12   O     O_2   0.044755 0.447885 0.993496 -0.521589
C42   C     C_1   0.849230 0.356815 0.855224 0.388851
N8    N     N_1   0.790088 0.327982 0.925110 -0.174543
C43   C     C_1   0.803954 0.301918 0.602301 0.301410
N9    N     N_1   0.752864 0.228880 0.556215 -0.252336
C44   C     C_2   0.878496 0.541057 0.292113 0.358881
H8    H     H_    0.886014 0.616774 0.267215 0.065294
O13   O     O_2   0.827624 0.471032 0.226424 -0.488066
C45   C     C_1   0.402888 0.802599 0.327921 0.421675
N10   N     N_1   0.360318 0.757866 0.242814 -0.203693
C46   C     C_1   0.437439 0.822279 0.746785 0.322179
N11   N     N_1   0.424846 0.784798 0.829197 -0.233734
C47   C     C_1   0.522815 0.958536 0.234063 0.287680
N12   N     N_1   0.543268 0.914431 0.143377 -0.169136

loop_
_geom_bond_atom_site_label_1
_geom_bond_atom_site_label_2
_ccdc_geom_bond_type
C6    C32   A    
C36   H5    S    
C23   O6    A    
C1    C8    S    
C21   C26   A    
C17   C34   S    
C47   N12   T    
C45   N10   T    
C39   H6    S    
C44   O13   D    
Cu1   O3    S    
C28   C29   A    
C12   O4    A    
C5    C6    A    
C2    C32   A    
C18   C19   A    
C5    C44   S    
C10   C35   S    
C12   O3    A    
C3    C12   S    
C19   H3    S    
C1    O1    A    
C29   C41   S    
C18   C37   S    
C31   C32   A    
C16   C17   A    
C24   N1    A    
C42   N8    T    
C9    C10   A    
C39   O11   D    
C33   O9    D    
C13   C14   A    
Cu1   O7    S    
Cu2   O2    S    
C30   C42   S    
Cu1   O1    S    
C44   H8    S    
C41   H7    S    
C24   H1    S    
C20   N2    A    
C4    C5    A    
C25   C26   A    
C35   N4    T    
C23   O5    A    
Cu2   N2    S    
C38   N6    T    
C41   O12   D    
C9    C14   A    
C29   C30   A    
C25   N1    A    
C6    C27   S    
C30   C31   A    
Cu1   Cu2   S    
Cu2   O6    S    
C19   N2    A    
C27   O7    A    
C1    O2    A    
C31   C43   S    
C36   O10   D    
C22   C24   A    
C3    C4    A    
C11   C36   S    
C4    C33   S    
C27   O8    A    
C33   H4    S    
C18   C22   A    
Cu1   O5    S    
C7    C16   A    
Cu2   O4    S    
C43   N9    T    
Cu1   N1    S    
C13   C17   A    
C16   C46   S    
C2    C3    A    
C37   N5    T    
C34   N3    T    
C11   C13   A    
C15   C45   S    
C8    C11   A    
C7    C23   S    
C7    C15   A    
C28   C40   S    
C20   C39   S    
C25   H2    S    
C46   N11   T    
C20   C21   A    
C8    C10   A    
C40   N7    T    
C14   C15   A    
C2    C28   A    
Cu2   O8    S    
C21   C22   A    
C26   C38   S    
C9    C47   S    
