data_mof_unit_33094.cif
_audit_creation_date              2012-12-11T16:32:29-0500
_audit_creation_method            fapswitch 2.2
_symmetry_space_group_name_H-M    P1
_symmetry_Int_Tables_number       1
_space_group_crystal_system       triclinic
_cell_length_a                    6.935037
_cell_length_b                    14.098194
_cell_length_c                    16.279779
_cell_angle_alpha                 90.038479
_cell_angle_beta                  89.83891
_cell_angle_gamma                 90.055157
_cell_volume                      1591.69097939

loop_
_atom_site_label
_atom_site_type_symbol
_atom_type_description
_atom_site_fract_x
_atom_site_fract_y
_atom_site_fract_z
_atom_type_partial_charge
O1    O     O_R   0.361630 0.167340 0.164570 -0.536143
O2    O     O_R   0.638370 0.832660 0.835430 -0.536143
O3    O     O_R   0.690860 0.157560 0.338690 -0.541141
O4    O     O_R   0.309140 0.842440 0.661310 -0.541142
O5    O     O_R   0.861260 0.336420 0.339380 -0.539339
O6    O     O_R   0.138740 0.663580 0.660620 -0.539339
C1    C     C_R   0.522011 0.135718 0.368863 0.672188
C2    C     C_R   0.477989 0.864282 0.631136 0.672189
O7    O     O_R   0.691330 0.156310 0.165190 -0.539961
O8    O     O_R   0.308670 0.843690 0.834810 -0.539961
O9    O     O_R   0.861730 0.335160 0.164640 -0.535958
O10   O     O_R   0.138270 0.664840 0.835360 -0.535959
C3    C     C_R   0.522226 0.128386 0.140847 0.722937
C4    C     C_R   0.477774 0.871614 0.859153 0.722936
O11   O     O_R   0.361150 0.168600 0.339320 -0.537291
O12   O     O_R   0.638850 0.831400 0.660680 -0.537291
O13   O     O_3   0.527950 0.310560 0.252000 -0.367114
O14   O     O_3   0.472050 0.689440 0.748000 -0.367114
V1    V     V_3+5 0.802770 0.240990 0.251980 1.393182
V2    V     V_3+5 0.197230 0.759010 0.748020 1.393182
O15   O     O_R   0.191450 0.346190 0.165260 -0.540101
O16   O     O_R   0.808550 0.653810 0.834740 -0.540101
C5    C     C_R   0.022438 0.374046 0.141227 0.724471
C6    C     C_R   0.977562 0.625954 0.858773 0.724471
O17   O     O_R   0.190980 0.347440 0.338770 -0.543481
O18   O     O_R   0.809020 0.652560 0.661230 -0.543481
C7    C     C_R   0.022342 0.368260 0.368715 0.677940
C8    C     C_R   0.977658 0.631740 0.631285 0.677941
V3    V     V_3+5 0.302780 0.262760 0.251980 1.393221
V4    V     V_3+5 0.697220 0.737240 0.748020 1.393221
O19   O     O_3   0.027730 0.193200 0.251960 -0.368009
O20   O     O_3   0.972270 0.806800 0.748040 -0.368009
C9    C     C_3   0.951539 0.413137 0.526678 -0.154415
C10   C     C_3   0.048461 0.586863 0.473322 -0.154415
C11   C     C_3   0.121222 0.473604 0.559849 -0.140652
C12   C     C_3   0.878778 0.526396 0.440151 -0.140653
C13   C     C_3   0.988486 0.561215 0.561662 0.007115
C14   C     C_3   0.011514 0.438785 0.438337 0.007114
C15   C     C_3   0.818766 0.501490 0.529261 -0.113937
C16   C     C_3   0.181234 0.498510 0.470739 -0.113937
H1    H     H_    0.669062 0.502738 0.553604 0.106307
H2    H     H_    0.330937 0.497262 0.446396 0.106307
H3    H     H_    0.954792 0.274117 0.778490 0.112613
H4    H     H_    0.045208 0.725883 0.221510 0.112613
C17   C     C_R   0.996942 0.700375 0.017908 -0.142823
C18   C     C_R   0.003058 0.299625 0.982092 -0.142823
C19   C     C_R   0.012782 0.743550 0.093645 -0.143595
C20   C     C_R   0.987219 0.256449 0.906355 -0.143595
C21   C     C_R   0.032332 0.689154 0.163277 -0.106607
C22   C     C_R   0.967668 0.310846 0.836723 -0.106607
C23   C     C_R   0.035207 0.589684 0.159019 0.149183
C24   C     C_R   0.964792 0.410316 0.840981 0.149184
C25   C     C_R   0.017097 0.542057 0.080768 0.042507
C26   C     C_R   0.982903 0.457943 0.919232 0.042507
C27   C     C_R   0.000209 0.600085 0.009098 0.023948
C28   C     C_R   0.999791 0.399915 0.990902 0.023948
C29   C     C_R   0.014471 0.440790 0.070602 -0.164848
C30   C     C_R   0.985529 0.559210 0.929398 -0.164847
H5    H     H_    0.981044 0.747926 0.966305 0.126808
H6    H     H_    0.018956 0.252074 0.033695 0.126808
H7    H     H_    0.010073 0.820181 0.098352 0.135175
H8    H     H_    0.989927 0.179818 0.901647 0.135175
C31   C     C_3   0.378190 0.974937 0.439935 -0.137334
C32   C     C_3   0.621810 0.025063 0.560065 -0.137334
C33   C     C_3   0.547883 0.913633 0.471999 -0.151141
C34   C     C_3   0.452116 0.086367 0.528001 -0.151141
H9    H     H_    0.587451 0.842298 0.448508 0.094037
H10   H     H_    0.412549 0.157702 0.551492 0.094037
H11   H     H_    0.276119 0.953808 0.390801 0.104105
H12   H     H_    0.723881 0.046192 0.609199 0.104105
C35   C     C_3   0.489058 0.936953 0.561216 -0.000356
C36   C     C_3   0.510942 0.063047 0.438784 -0.000356
C37   C     C_3   0.319363 0.997684 0.529751 -0.111628
C38   C     C_3   0.680637 0.002316 0.470249 -0.111628
H13   H     H_    0.169636 0.996221 0.554056 0.104834
H14   H     H_    0.830364 0.003779 0.445943 0.104834
H15   H     H_    0.545683 0.777002 0.223250 0.112323
H16   H     H_    0.454317 0.222998 0.776750 0.112323
C39   C     C_R   0.502042 0.200100 0.980574 -0.142659
C40   C     C_R   0.497958 0.799900 0.019426 -0.142659
C41   C     C_R   0.486395 0.242274 0.904469 -0.143009
C42   C     C_R   0.513605 0.757726 0.095531 -0.143009
C43   C     C_R   0.467202 0.186985 0.835269 -0.108135
C44   C     C_R   0.532798 0.813015 0.164731 -0.108135
C45   C     C_R   0.464570 0.087560 0.840288 0.149992
C46   C     C_R   0.535430 0.912440 0.159712 0.149991
C47   C     C_R   0.482804 0.040874 0.918876 0.044202
C48   C     C_R   0.517196 0.959126 0.081124 0.044202
C49   C     C_R   0.499227 0.099960 0.990225 0.023911
C50   C     C_R   0.500772 0.900040 0.009775 0.023911
C51   C     C_R   0.485983 0.939609 0.929592 -0.165363
C52   C     C_R   0.514017 0.060391 0.070408 -0.165363
H17   H     H_    0.517465 0.248330 0.031795 0.125785
H18   H     H_    0.482535 0.751670 0.968205 0.125785
H19   H     H_    0.488825 0.318847 0.899134 0.135064
H20   H     H_    0.511175 0.681153 0.100866 0.135064
H21   H     H_    0.222252 0.451960 0.609151 0.105048
H22   H     H_    0.777747 0.548040 0.390849 0.105048
C53   C     C_3   0.441386 0.037289 0.759622 -0.812609
H23   H     H_    0.428739 0.087240 0.707272 0.192203
H24   H     H_    0.570859 0.993569 0.747532 0.197292
H25   H     H_    0.306218 0.995506 0.759688 0.220138
C54   C     C_3   0.558614 0.962711 0.240378 -0.812610
H26   H     H_    0.571261 0.912760 0.292728 0.192204
H27   H     H_    0.693781 0.004494 0.240312 0.220139
H28   H     H_    0.429141 0.006431 0.252468 0.197292
H29   H     H_    0.911773 0.341095 0.548448 0.094758
H30   H     H_    0.088227 0.658905 0.451552 0.094758
C55   C     C_3   0.058320 0.540398 0.240064 -0.813414
H31   H     H_    0.070722 0.590918 0.292108 0.192166
H32   H     H_    0.928824 0.496681 0.252355 0.197494
H33   H     H_    0.193489 0.498742 0.240294 0.220113
C56   C     C_3   0.941679 0.459602 0.759936 -0.813413
H34   H     H_    0.929278 0.409082 0.707892 0.192165
H35   H     H_    0.806511 0.501258 0.759706 0.220113
H36   H     H_    0.071175 0.503319 0.747645 0.197494

loop_
_geom_bond_atom_site_label_1
_geom_bond_atom_site_label_2
_ccdc_geom_bond_type
H4    C21   S    
C34   H10   S    
C31   C33   S    
C47   C51   A    
C10   C13   S    
O13   V3    S    
C9    H29   S    
O4    C2    A    
V1    O19   S    
C19   C21   A    
C24   C56   S    
C34   C36   S    
O9    V1    S    
C9    C15   S    
C38   H14   S    
C10   C16   S    
C11   C13   S    
C44   C46   A    
C39   H17   S    
O3    C1    A    
C55   H32   S    
V2    O20   S    
C41   H19   S    
C46   C48   A    
C32   C35   S    
C7    C14   S    
O12   V4    S    
C28   C29   A    
C17   C19   A    
O9    C5    A    
O7    C3    A    
C9    C11   S    
O5    C7    A    
H16   C43   S    
O7    V1    S    
O6    C8    A    
C48   C52   A    
O8    V2    S    
C21   C23   A    
C22   C24   A    
O3    V1    S    
O14   V4    S    
C32   H12   S    
V4    O20   S    
C10   C12   S    
C56   H36   S    
C25   C27   A    
C2    O12   A    
C37   H13   S    
C46   C54   S    
C41   C43   A    
C24   C26   A    
O11   V3    S    
C18   C20   A    
C45   C47   A    
O17   V3    S    
C13   C15   S    
C26   C28   A    
C42   H20   S    
C6    C30   S    
C31   H11   S    
C15   H1    S    
O8    C4    A    
C55   H33   S    
C1    C36   S    
C39   C41   A    
C25   C29   A    
C1    O11   A    
C31   C37   S    
H15   C44   S    
C33   H9    S    
C33   C35   S    
C34   C37   S    
O15   V3    S    
C33   C38   S    
C23   C25   A    
C32   C34   S    
C45   C53   S    
C20   H8    S    
C53   H23   S    
O10   V2    S    
O1    V3    S    
C54   H27   S    
C49   C52   A    
C36   C38   S    
C43   C45   A    
C48   C50   A    
O18   V4    S    
C42   C44   A    
O15   C5    A    
C3    C52   S    
O16   C6    A    
O1    C3    A    
C40   H18   S    
C35   C37   S    
C56   H34   S    
C26   C30   A    
C5    C29   S    
C17   H5    S    
C2    C35   S    
O16   V4    S    
C18   H6    S    
C12   C15   S    
C16   H2    S    
C19   H7    S    
H3    C22   S    
O5    V1    S    
O17   C7    A    
O6    V2    S    
O10   C6    A    
O18   C8    A    
C9    C14   S    
O2    V4    S    
C10   H30   S    
C12   C14   S    
C11   C16   S    
V3    O19   S    
C55   H31   S    
C14   C16   S    
C50   C51   A    
C8    C13   S    
C20   C22   A    
O13   V1    S    
C40   C42   A    
C54   H28   S    
O14   V2    S    
C40   C50   A    
O2    C4    A    
C4    C51   S    
C39   C49   A    
O4    V2    S    
C53   H25   S    
C31   C36   S    
C17   C27   A    
C23   C55   S    
C27   C30   A    
C18   C28   A    
C54   H26   S    
C47   C49   A    
C32   C38   S    
C12   H22   S    
C11   H21   S    
C53   H24   S    
C56   H35   S    
