data_mof_unit_65597.cif
_audit_creation_date              2012-12-10T17:54:39-0500
_audit_creation_method            fapswitch 2.2
_symmetry_space_group_name_H-M    P1
_symmetry_Int_Tables_number       1
_space_group_crystal_system       triclinic
_cell_length_a                    18.839935
_cell_length_b                    18.792453
_cell_length_c                    18.761232
_cell_angle_alpha                 109.278121
_cell_angle_beta                  109.432607
_cell_angle_gamma                 109.4146
_cell_volume                      5131.41883087

loop_
_atom_site_label
_atom_site_type_symbol
_atom_type_description
_atom_site_fract_x
_atom_site_fract_y
_atom_site_fract_z
_atom_type_partial_charge
C1    C     C_R   0.118366 0.999644 0.618587 0.892490
C2    C     C_R   0.185353 0.270001 0.518981 0.029658
C3    C     C_R   0.176862 0.186368 0.490622 -0.069018
C4    C     C_R   0.235019 0.170314 0.466463 -0.115489
C5    C     C_R   0.301787 0.236544 0.472291 -0.170889
C6    C     C_R   0.316518 0.321518 0.509779 -0.057569
C7    C     C_R   0.258540 0.006211 0.682174 0.052676
C8    C     C_R   0.182711 0.996707 0.684200 -0.145721
C9    C     C_R   0.167738 0.977323 0.746020 0.251618
C10   C     C_R   0.232922 0.977304 0.809756 -0.192563
C11   C     C_R   0.313404 0.997859 0.813200 -0.125359
C12   C     C_R   0.114704 0.118789 0.495680 0.814923
C13   C     C_R   0.322953 0.007223 0.745671 0.110523
C14   C     C_3   0.393793 0.074134 0.746137 -0.439860
C15   C     C_3   0.322696 0.073446 0.676226 0.418901
C16   C     C_R   0.755422 0.735789 0.428865 0.124246
C17   C     C_R   0.816750 0.815757 0.502817 -0.098976
C18   C     C_R   0.811370 0.831100 0.579358 -0.149552
C19   C     C_R   0.746434 0.765988 0.579095 -0.191593
C20   C     C_R   0.684461 0.686451 0.501541 -0.083582
C21   C     C_R   0.691056 0.675106 0.427725 0.129278
C22   C     C_3   0.652219 0.612800 0.334064 -0.521378
C23   C     C_R   0.878703 0.997498 0.381346 0.789539
C24   C     C_3   0.725558 0.682071 0.335210 -0.431761
C25   C     C_R   0.806736 0.983793 0.238779 0.090587
C26   C     C_R   0.805876 0.991245 0.314611 -0.167603
C27   C     C_R   0.733999 0.991709 0.323869 0.137770
C28   C     C_R   0.675783 0.005407 0.265371 0.117995
C29   C     C_R   0.683218 0.003862 0.191666 -0.135316
C30   C     C_R   0.746003 0.988445 0.177922 0.007973
C31   C     C_3   0.811226 0.037595 0.159075 -0.445802
C32   C     C_3   0.878254 0.032359 0.226664 0.101788
C33   C     C_R   0.499913 0.619160 0.618869 0.781428
C34   C     C_R   0.882234 0.881441 0.501095 0.804164
C35   C     C_R   0.381605 0.384846 0.504074 0.768440
C36   C     C_R   0.499653 0.380876 0.381165 0.798060
C37   C     C_R   0.618393 0.618691 0.499962 0.802760
C38   C     C_R   0.497480 0.118996 0.116055 0.773921
C39   C     C_R   0.381226 0.000163 0.881218 0.844672
C40   C     C_R   0.499485 0.881453 0.880925 0.842932
C41   C     C_R   0.618370 0.002891 0.121892 0.801154
C42   C     C_R   0.423619 0.693918 0.668435 0.030408
C43   C     C_R   0.496638 0.682644 0.686056 -0.110523
C44   C     C_R   0.565879 0.730474 0.772543 -0.173494
C45   C     C_R   0.118803 0.285047 0.525124 -0.259705
C46   C     C_R   0.567064 0.795954 0.836873 -0.191136
C47   C     C_R   0.499433 0.814530 0.815216 -0.049859
C48   C     C_R   0.427474 0.761333 0.731907 0.073592
C49   C     C_3   0.381207 0.783974 0.668995 0.362661
C50   C     C_3   0.370973 0.705273 0.596875 -0.126247
C51   C     C_R   0.496062 0.320412 0.240520 0.002049
C52   C     C_R   0.501629 0.315822 0.314825 -0.091470
C53   C     C_R   0.512822 0.249468 0.326184 -0.179288
C54   C     C_R   0.508960 0.183927 0.259535 -0.199173
C55   C     C_R   0.499108 0.186799 0.183193 -0.076418
C56   C     C_R   0.134168 0.369114 0.568270 0.274271
C57   C     C_R   0.499020 0.259274 0.176856 0.074495
C58   C     C_3   0.434919 0.262279 0.105284 -0.097614
C59   C     C_3   0.427905 0.325282 0.176253 -0.071184
C60   C     C_R   0.218619 0.439418 0.612663 0.249087
C61   C     C_R   0.285181 0.425596 0.602433 -0.007190
C62   C     C_R   0.263117 0.340685 0.542653 0.035202
Cu1   Cu    Cu3+1 0.000020 0.938200 0.438210 1.053496
Cu2   Cu    Cu3+1 0.999980 0.061800 0.561790 1.030862
Cu3   Cu    Cu3+1 0.438170 0.500030 0.438220 0.932615
Cu4   Cu    Cu3+1 0.561770 0.500000 0.561810 0.992948
Cu5   Cu    Cu3+1 0.561810 0.061820 0.000030 0.982005
Cu6   Cu    Cu3+1 0.438190 0.938280 0.000080 1.022035
H1    H     H_    0.228880 0.106432 0.442924 0.196384
H2    H     H_    0.431365 0.048064 0.722641 0.255515
H3    H     H_    0.857578 0.892345 0.639146 0.199153
H4    H     H_    0.743983 0.778045 0.638587 0.161930
H5    H     H_    0.656868 0.553138 0.323818 0.200406
H6    H     H_    0.587186 0.602452 0.294237 0.207147
H7    H     H_    0.772714 0.662492 0.325752 0.217168
H8    H     H_    0.702230 0.710406 0.295410 0.197682
H9    H     H_    0.054143 0.231602 0.495835 0.179781
H10   H     H_    0.796574 0.999724 0.091361 0.226372
H11   H     H_    0.823205 0.104994 0.178794 0.192022
H12   H     H_    0.929329 0.096375 0.285439 0.115822
H13   H     H_    0.620876 0.719952 0.789833 0.176113
H14   H     H_    0.621657 0.833576 0.902558 0.147426
H15   H     H_    0.404994 0.722828 0.561751 0.197119
H16   H     H_    0.519458 0.245536 0.384181 0.160470
H17   H     H_    0.512066 0.130208 0.266850 0.155738
H18   H     H_    0.373290 0.199145 0.060115 0.150961
H19   H     H_    0.364904 0.294203 0.173999 0.174147
H20   H     H_    0.343106 0.221712 0.448532 0.148662
H21   H     H_    0.221858 0.964723 0.858529 0.189053
H22   H     H_    0.434227 0.136105 0.808785 0.199415
O1    O     O_R   0.090180 0.947810 0.537990 -0.561368
O2    O     O_R   0.552150 0.590170 0.642370 -0.593748
O3    O     O_R   0.357600 0.409850 0.447820 -0.583136
O4    O     O_R   0.461980 0.409830 0.552180 -0.577369
O5    O     O_R   0.447790 0.409860 0.357660 -0.596028
O6    O     O_R   0.552170 0.409840 0.462020 -0.573097
O7    O     O_R   0.537960 0.590200 0.447840 -0.590820
O8    O     O_R   0.642340 0.590180 0.552210 -0.568533
O9    O     O_R   0.552220 0.142430 0.090190 -0.593529
O10   O     O_R   0.447830 0.038100 0.090230 -0.594972
O11   O     O_R   0.462030 0.052220 0.909860 -0.594099
O12   O     O_R   0.090150 0.052180 0.642350 -0.540933
O13   O     O_R   0.357640 0.947890 0.909900 -0.560503
O14   O     O_R   0.552170 0.962000 0.909870 -0.560385
O15   O     O_R   0.447780 0.857670 0.909910 -0.552183
O16   O     O_R   0.642360 0.052210 0.090200 -0.582300
O17   O     O_R   0.537970 0.947880 0.090240 -0.594252
O18   O     O_R   0.090190 0.037990 0.447830 -0.564385
O19   O     O_R   0.090170 0.142360 0.552190 -0.569239
O20   O     O_R   0.909850 0.947820 0.357650 -0.555351
O21   O     O_R   0.909820 0.052190 0.462010 -0.603375
O22   O     O_R   0.909830 0.857640 0.447810 -0.587727
O23   O     O_R   0.909810 0.962010 0.552170 -0.580543
O24   O     O_R   0.447770 0.590190 0.538000 -0.589865
Br1   Br    Br    0.322716 0.183204 0.713247 -0.520704
Br2   Br    Br    0.315781 0.028009 0.563590 -0.434262
C63   C     C_3   0.717829 0.973303 0.392221 -0.387652
C64   C     C_3   0.691131 0.879025 0.368621 -0.827080
H23   H     H_    0.741723 0.864019 0.362876 0.234811
H24   H     H_    0.681568 0.867451 0.419915 0.250752
H25   H     H_    0.629357 0.834551 0.305718 0.255334
H26   H     H_    0.775560 0.017691 0.457896 0.230846
H27   H     H_    0.665805 0.983830 0.399421 0.216640
C65   C     C_3   0.612972 0.030253 0.286374 -0.415199
C66   C     C_3   0.661723 0.120036 0.367295 -0.819255
H28   H     H_    0.712138 0.125294 0.423596 0.262467
H29   H     H_    0.693508 0.170749 0.353019 0.263501
H30   H     H_    0.615478 0.132925 0.386147 0.243474
H31   H     H_    0.568652 0.034083 0.233650 0.213805
H32   H     H_    0.569708 0.980101 0.294031 0.209383
Br3   Br    Br    0.920987 0.959604 0.177350 -0.465263
Br4   Br    Br    0.278392 0.781425 0.673373 -0.441800
Br5   Br    Br    0.456343 0.893470 0.682476 -0.493478
C67   C     C_3   0.276013 0.630450 0.535110 -0.340191
C68   C     C_3   0.266583 0.548590 0.470264 -0.745405
H33   H     H_    0.298763 0.563721 0.433083 0.257860
H34   H     H_    0.294063 0.518205 0.504693 0.267480
H35   H     H_    0.196703 0.501045 0.423528 0.234500
H36   H     H_    0.245404 0.612619 0.572382 0.276166
H37   H     H_    0.239018 0.653273 0.497660 0.242084
Br6   Br    Br    0.039453 0.383385 0.573510 -0.419263
C69   C     C_3   0.474907 0.301440 0.058127 -0.354129
C70   C     C_3   0.469999 0.233973 0.981791 -0.802578
H38   H     H_    0.516661 0.212829 0.005559 0.283967
H39   H     H_    0.403123 0.177743 0.938592 0.246746
H40   H     H_    0.488129 0.263531 0.943738 0.252349
H41   H     H_    0.438364 0.330543 0.031266 0.233536
H42   H     H_    0.543940 0.353070 0.103729 0.210696
C71   C     C_3   0.455340 0.418625 0.191916 -0.382257
C72   C     C_3   0.379251 0.423613 0.135415 -0.805437
H43   H     H_    0.350935 0.378134 0.065411 0.258954
H44   H     H_    0.327966 0.407143 0.153533 0.254054
H45   H     H_    0.401822 0.490700 0.145904 0.243040
H46   H     H_    0.477660 0.462453 0.260712 0.234624
H47   H     H_    0.510560 0.445012 0.181377 0.201266
Br7   Br    Br    0.242499 0.551267 0.693442 -0.451667
C73   C     C_3   0.378399 0.490839 0.673920 -0.401193
C74   C     C_3   0.402886 0.468827 0.746711 -0.699196
H48   H     H_    0.397442 0.403692 0.721333 0.270589
H49   H     H_    0.359754 0.469349 0.775101 0.271740
H50   H     H_    0.470897 0.517782 0.798865 0.235077
H51   H     H_    0.424622 0.493343 0.650549 0.207423
H52   H     H_    0.389009 0.557583 0.702132 0.240493
Br8   Br    Br    0.060655 0.951728 0.746817 -0.506282

loop_
_geom_bond_atom_site_label_1
_geom_bond_atom_site_label_2
_ccdc_geom_bond_type
C70   H40   S    
C16   C21   A    
C68   H35   S    
C1    C8    S    
C34   O22   A    
Cu3   O24   S    
C54   C55   A    
C19   C20   A    
Cu6   O13   S    
C63   H26   S    
C37   O7    A    
C57   C58   S    
C59   C71   S    
C68   H33   S    
C53   C54   A    
C34   O23   A    
Cu2   O12   S    
C33   O24   A    
C73   C74   S    
C53   H16   S    
C28   C29   A    
C67   H37   S    
C5    C6    A    
C40   O14   A    
C70   H38   S    
C18   H3    S    
C6    C35   S    
C70   H39   S    
C18   C19   A    
C23   C26   S    
Cu1   O22   S    
C36   O6    A    
C64   H23   S    
C12   O19   A    
C3    C12   S    
C74   H50   S    
C46   H14   S    
C5    H20   S    
C14   H22   S    
C38   C55   S    
C31   C32   S    
C10   H21   S    
C16   C17   A    
C72   H45   S    
C50   H15   S    
C66   H30   S    
C51   C57   A    
Cu6   O17   S    
C9    C10   A    
C73   H52   S    
C36   C52   S    
Cu5   O9    S    
Cu4   O4    S    
C25   C32   S    
Cu3   O3    S    
C63   H27   S    
C16   C24   S    
C71   H46   S    
C13   C14   S    
C74   H49   S    
C14   H2    S    
C19   H4    S    
C31   H11   S    
C58   H18   S    
C4    H1    S    
C44   C46   A    
Cu5   O14   S    
C39   O11   A    
C59   H19   S    
C35   O3    A    
C2    C45   A    
C49   Br4   S    
C41   O16   A    
C65   H32   S    
Cu5   Cu6   S    
C33   C43   S    
C69   H42   S    
C7    C8    A    
C45   C56   A    
C38   O10   A    
C44   H13   S    
C50   C67   S    
C33   O2    A    
C67   H36   S    
C12   O18   A    
C8    C9    A    
Cu2   O21   S    
Cu4   O2    S    
C73   H51   S    
C25   C26   A    
C40   C47   S    
C56   C60   A    
C60   C61   A    
C64   H25   S    
C9    Br8   S    
C43   C44   A    
C60   Br7   S    
C29   C30   A    
C72   H44   S    
C61   C73   S    
C66   H29   S    
C32   H12   S    
C58   C69   S    
C47   C48   A    
Cu3   O5    S    
C30   C31   S    
C17   C18   A    
C26   C27   A    
C37   O8    A    
Cu5   O16   S    
C42   C48   A    
C11   C39   S    
C42   C50   S    
C56   Br6   S    
C48   C49   S    
Cu6   O15   S    
C49   C50   S    
C55   C57   A    
C74   H48   S    
C22   C24   S    
C51   C59   S    
C17   C34   S    
C22   H6    S    
C3    C4    A    
C52   C53   A    
Cu5   O11   S    
C31   H10   S    
Cu4   O6    S    
C35   O4    A    
C25   C30   A    
C68   H34   S    
C23   O20   A    
C49   Br5   S    
C46   C47   A    
Cu2   O23   S    
C41   O17   A    
C29   C41   S    
C14   C15   S    
Cu6   O10   S    
C24   H8    S    
C38   O9    A    
C54   H17   S    
C28   C65   S    
C24   H7    S    
C39   O13   A    
C67   C68   S    
C23   O21   A    
C63   C64   S    
C72   H43   S    
C6    C62   A    
Cu1   O20   S    
C2    C3    A    
C58   C59   S    
Cu3   O7    S    
C51   C52   A    
C71   C72   S    
C20   C37   S    
C11   C13   A    
C36   O5    A    
Cu4   O8    S    
Cu2   O19   S    
C66   H28   S    
C4    C5    A    
C69   H41   S    
C7    C15   S    
C65   H31   S    
C15   Br1   S    
C71   H47   S    
C61   C62   A    
C64   H24   S    
C10   C11   A    
Cu1   Cu2   S    
C7    C13   A    
C20   C21   A    
C1    O1    A    
Cu3   Cu4   S    
C42   C43   A    
Cu1   O1    S    
C27   C28   A    
C69   C70   S    
C15   Br2   S    
C65   C66   S    
C45   H9    S    
C27   C63   S    
C22   H5    S    
Cu1   O18   S    
C21   C22   S    
C1    O12   A    
C32   Br3   S    
C2    C62   A    
C40   O15   A    
