data_mof_unit_19503.cif
_audit_creation_date              2012-12-11T14:17:37-0500
_audit_creation_method            fapswitch 2.2
_symmetry_space_group_name_H-M    P1
_symmetry_Int_Tables_number       1
_space_group_crystal_system       triclinic
_cell_length_a                    6.959354
_cell_length_b                    13.747217
_cell_length_c                    20.400529
_cell_angle_alpha                 102.315023
_cell_angle_beta                  89.528856
_cell_angle_gamma                 90.577065
_cell_volume                      1906.71024291

loop_
_atom_site_label
_atom_site_type_symbol
_atom_type_description
_atom_site_fract_x
_atom_site_fract_y
_atom_site_fract_z
_atom_type_partial_charge
O1    O     O_R   0.506860 0.599390 0.449240 -0.539640
O2    O     O_R   0.180220 0.594600 0.586780 -0.542919
O3    O     O_R   0.004500 0.400610 0.550760 -0.537561
C1    C     C_R   0.346775 0.608693 0.614889 0.744417
O4    O     O_R   0.177490 0.611290 0.451970 -0.545901
O5    O     O_R   0.001750 0.417420 0.414990 -0.536307
C2    C     C_R   0.346445 0.635989 0.433707 0.698309
O6    O     O_R   0.509610 0.582580 0.585010 -0.542008
O7    O     O_3   0.337420 0.436370 0.488020 -0.372975
V1    V     V_3+5 0.064680 0.511800 0.502220 1.398010
O8    O     O_R   0.671710 0.405400 0.413220 -0.545395
C3    C     C_R   0.840566 0.384256 0.386480 0.740283
O9    O     O_R   0.674440 0.388710 0.548030 -0.548203
C4    C     C_R   0.841846 0.363820 0.565735 0.699673
V2    V     V_3+5 0.564010 0.488200 0.497780 1.387122
O10   O     O_3   0.841140 0.563630 0.511980 -0.373572
C5    C     C_R   0.918503 0.118701 0.613501 -0.187084
H1    H     H_    0.940914 0.041659 0.589531 0.123508
C6    C     C_R   0.848468 0.286412 0.604744 -0.056718
C7    C     C_R   0.777444 0.304621 0.926447 -0.157181
C8    C     C_R   0.735796 0.377115 0.890682 -0.125741
C9    C     C_R   0.768323 0.359486 0.821740 -0.151640
C10   C     C_R   0.849692 0.269023 0.786948 0.082664
C11   C     C_R   0.901289 0.196712 0.824457 0.035401
C12   C     C_R   0.871827 0.245850 0.715698 0.038051
C13   C     C_R   0.935061 0.149888 0.683589 0.083296
C14   C     C_R   0.022501 0.088650 0.721709 0.081256
C15   C     C_R   0.995724 0.109593 0.791453 -0.243664
C16   C     C_R   0.838954 0.315121 0.674912 -0.242791
C17   C     C_R   0.872320 0.185702 0.573480 0.070349
C18   C     C_R   0.858936 0.214200 0.894302 -0.071819
H2    H     H_    0.813791 0.392792 0.696244 0.102546
H3    H     H_    0.742462 0.318337 0.979480 0.104436
H4    H     H_    0.722991 0.416918 0.796781 0.105161
H5    H     H_    0.671583 0.446430 0.916251 0.116661
C19   C     C_2   0.991556 0.312489 0.275971 -0.127529
C20   C     C_2   0.846732 0.314008 0.320345 -0.347661
H6    H     H_    0.727974 0.262589 0.308025 0.151678
C21   C     C_2   0.005819 0.239875 0.210259 -0.132772
C22   C     C_2   0.855653 0.187712 0.178800 -0.324162
H7    H     H_    0.146223 0.231980 0.186193 0.135342
H8    H     H_    0.712787 0.199548 0.200201 0.131026
C23   C     C_2   0.221047 0.778002 0.785784 -0.177779
C24   C     C_2   0.379176 0.825104 0.816181 -0.064106
H9    H     H_    0.083725 0.789836 0.811822 0.122222
C25   C     C_2   0.213823 0.720154 0.715327 -0.159610
C26   C     C_2   0.350738 0.656688 0.686226 -0.281919
H10   H     H_    0.090765 0.731824 0.685962 0.141294
H11   H     H_    0.463584 0.633729 0.715272 0.123018
C27   C     C_R   0.479906 0.876119 0.386596 -0.183770
C28   C     C_R   0.359021 0.713822 0.394372 -0.063891
C29   C     C_R   0.357302 0.688523 0.073885 -0.159401
C30   C     C_R   0.374816 0.614178 0.110088 -0.118648
C31   C     C_R   0.382174 0.638890 0.179860 -0.183967
C32   C     C_R   0.361968 0.738533 0.215229 0.080932
C33   C     C_R   0.372071 0.814527 0.178114 0.035710
C34   C     C_R   0.356533 0.764585 0.286579 0.032191
C35   C     C_R   0.423112 0.861070 0.318858 0.079760
C36   C     C_R   0.436960 0.937774 0.281839 0.067995
C37   C     C_R   0.405095 0.913384 0.212279 -0.216027
C38   C     C_R   0.292586 0.697857 0.327414 0.006767
C39   C     C_R   0.457702 0.801306 0.422224 -0.197059
C40   C     C_R   0.359086 0.788678 0.107064 -0.064843
H12   H     H_    0.352261 0.668205 0.019591 0.098901
H13   H     H_    0.408166 0.579492 0.205918 0.112266
H14   H     H_    0.385265 0.537106 0.083966 0.116629
H15   H     H_    0.417397 0.971521 0.184135 0.120961
O11   O     O_R   0.203230 0.917310 0.915020 -0.545844
O12   O     O_R   0.535500 0.888690 0.048040 -0.540053
O13   O     O_R   0.711080 0.082610 0.085000 -0.544870
C41   C     C_R   0.366599 0.864079 0.066108 0.689685
O14   O     O_R   0.532630 0.905370 0.913230 -0.549692
O15   O     O_R   0.708190 0.099410 0.949230 -0.538010
C42   C     C_R   0.367163 0.886050 0.885779 0.696230
O16   O     O_R   0.206120 0.900510 0.050790 -0.538264
O17   O     O_3   0.375360 0.063570 0.011990 -0.372815
V3    V     V_3+5 0.648170 0.988200 0.997780 1.406537
O18   O     O_R   0.038240 0.111390 0.951940 -0.544744
C43   C     C_R   0.870385 0.135329 0.933017 0.684588
O19   O     O_R   0.041120 0.094710 0.086750 -0.541213
C44   C     C_R   0.871685 0.117175 0.112993 0.745986
V4    V     V_3+5 0.148810 0.011930 0.002180 1.406973
O20   O     O_3   0.871750 0.936430 0.988010 -0.372725
C45   C     C_3   0.841442 0.146913 0.498862 -0.372897
C46   C     C_3   0.022705 0.099293 0.463073 -0.296668
C47   C     C_3   0.981821 0.053545 0.389657 -0.790390
H16   H     H_    0.863529 0.997959 0.385416 0.225577
H17   H     H_    0.942657 0.112357 0.362512 0.229571
H18   H     H_    0.111050 0.014173 0.366128 0.241265
H19   H     H_    0.138867 0.156190 0.466617 0.199269
H20   H     H_    0.073525 0.038832 0.486616 0.192025
H21   H     H_    0.723844 0.090470 0.492574 0.165245
H22   H     H_    0.793099 0.206482 0.473785 0.160205
C48   C     C_3   0.577683 0.820772 0.781498 -0.311906
C49   C     C_3   0.580148 0.872864 0.722489 -0.293569
C50   C     C_3   0.760992 0.848593 0.680246 -0.814349
H23   H     H_    0.888627 0.868376 0.712639 0.226022
H24   H     H_    0.763421 0.768059 0.656332 0.236624
H25   H     H_    0.764360 0.892111 0.640265 0.222580
H26   H     H_    0.455022 0.850525 0.689772 0.220232
H27   H     H_    0.575733 0.954294 0.742849 0.190971
H28   H     H_    0.692076 0.858525 0.815395 0.171829
H29   H     H_    0.633208 0.744386 0.768186 0.165413
H30   H     H_    0.512405 0.813169 0.472935 0.122078
C51   C     C_3   0.487849 0.045273 0.314748 -0.388988
C52   C     C_3   0.366929 0.123724 0.290421 -0.324013
C53   C     C_3   0.362357 0.222542 0.342429 -0.699595
H31   H     H_    0.225484 0.229296 0.371162 0.231707
H32   H     H_    0.482001 0.229013 0.378822 0.217132
H33   H     H_    0.375340 0.285876 0.316907 0.201183
H34   H     H_    0.429403 0.137230 0.242886 0.174493
H35   H     H_    0.217354 0.096512 0.279516 0.211825
H36   H     H_    0.467344 0.058819 0.369675 0.183721
H37   H     H_    0.641641 0.058662 0.304538 0.174811
H38   H     H_    0.552078 0.942737 0.412496 0.110849
C54   C     C_3   0.165274 0.009732 0.689326 -0.380905
C55   C     C_3   0.337880 0.056692 0.658323 -0.257586
C56   C     C_3   0.408130 0.990535 0.592703 -0.802201
H39   H     H_    0.436429 0.913816 0.598396 0.227848
H40   H     H_    0.298567 0.986647 0.553165 0.220201
H41   H     H_    0.542401 0.022175 0.575990 0.220269
H42   H     H_    0.301437 0.129948 0.647190 0.206105
H43   H     H_    0.457452 0.071989 0.694748 0.184407
H44   H     H_    0.219471 0.969731 0.727144 0.157315
H45   H     H_    0.092662 0.952700 0.650676 0.178175
C57   C     C_3   0.135263 0.620191 0.304035 -0.389801
C58   C     C_3   0.936735 0.659285 0.329675 -0.260080
C59   C     C_3   0.779021 0.589398 0.294978 -0.760113
H46   H     H_    0.771079 0.592661 0.241120 0.225154
H47   H     H_    0.807210 0.511757 0.298903 0.224021
H48   H     H_    0.639073 0.611463 0.318940 0.221453
H49   H     H_    0.924223 0.666094 0.384656 0.216317
H50   H     H_    0.914200 0.734281 0.318830 0.197412
H51   H     H_    0.121396 0.600054 0.249155 0.192246
H52   H     H_    0.167193 0.549854 0.320114 0.158806
H53   H     H_    0.053775 0.058804 0.819972 0.126348
H54   H     H_    0.109197 0.365278 0.288786 0.127013

loop_
_geom_bond_atom_site_label_1
_geom_bond_atom_site_label_2
_ccdc_geom_bond_type
C32   C33   A    
C57   C58   S    
C31   C32   A    
O12   V3    S    
C49   C50   S    
C28   C38   A    
C1    O6    A    
C59   H46   S    
C46   H20   S    
C26   H11   S    
C31   H13   S    
C52   H35   S    
C30   C31   A    
C13   C14   A    
C36   C51   S    
C5    C13   A    
C51   H36   S    
C19   C20   D    
C16   H2    S    
O5    C3    A    
C47   H17   S    
C52   C53   S    
V3    O20   S    
O11   C42   A    
V2    O10   S    
C50   H25   S    
C54   C55   S    
C27   H38   S    
C3    C20   S    
O12   C41   A    
O13   C44   A    
C58   H49   S    
O14   V3    S    
C56   H39   S    
O8    V2    S    
C34   C38   A    
C37   H15   S    
C50   H24   S    
C53   H31   S    
C38   C57   S    
O1    V2    S    
O7    V1    S    
C14   C54   S    
C22   H8    S    
C36   C37   A    
O1    C2    A    
C8    C9    A    
O13   V3    S    
C5    C17   A    
C53   H32   S    
C28   C39   A    
C22   C44   S    
C39   H30   S    
C52   H34   S    
C12   C16   A    
C9    H4    S    
C46   H19   S    
C25   H10   S    
C27   C35   A    
C11   C15   A    
C51   H37   S    
O17   V3    S    
O14   C42   A    
C29   H12   S    
O17   V4    S    
C21   C22   D    
O4    C2    A    
O18   C43   A    
C15   H53   S    
C12   C13   A    
C46   C47   S    
C29   C40   A    
C33   C37   A    
C56   H41   S    
O2    C1    A    
C55   H42   S    
O5    V1    S    
C20   H6    S    
O18   V4    S    
C10   C11   A    
C50   H23   S    
C5    H1    S    
O15   C43   A    
C33   C40   A    
C45   C46   S    
C24   C42   S    
C30   H14   S    
C23   H9    S    
C48   H28   S    
O3    C4    A    
C7    H3    S    
O19   V4    S    
C40   C41   S    
C57   H52   S    
O6    V2    S    
C54   H45   S    
O9    V2    S    
C23   C24   D    
C27   C39   A    
C53   H33   S    
C35   C36   A    
C58   C59   S    
C6    C16   A    
C59   H48   S    
C29   C30   A    
C47   H16   S    
C19   H54   S    
C25   C26   D    
C54   H44   S    
C49   H26   S    
C4    C6    S    
C19   C21   S    
C58   H50   S    
O19   C44   A    
C47   H18   S    
C59   H47   S    
C48   H29   S    
O8    C3    A    
O16   V4    S    
C18   C43   S    
C8    H5    S    
C21   H7    S    
C51   C52   S    
O11   V4    S    
C32   C34   A    
C55   H43   S    
C11   C18   A    
C2    C28   S    
O4    V1    S    
O3    V1    S    
V1    O10   S    
C55   C56   S    
C41   O16   A    
C34   C35   A    
C45   H22   S    
C10   C12   A    
C17   C45   S    
C48   C49   S    
C23   C25   S    
C56   H40   S    
C24   C48   S    
C7    C8    A    
C57   H51   S    
V4    O20   S    
C14   C15   A    
O15   V3    S    
C9    C10   A    
C45   H21   S    
O9    C4    A    
C6    C17   A    
C1    C26   S    
C49   H27   S    
O7    V2    S    
C7    C18   A    
O2    V1    S    
