data_mof_unit_23780.cif
_audit_creation_date              2012-12-10T17:14:42-0500
_audit_creation_method            fapswitch 2.2
_symmetry_space_group_name_H-M    P1
_symmetry_Int_Tables_number       1
_space_group_crystal_system       triclinic
_cell_length_a                    10.657783
_cell_length_b                    12.953145
_cell_length_c                    11.74176
_cell_angle_alpha                 100.650528
_cell_angle_beta                  94.509543
_cell_angle_gamma                 91.320715
_cell_volume                      1586.94591519

loop_
_atom_site_label
_atom_site_type_symbol
_atom_type_description
_atom_site_fract_x
_atom_site_fract_y
_atom_site_fract_z
_atom_type_partial_charge
C1    C     C_R   0.499911 0.299191 0.478164 0.828901
C2    C     C_R   0.500088 0.700809 0.521836 0.828904
C3    C     C_R   0.456797 0.137096 0.550143 -0.224601
C4    C     C_R   0.543201 0.862904 0.449857 -0.224602
C5    C     C_R   0.468661 0.029580 0.545646 0.059046
C6    C     C_R   0.531337 0.970420 0.454354 0.059045
C7    C     C_R   0.395324 0.391164 0.015509 -0.363049
C8    C     C_R   0.604678 0.608834 0.984491 -0.363037
C9    C     C_R   0.403436 0.401037 0.137529 0.183090
C10   C     C_R   0.596565 0.598962 0.862470 0.183092
C11   C     C_R   0.543049 0.549326 0.159477 0.038739
C12   C     C_R   0.456952 0.450673 0.840523 0.038738
C13   C     C_R   0.537395 0.539913 0.036381 0.054971
C14   C     C_R   0.462608 0.460085 0.963619 0.054971
C15   C     C_R   0.259356 0.499995 0.500030 0.788432
C16   C     C_R   0.740644 0.500005 0.499970 0.788431
C17   C     C_3   0.036155 0.402246 0.458177 -0.233526
C18   C     C_3   0.963845 0.597753 0.541822 -0.233525
C19   C     C_3   0.950400 0.468937 0.390945 0.075905
C20   C     C_3   0.049599 0.531063 0.609054 0.075901
C21   C     C_3   0.877234 0.499524 0.498765 -0.014808
C22   C     C_3   0.122765 0.500476 0.501234 -0.014810
C23   C     C_3   0.961348 0.433068 0.566745 -0.220474
C24   C     C_3   0.038652 0.566932 0.433255 -0.220472
C25   C     C_R   0.493696 0.814033 0.533733 -0.102407
C26   C     C_R   0.506302 0.185967 0.466268 -0.102407
C27   C     C_R   0.581012 0.019605 0.369252 0.407389
C28   C     C_R   0.418986 0.980395 0.630748 0.407388
C29   C     C_R   0.568688 0.128037 0.376773 -0.308028
C30   C     C_R   0.431310 0.871963 0.623227 -0.308029
Cu1   Cu    Cu3+1 0.509400 0.507730 0.615930 0.943794
Cu2   Cu    Cu3+1 0.490600 0.492270 0.384070 0.943790
H1    H     H_    0.068774 0.322027 0.428333 0.141508
H2    H     H_    0.931226 0.677973 0.571666 0.141506
H3    H     H_    0.925270 0.377426 0.618992 0.132242
H4    H     H_    0.074732 0.622576 0.381010 0.132241
H5    H     H_    0.590789 0.816352 0.380829 0.198578
H6    H     H_    0.409209 0.183648 0.619171 0.198576
H7    H     H_    0.390144 0.832430 0.685717 0.132922
H8    H     H_    0.609855 0.167570 0.314283 0.132919
H9    H     H_    0.397987 0.389178 0.785288 0.130865
H10   H     H_    0.602014 0.610821 0.214712 0.130865
H11   H     H_    0.337666 0.327937 0.961104 0.157853
H12   H     H_    0.662336 0.672062 0.038896 0.157853
N1    N     N_R   0.523540 0.519360 0.790140 -0.197197
N2    N     N_R   0.476460 0.480640 0.209860 -0.197198
O1    O     O_R   0.506670 0.354460 0.582000 -0.597804
O2    O     O_R   0.493330 0.645540 0.418000 -0.597805
O3    O     O_R   0.490800 0.341410 0.386200 -0.577543
O4    O     O_R   0.509200 0.658590 0.613800 -0.577541
O5    O     O_R   0.324790 0.506500 0.597880 -0.580500
O6    O     O_R   0.675210 0.493500 0.402120 -0.580504
O7    O     O_R   0.308910 0.493440 0.402080 -0.587033
O8    O     O_R   0.691090 0.506560 0.597920 -0.587033
C31   C     C_R   0.891721 0.431522 0.268676 0.119525
C32   C     C_R   0.816538 0.338342 0.242344 -0.130459
C33   C     C_R   0.761293 0.302860 0.129455 -0.133766
C34   C     C_R   0.779920 0.360385 0.042199 -0.092865
C35   C     C_R   0.854223 0.453317 0.067632 -0.147004
C36   C     C_R   0.910007 0.488929 0.180351 -0.174744
H13   H     H_    0.801321 0.293105 0.309260 0.107947
H14   H     H_    0.704469 0.230548 0.109506 0.109937
H15   H     H_    0.736568 0.333124 0.954968 0.128183
H16   H     H_    0.868256 0.497976 0.000008 0.132784
H17   H     H_    0.966976 0.561130 0.197985 0.120224
C37   C     C_R   0.108282 0.568481 0.731321 0.119535
C38   C     C_R   0.183450 0.661671 0.757650 -0.130471
C39   C     C_R   0.238697 0.697159 0.870539 -0.133771
C40   C     C_R   0.220091 0.639628 0.957796 -0.092856
C41   C     C_R   0.145806 0.546685 0.932365 -0.146999
C42   C     C_R   0.090017 0.511069 0.819647 -0.174741
H18   H     H_    0.198650 0.706913 0.690734 0.107941
H19   H     H_    0.295506 0.769481 0.890486 0.109932
H20   H     H_    0.263446 0.666893 0.045027 0.128179
H21   H     H_    0.131791 0.502020 0.999989 0.132779
H22   H     H_    0.033063 0.438857 0.802013 0.120222
O9    O     O_3   0.641694 0.960946 0.280755 -0.762570
H23   H     H_    0.669464 0.007551 0.228603 0.314582
O10   O     O_3   0.358303 0.039053 0.719245 -0.762569
H24   H     H_    0.330528 0.992448 0.771394 0.314580
C43   C     C_R   0.663153 0.683414 0.820473 0.171417
C44   C     C_R   0.790511 0.674708 0.799284 -0.139503
C45   C     C_R   0.860928 0.763039 0.784258 -0.168092
C46   C     C_R   0.804925 0.859950 0.789183 -0.120132
C47   C     C_R   0.679240 0.869832 0.813223 -0.135030
C48   C     C_R   0.609424 0.782513 0.831204 -0.128569
H25   H     H_    0.836185 0.600869 0.798983 0.134124
H26   H     H_    0.959640 0.757276 0.770790 0.142172
H27   H     H_    0.859766 0.927876 0.777099 0.132865
H28   H     H_    0.636690 0.945591 0.820487 0.142407
H29   H     H_    0.514079 0.792337 0.855672 0.109317
C49   C     C_R   0.336845 0.316586 0.179527 0.171416
C50   C     C_R   0.209488 0.325296 0.200716 -0.139501
C51   C     C_R   0.139069 0.236967 0.215744 -0.168091
C52   C     C_R   0.195069 0.140055 0.210819 -0.120136
C53   C     C_R   0.320752 0.130169 0.186779 -0.135030
C54   C     C_R   0.390571 0.217486 0.168796 -0.128569
H30   H     H_    0.163818 0.399135 0.201017 0.134123
H31   H     H_    0.040358 0.242734 0.229213 0.142174
H32   H     H_    0.140225 0.072130 0.222905 0.132866
H33   H     H_    0.363299 0.054409 0.179515 0.142406
H34   H     H_    0.485915 0.207660 0.144328 0.109312

loop_
_geom_bond_atom_site_label_1
_geom_bond_atom_site_label_2
_ccdc_geom_bond_type
C31   C32   A    
C16   C21   S    
C27   C29   A    
C18   C21   S    
C52   C53   A    
C4    C25   A    
C33   H14   S    
C15   C22   S    
O9    H23   S    
C35   H16   S    
C17   C23   S    
C18   C24   S    
C15   O7    A    
C20   C37   S    
C19   C21   S    
C48   H29   S    
C5    C6    A    
C44   H25   S    
C25   C30   A    
C32   C33   A    
C11   H10   S    
C38   H18   S    
C28   O10   S    
C27   O9    S    
Cu2   O6    S    
C2    O4    A    
C7    C14   A    
C45   C46   A    
C3    H6    S    
C39   C40   A    
C41   C42   A    
C7    H11   S    
C54   H34   S    
C6    C27   A    
C31   C36   A    
C45   H26   S    
C35   C36   A    
Cu1   O1    S    
C53   H33   S    
Cu2   O2    S    
C51   C52   A    
C17   H1    S    
C9    C49   S    
C49   C54   A    
C43   C44   A    
C3    C26   A    
C38   C39   A    
C8    H12   S    
C46   C47   A    
C16   O6    A    
Cu1   O5    S    
C52   H32   S    
C1    O1    A    
C2    O2    A    
C34   C35   A    
C47   C48   A    
C12   H9    S    
C5    C28   A    
C37   C42   A    
C20   C23   S    
C53   C54   A    
C10   N1    A    
C40   H20   S    
C50   C51   A    
C24   H4    S    
C18   H2    S    
C4    C6    A    
C12   C14   A    
C36   H17   S    
C15   O5    A    
C21   C23   S    
C1    C26   S    
C22   C24   S    
C46   H27   S    
Cu1   O4    S    
Cu2   O7    S    
C19   C31   S    
C34   H15   S    
C7    C9    A    
Cu2   N2    S    
Cu1   Cu2   S    
C43   C48   A    
C20   C22   S    
C12   N1    A    
C3    C5    A    
C47   H28   S    
C10   C43   S    
C23   H3    S    
C17   C22   S    
C28   C30   A    
C19   C24   S    
C39   H19   S    
C11   C13   A    
C33   C34   A    
C42   H22   S    
C51   H31   S    
C29   H8    S    
C49   C50   A    
C17   C19   S    
C30   H7    S    
C37   C38   A    
C2    C25   S    
C18   C20   S    
Cu1   O8    S    
C40   C41   A    
C16   O8    A    
Cu2   O3    S    
O10   H24   S    
C8    C13   A    
C9    N2    A    
C4    H5    S    
C26   C29   A    
C8    C10   A    
C44   C45   A    
Cu1   N1    S    
C41   H21   S    
C32   H13   S    
C11   N2    A    
C13   C14   A    
C1    O3    A    
C50   H30   S    
