data_mof_unit_42937.cif
_audit_creation_date              2012-10-26T17:10:25-0400
_audit_creation_method            fapswitch 2.2
_symmetry_space_group_name_H-M    P1
_symmetry_Int_Tables_number       1
_space_group_crystal_system       triclinic
_cell_length_a                    16.741845
_cell_length_b                    16.816026
_cell_length_c                    16.788126
_cell_angle_alpha                 68.059892
_cell_angle_beta                  68.163562
_cell_angle_gamma                 67.878047
_cell_volume                      3911.49931681

loop_
_atom_site_label
_atom_site_type_symbol
_atom_type_description
_atom_site_fract_x
_atom_site_fract_y
_atom_site_fract_z
_atom_type_partial_charge
C1    C     C_R   0.595051 0.008740 0.600751 -0.022310
C2    C     C_R   0.171750 0.435775 0.970703 0.569465
C3    C     C_3   0.422573 0.661932 0.121866 -0.130288
C4    C     C_3   0.099375 0.510621 0.250373 -0.116741
C5    C     C_3   0.175291 0.427999 0.665736 -0.127103
C6    C     C_3   0.782149 0.875484 0.779486 -0.055025
C7    C     C_3   0.286415 0.840499 0.286095 -0.087558
C8    C     C_3   0.129778 0.734961 0.735924 -0.064804
C9    C     C_3   0.820950 0.311333 0.300999 -0.091733
C10   C     C_3   0.721413 0.723009 0.147120 -0.077554
C11   C     C_3   0.235642 0.235984 0.925588 -0.041114
C12   C     C_R   0.567554 0.020335 0.829987 0.595978
C13   C     C_R   0.433112 0.977565 0.170966 0.591620
C14   C     C_R   0.431414 0.169927 0.980251 0.601371
C15   C     C_R   0.566247 0.828642 0.024276 0.563867
C16   C     C_R   0.975400 0.434044 0.171035 0.574817
C17   C     C_R   0.027725 0.565270 0.828648 0.582744
C18   C     C_R   0.171618 0.973535 0.434636 0.580760
C19   C     C_R   0.829701 0.019867 0.567435 0.576539
C20   C     C_R   0.558668 0.957454 0.567748 -0.000087
C21   C     C_R   0.416759 0.945570 0.413619 -0.024623
C22   C     C_R   0.479490 0.918360 0.472406 0.042638
C23   C     C_R   0.013230 0.551807 0.542878 0.019682
C24   C     C_R   0.988484 0.446133 0.463787 0.021716
C25   C     C_R   0.576138 0.541637 0.973027 0.017847
C26   C     C_R   0.482761 0.443979 0.955728 0.008146
C27   C     C_R   0.615753 0.914873 0.497539 0.054646
C28   C     C_R   0.446321 0.897089 0.565986 0.096582
C29   C     C_R   0.988191 0.472628 0.595891 0.091808
C30   C     C_R   0.949675 0.539729 0.440126 0.093376
C31   C     C_R   0.517891 0.586137 0.915399 0.046775
C32   C     C_R   0.047357 0.593632 0.586281 -0.017109
C33   C     C_R   0.569030 0.397995 0.972294 0.019951
C34   C     C_R   0.574185 0.902594 0.443196 0.037609
C35   C     C_R   0.474557 0.933724 0.611634 -0.022683
C36   C     C_R   0.476593 0.533251 0.901092 0.049531
C37   C     C_R   0.620291 0.450315 0.971442 0.030113
C38   C     C_R   0.001180 0.410018 0.551695 -0.016167
C39   C     C_R   0.982131 0.592666 0.463357 -0.015801
C40   C     C_R   0.553723 0.034679 0.681492 0.178206
C41   C     C_R   0.444498 0.973795 0.318949 0.166931
C42   C     C_R   0.063470 0.678376 0.547022 0.179748
C43   C     C_R   0.997603 0.394728 0.401658 -0.015272
C44   C     C_R   0.018188 0.301268 0.423752 0.180564
C45   C     C_R   0.678324 0.548909 0.053150 0.173909
C46   C     C_R   0.321182 0.446752 0.966313 0.185886
C47   C     C_R   0.322863 0.956219 0.450789 0.184715
C48   C     C_R   0.678923 0.028845 0.555478 0.193864
C49   C     C_R   0.420476 0.306546 0.013840 0.190626
C50   C     C_R   0.557385 0.678747 0.026310 0.193019
C51   C     C_R   0.990198 0.438974 0.313247 0.191821
C52   C     C_R   0.057158 0.551078 0.674708 0.190306
C53   C     C_R   0.607706 0.019141 0.736035 -0.003208
C54   C     C_R   0.603932 0.590375 0.016677 -0.020836
C55   C     C_R   0.397181 0.965555 0.268878 -0.010001
C56   C     C_R   0.045099 0.732107 0.601795 -0.012091
C57   C     C_R   0.978131 0.264142 0.391698 0.000438
C58   C     C_R   0.731066 0.600791 0.044851 -0.013673
C59   C     C_R   0.270138 0.400413 0.957089 0.004653
C60   C     C_R   0.270399 0.958554 0.399608 -0.018443
C61   C     C_R   0.735021 0.018231 0.607330 -0.015647
C62   C     C_R   0.389727 0.264930 0.976841 0.005301
C63   C     C_R   0.604019 0.731064 0.033200 -0.024365
C64   C     C_R   0.968973 0.396687 0.267622 -0.020707
C65   C     C_R   0.409251 0.399342 0.976572 -0.028344
C66   C     C_R   0.043575 0.602815 0.730553 -0.020194
C67   C     C_R   0.700613 0.999595 0.700340 0.150409
C68   C     C_R   0.313078 0.949000 0.312826 0.157792
C69   C     C_R   0.041905 0.693031 0.692419 0.146388
C70   C     C_R   0.949339 0.314229 0.314170 0.160647
C71   C     C_R   0.690908 0.690371 0.043728 0.152714
C72   C     C_R   0.313488 0.314308 0.944696 0.170782
C73   C     C_3   0.414378 0.951627 0.701138 -0.248956
C74   C     C_3   0.335284 0.911623 0.754140 -0.470864
C75   C     C_3   0.630472 0.856854 0.368516 -0.247990
C76   C     C_R   0.028704 0.829122 0.564895 0.571385
C77   C     C_3   0.654723 0.755142 0.402578 -0.488781
C78   C     C_3   0.984961 0.686494 0.403704 -0.250392
C79   C     C_3   0.940889 0.726997 0.326739 -0.472651
C80   C     C_3   0.025046 0.310428 0.598871 -0.254717
C81   C     C_3   0.019990 0.282087 0.698231 -0.472112
C82   C     C_3   0.722806 0.416367 0.950157 -0.220156
C83   C     C_3   0.769634 0.388857 0.863593 -0.479731
C84   C     C_3   0.447639 0.560342 0.816071 -0.234623
C85   C     C_3   0.528077 0.558417 0.733526 -0.468153
C86   C     C_3   0.412903 0.813349 0.615353 -0.232844
C87   C     C_R   0.979769 0.169780 0.432013 0.595923
C88   C     C_3   0.443951 0.744375 0.563483 -0.455152
C89   C     C_3   0.714805 0.865579 0.494413 -0.248820
C90   C     C_3   0.726530 0.800391 0.584037 -0.463881
C91   C     C_3   0.613186 0.299534 0.974306 -0.243601
C92   C     C_3   0.625177 0.281719 0.886616 -0.406000
C93   C     C_3   0.512239 0.682616 0.858212 -0.241373
C94   C     C_3   0.603743 0.698345 0.803918 -0.450887
C95   C     C_3   0.854982 0.575654 0.428441 -0.253601
C96   C     C_3   0.795917 0.512117 0.483449 -0.462334
C97   C     C_3   0.909690 0.477618 0.679028 -0.250551
C98   C     C_R   0.828725 0.564185 0.029997 0.574024
C99   C     C_3   0.842909 0.570153 0.677037 -0.461792
C100  C     C_3   0.453886 0.165496 0.629055 -0.138600
C101  C     C_3   0.489012 0.094744 0.298472 -0.095989
C102  C     C_3   0.195338 0.640985 0.442474 -0.161519
C103  C     C_3   0.170756 0.274622 0.384214 -0.157831
C104  C     C_3   0.629741 0.442474 0.175783 -0.143803
C105  C     C_3   0.275581 0.551871 0.041739 -0.101904
C106  C     C_3   0.265338 0.054911 0.534006 -0.112286
C107  C     C_3   0.644170 0.135488 0.430656 -0.123309
C108  C     C_3   0.392043 0.315060 0.156945 -0.143554
Cu1   Cu    Cu3+1 0.995180 0.995180 0.424630 1.026184
Cu2   Cu    Cu3+1 0.004820 0.004820 0.575370 0.994535
Cu3   Cu    Cu3+1 0.995180 0.424630 0.995180 0.957224
Cu4   Cu    Cu3+1 0.004820 0.575370 0.004820 0.999163
Cu5   Cu    Cu3+1 0.424630 0.995180 0.995180 0.974708
Cu6   Cu    Cu3+1 0.575370 0.004820 0.004820 1.007899
H1    H     H_    0.287971 0.930441 0.714235 0.171245
H2    H     H_    0.691596 0.880153 0.331688 0.143168
H3    H     H_    0.249886 0.827303 0.251261 0.144422
H4    H     H_    0.262446 0.809347 0.358744 0.117911
H5    H     H_    0.359075 0.808819 0.260859 0.087984
H6    H     H_    0.128814 0.774558 0.776499 0.138593
H7    H     H_    0.166409 0.761960 0.665876 0.111299
H8    H     H_    0.166821 0.664601 0.762113 0.114192
H9    H     H_    0.792252 0.294570 0.374718 0.088004
H10   H     H_    0.792728 0.279974 0.274079 0.147793
H11   H     H_    0.800066 0.384743 0.271216 0.111350
H12   H     H_    0.756298 0.762227 0.156194 0.139135
H13   H     H_    0.963533 0.680915 0.284868 0.199602
H14   H     H_    0.749249 0.651544 0.179913 0.102489
H15   H     H_    0.648920 0.745910 0.180683 0.094969
H16   H     H_    0.174736 0.270502 0.901234 0.141864
H17   H     H_    0.215932 0.217734 0.999960 0.133477
H18   H     H_    0.266402 0.173893 0.903729 0.144958
H19   H     H_    0.867061 0.747588 0.350699 0.130977
H20   H     H_    0.961089 0.788562 0.283279 0.140059
H21   H     H_    0.955463 0.734183 0.445061 0.185900
H22   H     H_    0.056151 0.682251 0.368480 0.206051
H23   H     H_    0.057251 0.315602 0.711758 0.198155
H24   H     H_    0.949685 0.294345 0.739624 0.138781
H25   H     H_    0.051382 0.209115 0.718888 0.132220
H26   H     H_    0.980996 0.278925 0.592546 0.188202
H27   H     H_    0.357407 0.838605 0.782359 0.132604
H28   H     H_    0.096307 0.282316 0.566947 0.198108
H29   H     H_    0.775058 0.319300 0.870659 0.146367
H30   H     H_    0.737148 0.435331 0.810106 0.152425
H31   H     H_    0.840051 0.388860 0.845111 0.128220
H32   H     H_    0.751384 0.470448 0.938552 0.189315
H33   H     H_    0.744114 0.360003 0.005927 0.187954
H34   H     H_    0.550594 0.619267 0.709671 0.147850
H35   H     H_    0.584661 0.498818 0.747960 0.153174
H36   H     H_    0.509175 0.554893 0.678422 0.126330
H37   H     H_    0.416146 0.512480 0.817472 0.167959
H38   H     H_    0.297269 0.939772 0.812166 0.141822
H39   H     H_    0.396477 0.625901 0.807912 0.151782
H40   H     H_    0.426408 0.773401 0.499097 0.151296
H41   H     H_    0.517001 0.713790 0.552774 0.145061
H42   H     H_    0.410421 0.690583 0.603557 0.121253
H43   H     H_    0.439708 0.777236 0.674225 0.125709
H44   H     H_    0.339031 0.830273 0.638689 0.189944
H45   H     H_    0.704376 0.835881 0.635762 0.139686
H46   H     H_    0.687853 0.751457 0.605497 0.146453
H47   H     H_    0.798438 0.763870 0.577147 0.129752
H48   H     H_    0.746847 0.825379 0.446364 0.128138
H49   H     H_    0.456044 0.929910 0.747629 0.186538
H50   H     H_    0.758001 0.909691 0.470915 0.212917
H51   H     H_    0.560407 0.289570 0.877303 0.156084
H52   H     H_    0.657286 0.328790 0.828098 0.135077
H53   H     H_    0.667394 0.212552 0.886695 0.154405
H54   H     H_    0.678516 0.274369 0.989199 0.117562
H55   H     H_    0.579415 0.254415 0.031065 0.215242
H56   H     H_    0.644765 0.688956 0.847122 0.143844
H57   H     H_    0.593982 0.768009 0.760918 0.131520
H58   H     H_    0.640627 0.652291 0.761066 0.141953
H59   H     H_    0.473165 0.702960 0.810421 0.114537
H60   H     H_    0.381024 0.023884 0.685759 0.205345
H61   H     H_    0.474382 0.731794 0.896554 0.212553
H62   H     H_    0.817955 0.454021 0.456510 0.141207
H63   H     H_    0.797218 0.488455 0.554306 0.151681
H64   H     H_    0.725711 0.547761 0.480542 0.125998
H65   H     H_    0.819962 0.636114 0.452809 0.133940
H66   H     H_    0.856508 0.594096 0.357340 0.181411
H67   H     H_    0.874095 0.618910 0.674519 0.145246
H68   H     H_    0.814696 0.594816 0.619194 0.149711
H69   H     H_    0.787510 0.565623 0.739021 0.131604
H70   H     H_    0.870170 0.433674 0.686931 0.129447
H71   H     H_    0.715172 0.726257 0.354276 0.122834
H72   H     H_    0.934698 0.454145 0.738399 0.202157
H73   H     H_    0.450981 0.148057 0.572705 0.093848
H74   H     H_    0.506428 0.200443 0.606841 0.111597
H75   H     H_    0.388472 0.212700 0.651205 0.136197
H76   H     H_    0.505433 0.080814 0.361395 0.098913
H77   H     H_    0.416783 0.131180 0.305551 0.101230
H78   H     H_    0.528906 0.139070 0.245510 0.156365
H79   H     H_    0.187682 0.577655 0.443667 0.108185
H80   H     H_    0.232969 0.628243 0.490521 0.104227
H81   H     H_    0.235794 0.667314 0.374575 0.106753
H82   H     H_    0.667575 0.730638 0.469043 0.156442
H83   H     H_    0.233337 0.223657 0.396143 0.100252
H84   H     H_    0.172926 0.337364 0.390151 0.104924
H85   H     H_    0.171212 0.282670 0.315092 0.121912
H86   H     H_    0.569055 0.449151 0.158614 0.111331
H87   H     H_    0.613395 0.486855 0.218323 0.093803
H88   H     H_    0.651404 0.372681 0.215634 0.115662
H89   H     H_    0.339060 0.555033 0.045279 0.112463
H90   H     H_    0.250503 0.500292 0.100551 0.079241
H91   H     H_    0.225806 0.617229 0.045599 0.133172
H92   H     H_    0.241580 0.060385 0.603282 0.122827
H93   H     H_    0.599663 0.730896 0.406981 0.134189
H94   H     H_    0.211012 0.098191 0.501801 0.189133
H95   H     H_    0.326471 0.078949 0.500337 0.083811
H96   H     H_    0.629190 0.187992 0.463461 0.090688
H97   H     H_    0.581761 0.121098 0.438396 0.102165
H98   H     H_    0.673016 0.162351 0.358310 0.130108
H99   H     H_    0.398933 0.274729 0.224329 0.101089
H100  H     H_    0.319114 0.341515 0.161926 0.100461
H101  H     H_    0.422683 0.370008 0.137979 0.109437
H102  H     H_    0.444938 0.660603 0.177228 0.090849
H103  H     H_    0.433085 0.592944 0.120854 0.097336
H104  H     H_    0.597274 0.872218 0.317184 0.201179
H105  H     H_    0.349526 0.694759 0.135497 0.125182
H106  H     H_    0.114532 0.572850 0.202181 0.122132
H107  H     H_    0.140687 0.454562 0.219628 0.095838
H108  H     H_    0.118391 0.500293 0.310944 0.100289
H109  H     H_    0.215899 0.460299 0.676909 0.118747
H110  H     H_    0.187940 0.438111 0.593192 0.098504
H111  H     H_    0.197912 0.355277 0.696531 0.137751
H112  H     H_    0.826860 0.850722 0.823641 0.190292
H113  H     H_    0.820244 0.849249 0.720046 0.101763
H114  H     H_    0.723067 0.848618 0.817414 0.093660
O1    O     O_R   0.124540 0.978640 0.385460 -0.461220
O2    O     O_R   0.124540 0.385460 0.978640 -0.526332
O3    O     O_R   0.021360 0.875460 0.614540 -0.476432
O4    O     O_R   0.978640 0.124540 0.385460 -0.460025
O5    O     O_R   0.013780 0.867370 0.487190 -0.495422
O6    O     O_R   0.986220 0.132630 0.512810 -0.507117
O7    O     O_R   0.867370 0.487190 0.013780 -0.494290
O8    O     O_R   0.132630 0.512810 0.986220 -0.477716
O9    O     O_R   0.487190 0.013780 0.867370 -0.486582
O10   O     O_R   0.512810 0.986220 0.132630 -0.470105
O11   O     O_R   0.512810 0.132630 0.986220 -0.502703
O12   O     O_R   0.875460 0.021360 0.614540 -0.468287
O13   O     O_R   0.487190 0.867370 0.013780 -0.482289
O14   O     O_R   0.986220 0.512810 0.132630 -0.477878
O15   O     O_R   0.013780 0.487190 0.867370 -0.484156
O16   O     O_R   0.132630 0.986220 0.512810 -0.483848
O17   O     O_R   0.867370 0.013780 0.487190 -0.483983
O18   O     O_3   0.467082 0.089196 0.701424 -0.568156
O19   O     O_3   0.512753 0.015257 0.274373 -0.552285
O20   O     O_3   0.111490 0.704750 0.459157 -0.576264
O21   O     O_3   0.095945 0.246757 0.448407 -0.590786
O22   O     O_3   0.700186 0.459356 0.098610 -0.569547
O23   O     O_R   0.978640 0.385460 0.124540 -0.465450
O24   O     O_3   0.286170 0.537133 0.960481 -0.559342
O25   O     O_3   0.281901 0.965524 0.536311 -0.569824
O26   O     O_3   0.707305 0.057355 0.463115 -0.556753
O27   O     O_3   0.436399 0.260842 0.097331 -0.570637
O28   O     O_3   0.465656 0.711213 0.038798 -0.560377
O29   O     O_3   0.006973 0.521360 0.269943 -0.562144
O30   O     O_3   0.083266 0.459156 0.706207 -0.572796
O31   O     O_3   0.756521 0.969609 0.755138 -0.522925
O32   O     O_3   0.268520 0.933545 0.267674 -0.513190
O33   O     O_3   0.040380 0.742641 0.743136 -0.522312
O34   O     O_R   0.021360 0.614540 0.875460 -0.469708
O35   O     O_3   0.914893 0.277210 0.277725 -0.514654
O36   O     O_3   0.736296 0.737797 0.054806 -0.516476
O37   O     O_3   0.295563 0.289809 0.883817 -0.567538
O38   O     O_R   0.385460 0.124540 0.978640 -0.513886
O39   O     O_R   0.614540 0.875460 0.021360 -0.470946
O40   O     O_R   0.614540 0.021360 0.875460 -0.472652
O41   O     O_R   0.385460 0.978640 0.124540 -0.471333
O42   O     O_R   0.875460 0.614540 0.021360 -0.467502

loop_
_geom_bond_atom_site_label_1
_geom_bond_atom_site_label_2
_ccdc_geom_bond_type
C25   C31   A    
C15   O13   A    
C4    O29   S    
C56   C76   S    
C46   C59   A    
C77   H71   S    
C73   C74   S    
C7    H3    S    
C36   C84   S    
C95   C96   S    
C58   C98   S    
C85   H34   S    
C101  H78   S    
C8    H8    S    
C11   H18   S    
C12   O40   A    
C82   H33   S    
C107  H96   S    
C26   C36   A    
C98   O42   A    
C81   H23   S    
C56   C69   A    
C42   O20   S    
C17   C66   S    
C50   C54   A    
C87   O6    A    
C49   C65   A    
C52   O30   S    
C88   H42   S    
C100  H74   S    
C77   H82   S    
Cu5   O41   S    
C47   O25   S    
C67   O31   S    
C15   O39   A    
C77   H93   S    
C106  H94   S    
C14   O11   A    
C49   O27   S    
Cu1   O4    S    
Cu2   O12   S    
C58   C71   A    
C105  H89   S    
C66   C69   A    
C107  H97   S    
Cu3   O23   S    
C87   O4    A    
C14   C62   S    
C9    O35   S    
C73   H60   S    
C9    H10   S    
Cu1   O5    S    
C103  H83   S    
C93   H59   S    
C17   O34   A    
C53   C67   A    
C85   H36   S    
C32   C52   A    
C99   H68   S    
C1    C40   A    
C94   H58   S    
C47   C60   A    
C83   H31   S    
C20   C35   A    
Cu1   O1    S    
C92   H51   S    
C41   C55   A    
C98   O7    A    
Cu3   Cu4   S    
C28   C35   A    
C10   O36   S    
C4    H106  S    
C6    H114  S    
C29   C38   A    
C24   C38   A    
C76   O5    A    
C64   C70   A    
C96   H63   S    
C15   C63   S    
C78   H21   S    
C89   H50   S    
C99   H69   S    
C12   C53   S    
C3    H105  S    
C59   C72   A    
Cu6   O10   S    
C42   C56   A    
Cu4   O14   S    
C51   O29   S    
Cu1   O17   S    
C22   C28   A    
C21   C22   S    
C102  H81   S    
C50   C63   A    
C104  H86   S    
C7    H4    S    
C74   H38   S    
C7    O32   S    
C97   H72   S    
C14   O38   A    
C10   H14   S    
C102  H80   S    
C82   H32   S    
C16   O23   A    
C55   C68   A    
C85   H35   S    
C27   C34   A    
C3    O28   S    
C70   O35   S    
C22   C34   A    
C45   C58   A    
C104  O22   S    
C91   H55   S    
C90   H47   S    
C103  O21   S    
C88   H41   S    
C7    H5    S    
C91   H54   S    
C100  H73   S    
C102  O20   S    
C84   C85   S    
C46   C65   A    
C101  H76   S    
C97   C99   S    
Cu4   O42   S    
C91   C92   S    
C68   O32   S    
C21   C47   A    
C2    C59   S    
C80   C81   S    
C105  H90   S    
C69   O33   S    
C107  H98   S    
C75   H104  S    
Cu2   O6    S    
C3    H102  S    
C31   C93   S    
C106  H95   S    
C93   H61   S    
C9    H11   S    
C57   C87   S    
C107  O26   S    
C6    O31   S    
C103  H84   S    
C88   H40   S    
C43   C44   A    
C39   C78   S    
C30   C95   S    
C25   C37   A    
Cu2   O16   S    
C45   O22   S    
C75   C77   S    
C84   H39   S    
C61   C67   A    
C26   C33   A    
Cu3   O7    S    
C94   H57   S    
C108  H100  S    
C44   C57   A    
C3    H103  S    
C46   O24   S    
C6    H113  S    
C76   O3    A    
C11   O37   S    
C62   C72   A    
C93   C94   S    
C103  H85   S    
C25   C54   S    
C86   H44   S    
C106  O25   S    
C21   C41   A    
C10   H12   S    
C95   H65   S    
C12   O9    A    
C5    H109  S    
C74   H27   S    
C63   C71   A    
C45   C54   A    
C82   C83   S    
C80   H28   S    
C102  H79   S    
C13   O41   A    
C100  H75   S    
C28   C86   S    
C57   C70   A    
C5    O30   S    
C37   C82   S    
C90   H45   S    
C48   O26   S    
C101  O19   S    
C11   H16   S    
C23   C29   A    
C89   H48   S    
C52   C66   A    
C8    H6    S    
C97   H70   S    
C33   C37   A    
Cu5   Cu6   S    
C2    O8    A    
C71   O36   S    
C81   H25   S    
C79   H20   S    
C79   H13   S    
C35   C73   S    
C1    C20   S    
Cu3   O15   S    
C49   C62   A    
C96   H62   S    
C78   C79   S    
C26   C65   S    
C51   C64   A    
C108  H99   S    
C105  O24   S    
C81   H24   S    
C101  H77   S    
C18   O1    A    
C11   H17   S    
C106  H92   S    
C40   O18   S    
C1    C48   A    
C105  H91   S    
C13   O10   A    
C20   C27   A    
C34   C75   S    
Cu5   O13   S    
C29   C97   S    
Cu6   O40   S    
Cu5   O38   S    
C86   H43   S    
C104  H87   S    
C104  H88   S    
C94   H56   S    
C10   H15   S    
C19   O17   A    
C108  O27   S    
C80   H26   S    
Cu6   O39   S    
C23   C32   S    
C8    O33   S    
C83   H29   S    
C92   H53   S    
C43   C51   A    
C48   C61   A    
C83   H30   S    
C38   C80   S    
C24   C43   S    
C19   C61   S    
C4    H108  S    
C74   H1    S    
C6    H112  S    
C17   O15   A    
C18   O16   A    
C72   O37   S    
C9    H9    S    
C5    H111  S    
C30   C39   A    
C27   C89   S    
C86   C88   S    
C90   H46   S    
C8    H7    S    
C79   H19   S    
C24   C30   A    
C50   O28   S    
C99   H67   S    
C108  H101  S    
C100  O18   S    
Cu2   O3    S    
C2    O2    A    
C84   H37   S    
C92   H52   S    
C95   H66   S    
Cu4   O8    S    
C5    H110  S    
Cu5   O9    S    
C60   C68   A    
C18   C60   S    
C73   H49   S    
C40   C53   A    
Cu1   Cu2   S    
C44   O21   S    
Cu3   O2    S    
C32   C42   A    
C31   C36   A    
C75   H2    S    
C16   C64   S    
C96   H64   S    
C89   C90   S    
C19   O12   A    
C78   H22   S    
C23   C39   A    
C41   O19   S    
C4    H107  S    
Cu4   O34   S    
Cu6   O11   S    
C13   C55   S    
C33   C91   S    
C16   O14   A    
