data_mof_unit_63519.cif
_audit_creation_date              2013-03-05T16:32:17-0500
_audit_creation_method            fapswitch 2.2
_symmetry_space_group_name_H-M    P1
_symmetry_Int_Tables_number       1
_space_group_crystal_system       triclinic
_cell_length_a                    32.079693
_cell_length_b                    32.079999
_cell_length_c                    47.065098
_cell_angle_alpha                 89.999545
_cell_angle_beta                  89.999936
_cell_angle_gamma                 89.999944
_cell_volume                      48435.4698355

loop_
_atom_site_label
_atom_site_type_symbol
_atom_site_description
_atom_site_fract_x
_atom_site_fract_y
_atom_site_fract_z
_atom_type_partial_charge
O1    O     O_R   0.060960 0.534400 0.000040 -0.609771
O2    O     O_R   0.465600 0.060960 0.000040 -0.609896
O3    O     O_R   0.939040 0.465600 0.000040 -0.609888
O4    O     O_R   0.534400 0.939040 0.000040 -0.609693
O5    O     O_R   0.060960 0.465600 0.999960 -0.609772
O6    O     O_R   0.465600 0.939040 0.999960 -0.609684
O7    O     O_R   0.939040 0.534400 0.999960 -0.609793
O8    O     O_R   0.534400 0.060960 0.999960 -0.609910
O9    O     O_R   0.560960 0.034400 0.500040 -0.609800
O10   O     O_R   0.965600 0.560960 0.500040 -0.609707
O11   O     O_R   0.439040 0.965600 0.500040 -0.609684
O12   O     O_R   0.034400 0.439040 0.500040 -0.609644
O13   O     O_R   0.560960 0.965600 0.499960 -0.609810
O14   O     O_R   0.965600 0.439040 0.499960 -0.609623
O15   O     O_R   0.439040 0.034400 0.499960 -0.609667
O16   O     O_R   0.034400 0.560960 0.499960 -0.609644
C1    C     C_R   0.080696 0.500000 0.000000 0.904585
C2    C     C_R   0.500000 0.080696 0.000000 0.905033
C3    C     C_R   0.919304 0.500000 0.000000 0.904691
C4    C     C_R   0.500000 0.919303 0.000000 0.904705
C5    C     C_R   0.580696 1.000000 0.500000 0.904514
C6    C     C_R   1.000000 0.580696 0.500000 0.904532
C7    C     C_R   0.419304 0.000000 0.500000 0.904312
C8    C     C_R   1.000000 0.419304 0.500000 0.904474
O17   O     O_R   0.999950 0.534400 0.041950 -0.611904
O18   O     O_R   0.465600 0.999950 0.041950 -0.612391
O19   O     O_R   0.000050 0.465600 0.041950 -0.611996
O20   O     O_R   0.534400 0.000050 0.041950 -0.612220
O21   O     O_R   0.999950 0.465600 0.958050 -0.612231
O22   O     O_R   0.465600 0.000050 0.958050 -0.612213
O23   O     O_R   0.000050 0.534400 0.958050 -0.612261
O24   O     O_R   0.534400 0.999950 0.958050 -0.612394
O25   O     O_R   0.499950 0.034400 0.541950 -0.612033
O26   O     O_R   0.965600 0.499950 0.541950 -0.612047
O27   O     O_R   0.500050 0.965600 0.541950 -0.611901
O28   O     O_R   0.034400 0.500050 0.541950 -0.611992
O29   O     O_R   0.499950 0.965600 0.458050 -0.612052
O30   O     O_R   0.965600 0.500050 0.458050 -0.612284
O31   O     O_R   0.500050 0.034400 0.458050 -0.611899
O32   O     O_R   0.034400 0.499950 0.458050 -0.612326
C9    C     C_R   0.000000 0.500000 0.055498 0.917377
C10   C     C_R   0.500000 1.000000 0.055505 0.917789
C11   C     C_R   0.000000 0.500000 0.944497 0.917697
C12   C     C_R   0.500000 1.000000 0.944495 0.917793
C13   C     C_R   0.500000 1.000000 0.555499 0.917307
C14   C     C_R   1.000000 0.500000 0.555500 0.917282
C15   C     C_R   0.500000 0.000000 0.444501 0.917311
C16   C     C_R   1.000000 0.500000 0.444495 0.917601
Zn1   Zn    Zn3+2 0.000000 0.545950 0.000000 1.026463
Zn2   Zn    Zn3+2 0.454050 0.000000 0.000000 1.026326
Zn3   Zn    Zn3+2 0.000000 0.454050 0.000000 1.026322
Zn4   Zn    Zn3+2 0.545950 0.000000 0.000000 1.026298
Zn5   Zn    Zn3+2 0.500000 0.045950 0.500000 1.026687
Zn6   Zn    Zn3+2 0.954050 0.500000 0.500000 1.026688
Zn7   Zn    Zn3+2 0.500000 0.954050 0.500000 1.026645
Zn8   Zn    Zn3+2 0.045950 0.500000 0.500000 1.026737
C17   C     C_R   0.024992 0.472315 0.309611 0.638288
C18   C     C_R   0.527012 0.025716 0.309636 0.638331
C19   C     C_R   0.975011 0.527681 0.309610 0.638307
C20   C     C_R   0.472990 0.974286 0.309638 0.638182
C21   C     C_R   0.025618 0.527171 0.690370 0.638551
C22   C     C_R   0.527006 0.974279 0.690363 0.638237
C23   C     C_R   0.974429 0.472921 0.690364 0.637857
C24   C     C_R   0.472987 0.025713 0.690362 0.638133
C25   C     C_R   0.525055 0.972379 0.809614 0.638248
C26   C     C_R   0.027527 0.525199 0.809621 0.638300
C27   C     C_R   0.474934 0.027617 0.809612 0.638441
C28   C     C_R   0.972513 0.474831 0.809615 0.638323
C29   C     C_R   0.525066 0.027612 0.190386 0.638444
C30   C     C_R   0.026948 0.474214 0.190360 0.638113
C31   C     C_R   0.474934 0.972383 0.190387 0.638331
C32   C     C_R   0.973059 0.525782 0.190359 0.638150
N1    N     N_R   0.000001 0.499998 0.323731 -0.322417
N2    N     N_R   0.500001 0.000001 0.323757 -0.322495
N3    N     N_R   0.000024 0.500050 0.676247 -0.322505
N4    N     N_R   0.499997 0.999996 0.676242 -0.322543
N5    N     N_R   0.499995 0.999999 0.823733 -0.322430
N6    N     N_R   0.000019 0.500012 0.823738 -0.322447
N7    N     N_R   0.500000 0.999997 0.176266 -0.322401
N8    N     N_R   0.000003 0.499998 0.176239 -0.322588
O33   O     O_R   0.499970 0.439020 0.023730 -0.610461
O34   O     O_R   0.560980 0.499970 0.023730 -0.610452
O35   O     O_R   0.500030 0.560980 0.023730 -0.610630
O36   O     O_R   0.439020 0.500030 0.023730 -0.610677
O37   O     O_R   0.499970 0.560980 0.976270 -0.610708
O38   O     O_R   0.560980 0.500030 0.976270 -0.610640
O39   O     O_R   0.500030 0.439020 0.976270 -0.610433
O40   O     O_R   0.439020 0.499970 0.976270 -0.610557
O41   O     O_R   0.999970 0.939020 0.523730 -0.610609
O42   O     O_R   0.060980 0.999970 0.523730 -0.610681
O43   O     O_R   0.000030 0.060980 0.523730 -0.610786
O44   O     O_R   0.939020 0.000030 0.523730 -0.610601
O45   O     O_R   0.999970 0.060980 0.476270 -0.610685
O46   O     O_R   0.060980 0.000030 0.476270 -0.610764
O47   O     O_R   0.000030 0.939020 0.476270 -0.610774
O48   O     O_R   0.939020 0.999970 0.476270 -0.610568
C33   C     C_R   0.973963 0.527783 0.279873 -0.023352
C34   C     C_R   0.472915 0.973234 0.279901 -0.023332
C35   C     C_R   0.026041 0.472213 0.279874 -0.023323
C36   C     C_R   0.527086 0.026766 0.279899 -0.023434
C37   C     C_R   0.973378 0.472834 0.720101 -0.023325
C38   C     C_R   0.472913 0.026764 0.720099 -0.023386
C39   C     C_R   0.026670 0.527241 0.720107 -0.023425
C40   C     C_R   0.527079 0.973228 0.720100 -0.023426
C41   C     C_R   0.473885 0.027716 0.779875 -0.023405
C42   C     C_R   0.972421 0.473788 0.779877 -0.023360
C43   C     C_R   0.526104 0.972278 0.779876 -0.023312
C44   C     C_R   0.027624 0.526256 0.779884 -0.023357
C45   C     C_R   0.473886 0.972283 0.220124 -0.023287
C46   C     C_R   0.972988 0.526835 0.220096 -0.023451
C47   C     C_R   0.526114 0.027713 0.220123 -0.023399
C48   C     C_R   0.027018 0.473161 0.220097 -0.023405
C49   C     C_R   0.000002 0.499998 0.264949 -0.003994
C50   C     C_R   0.500000 0.999999 0.264975 -0.004029
C51   C     C_R   0.000024 0.500033 0.735029 -0.004040
C52   C     C_R   0.499995 0.999996 0.735024 -0.004044
C53   C     C_R   0.499995 0.999997 0.764951 -0.003994
C54   C     C_R   0.000023 0.500025 0.764956 -0.004010
C55   C     C_R   0.500000 0.999998 0.235048 -0.003988
C56   C     C_R   0.000003 0.499998 0.235022 -0.004062
C57   C     C_R   0.947525 0.554754 0.264790 -0.120470
C58   C     C_R   0.446653 0.946091 0.264818 -0.120468
C59   C     C_R   0.052479 0.445242 0.264791 -0.120503
C60   C     C_R   0.553348 0.053908 0.264816 -0.120337
C61   C     C_R   0.946350 0.446449 0.735180 -0.120458
C62   C     C_R   0.446654 0.053910 0.735181 -0.120398
C63   C     C_R   0.053697 0.553618 0.735194 -0.120403
C64   C     C_R   0.553337 0.946082 0.735183 -0.120376
C65   C     C_R   0.447379 0.054619 0.764792 -0.120385
C66   C     C_R   0.945638 0.447164 0.764791 -0.120454
C67   C     C_R   0.552611 0.945374 0.764794 -0.120478
C68   C     C_R   0.054408 0.552887 0.764804 -0.120418
C69   C     C_R   0.447377 0.945383 0.235208 -0.120511
C70   C     C_R   0.946798 0.554047 0.235179 -0.120338
C71   C     C_R   0.552624 0.054614 0.235205 -0.120371
C72   C     C_R   0.053207 0.445949 0.235180 -0.120402
Zn9   Zn    Zn3+2 0.500000 0.500000 0.031630 1.009766
Zn10  Zn    Zn3+2 0.500000 0.500000 0.968370 1.009654
Zn11  Zn    Zn3+2 1.000000 0.000000 0.531630 1.009371
Zn12  Zn    Zn3+2 1.000000 0.000000 0.468370 1.009260
O49   O     O_2   0.048980 0.445391 0.324377 -0.526537
O50   O     O_2   0.553290 0.050410 0.324401 -0.526144
O51   O     O_2   0.951022 0.554605 0.324375 -0.526475
O52   O     O_2   0.446711 0.949592 0.324404 -0.526408
O53   O     O_2   0.050194 0.553565 0.675608 -0.526249
O54   O     O_2   0.553284 0.949584 0.675598 -0.526140
O55   O     O_2   0.949851 0.446537 0.675595 -0.526458
O56   O     O_2   0.446711 0.050408 0.675596 -0.526327
O57   O     O_2   0.549113 0.945516 0.824379 -0.526511
O58   O     O_2   0.054281 0.549373 0.824390 -0.526367
O59   O     O_2   0.450878 0.054481 0.824377 -0.526191
O60   O     O_2   0.945757 0.450650 0.824377 -0.526325
O61   O     O_2   0.549129 0.054469 0.175620 -0.526223
O62   O     O_2   0.053163 0.449452 0.175595 -0.526221
O63   O     O_2   0.450871 0.945524 0.175622 -0.526533
O64   O     O_2   0.946844 0.550544 0.175594 -0.526075
H1    H     H_    0.927134 0.576274 0.275802 0.199303
H2    H     H_    0.425681 0.925137 0.275831 0.199301
H3    H     H_    0.072870 0.423722 0.275803 0.199284
H4    H     H_    0.574320 0.074862 0.275828 0.199369
H5    H     H_    0.925489 0.425387 0.724165 0.199301
H6    H     H_    0.425683 0.074866 0.724168 0.199331
H7    H     H_    0.074559 0.574686 0.724184 0.199320
H8    H     H_    0.574307 0.925126 0.724171 0.199344
H9    H     H_    0.426933 0.076088 0.775804 0.199349
H10   H     H_    0.924261 0.426619 0.775800 0.199312
H11   H     H_    0.573056 0.923906 0.775806 0.199299
H12   H     H_    0.075784 0.573426 0.775819 0.199317
H13   H     H_    0.426928 0.923917 0.224196 0.199285
H14   H     H_    0.925881 0.575056 0.224167 0.199354
H15   H     H_    0.573072 0.076079 0.224193 0.199360
H16   H     H_    0.074125 0.424940 0.224168 0.199319
C73   C     C_R   0.027263 0.527077 0.130874 0.325400
C74   C     C_R   0.472155 0.026482 0.130901 0.324833
C75   C     C_R   0.972743 0.472919 0.130875 0.325410
C76   C     C_R   0.527843 0.973512 0.130901 0.324788
C77   C     C_R   0.026628 0.472289 0.869104 0.324924
C78   C     C_R   0.472157 0.973513 0.869100 0.324833
C79   C     C_R   0.973393 0.527724 0.869103 0.324928
C80   C     C_R   0.527839 0.026487 0.869098 0.324859
C81   C     C_R   0.527177 0.027160 0.630878 0.325303
C82   C     C_R   0.972717 0.527092 0.630878 0.325103
C83   C     C_R   0.472820 0.972836 0.630877 0.325265
C84   C     C_R   0.027307 0.472998 0.630885 0.325201
C85   C     C_R   0.527158 0.972813 0.369123 0.325228
C86   C     C_R   0.972101 0.473575 0.369097 0.324746
C87   C     C_R   0.472844 0.027187 0.369122 0.325197
C88   C     C_R   0.027901 0.526423 0.369096 0.324774
C89   C     C_R   0.026342 0.526984 0.101160 -0.258160
C90   C     C_R   0.472281 0.025564 0.101186 -0.257747
C91   C     C_R   0.973662 0.473013 0.101161 -0.258071
C92   C     C_R   0.527718 0.974432 0.101186 -0.258026
C93   C     C_R   0.025705 0.472407 0.898819 -0.258012
C94   C     C_R   0.472285 0.974429 0.898814 -0.258021
C95   C     C_R   0.974306 0.527599 0.898818 -0.257906
C96   C     C_R   0.527714 0.025569 0.898813 -0.257756
C97   C     C_R   0.526256 0.027065 0.601163 -0.258058
C98   C     C_R   0.972811 0.526147 0.601163 -0.258223
C99   C     C_R   0.473741 0.972934 0.601163 -0.258224
C100  C     C_R   0.027196 0.473896 0.601171 -0.258165
C101  C     C_R   0.526232 0.972910 0.398837 -0.258046
C102  C     C_R   0.972230 0.474489 0.398811 -0.258072
C103  C     C_R   0.473769 0.027090 0.398836 -0.258204
C104  C     C_R   0.027771 0.525509 0.398811 -0.258025
H17   H     H_    0.046635 0.547679 0.089335 0.199742
H18   H     H_    0.451025 0.045270 0.089363 0.200707
H19   H     H_    0.953368 0.452319 0.089336 0.199715
H20   H     H_    0.548974 0.954727 0.089363 0.200761
H21   H     H_    0.045510 0.451244 0.910643 0.200552
H22   H     H_    0.451031 0.954719 0.910637 0.200731
H23   H     H_    0.954497 0.548760 0.910641 0.200539
H24   H     H_    0.548969 0.045277 0.910635 0.200689
H25   H     H_    0.546486 0.047821 0.589338 0.199869
H26   H     H_    0.951955 0.546267 0.589332 0.200132
H27   H     H_    0.453511 0.952179 0.589337 0.199918
H28   H     H_    0.048046 0.453755 0.589352 0.200039
H29   H     H_    0.546441 0.952137 0.410665 0.199930
H30   H     H_    0.950932 0.454827 0.410633 0.200851
H31   H     H_    0.453558 0.047863 0.410663 0.199980
H32   H     H_    0.049068 0.545172 0.410632 0.200825
C105  C     C_R   0.000001 0.499999 0.086435 -0.143311
C106  C     C_R   0.500000 0.999999 0.086453 -0.144502
C107  C     C_R   0.000003 0.500001 0.913550 -0.144283
C108  C     C_R   0.500000 0.999999 0.913547 -0.144486
C109  C     C_R   0.499999 0.999999 0.586437 -0.143465
C110  C     C_R   0.000001 0.500013 0.586440 -0.143676
C111  C     C_R   0.500000 0.000000 0.413563 -0.143521
C112  C     C_R   0.000000 0.499999 0.413545 -0.144596
C113  C     C_R   0.000003 0.499998 0.145847 0.071782
C114  C     C_R   0.499999 0.999997 0.145874 0.072047
C115  C     C_R   0.000013 0.500008 0.854131 0.072008
C116  C     C_R   0.499997 0.000001 0.854126 0.072039
C117  C     C_R   0.499999 0.999997 0.645850 0.071828
C118  C     C_R   0.000023 0.500056 0.645854 0.071901
C119  C     C_R   0.500002 0.000001 0.354149 0.071846
C120  C     C_R   0.000001 0.499998 0.354123 0.072100
H33   H     H_    0.211661 0.468843 0.959390 0.159638
H34   H     H_    0.540074 0.211663 0.963201 0.159273
H35   H     H_    0.788339 0.535087 0.960907 0.159518
H36   H     H_    0.471822 0.788338 0.958390 0.159657
H37   H     H_    0.211662 0.531155 0.040613 0.159784
H38   H     H_    0.528178 0.788337 0.041610 0.159661
H39   H     H_    0.788338 0.464914 0.039095 0.159661
H40   H     H_    0.459926 0.211662 0.036799 0.159279
H41   H     H_    0.711662 0.966555 0.460244 0.159704
H42   H     H_    0.027066 0.711662 0.458050 0.159657
H43   H     H_    0.288339 0.024875 0.457423 0.159857
H44   H     H_    0.976143 0.288339 0.457154 0.159687
H45   H     H_    0.711662 0.033444 0.539757 0.159710
H46   H     H_    0.023856 0.288336 0.542848 0.159837
H47   H     H_    0.288338 0.975124 0.542577 0.159879
H48   H     H_    0.972934 0.711662 0.541953 0.159822
C121  C     C_R   0.271778 0.482454 0.977133 -0.161457
C122  C     C_R   0.522567 0.271779 0.979279 -0.161519
C123  C     C_R   0.728222 0.519757 0.977987 -0.161433
C124  C     C_R   0.484133 0.728222 0.976569 -0.161408
C125  C     C_R   0.271779 0.517544 0.022870 -0.161364
C126  C     C_R   0.515868 0.728221 0.023430 -0.161393
C127  C     C_R   0.728221 0.480242 0.022015 -0.161445
C128  C     C_R   0.477434 0.271778 0.020722 -0.161471
C129  C     C_R   0.771778 0.981166 0.477613 -0.161287
C130  C     C_R   0.015241 0.771778 0.476378 -0.161350
C131  C     C_R   0.228222 0.014008 0.476024 -0.161237
C132  C     C_R   0.986565 0.228222 0.475873 -0.161296
C133  C     C_R   0.771778 0.018833 0.522387 -0.161274
C134  C     C_R   0.013434 0.228221 0.524128 -0.161281
C135  C     C_R   0.228222 0.985992 0.523975 -0.161194
C136  C     C_R   0.984758 0.771778 0.523624 -0.161277
H49   H     H_    0.288455 0.468841 0.959391 0.155614
H50   H     H_    0.540077 0.288456 0.963203 0.155035
H51   H     H_    0.711544 0.535088 0.960908 0.155374
H52   H     H_    0.471821 0.711545 0.958390 0.155727
H53   H     H_    0.288456 0.531157 0.040612 0.155655
H54   H     H_    0.528180 0.711544 0.041609 0.155750
H55   H     H_    0.711543 0.464911 0.039094 0.155450
H56   H     H_    0.459924 0.288455 0.036798 0.155047
H57   H     H_    0.788456 0.966553 0.460244 0.155523
H58   H     H_    0.027067 0.788456 0.458050 0.155749
H59   H     H_    0.211544 0.024876 0.457423 0.155897
H60   H     H_    0.976141 0.211546 0.457154 0.155901
H61   H     H_    0.788455 0.033446 0.539756 0.155523
H62   H     H_    0.023857 0.211544 0.542847 0.155932
H63   H     H_    0.211544 0.975123 0.542576 0.155934
H64   H     H_    0.972932 0.788455 0.541952 0.155849
C137  C     C_R   0.293411 0.499999 0.000001 0.152668
C138  C     C_R   0.500000 0.293412 0.000000 0.153334
C139  C     C_R   0.706589 0.500000 0.000001 0.152914
C140  C     C_R   0.500000 0.706589 0.999999 0.152558
C141  C     C_R   0.793411 1.000000 0.500000 0.152803
C142  C     C_R   1.000000 0.793411 0.500001 0.152487
C143  C     C_R   0.206589 1.000000 0.500000 0.152353
C144  C     C_R   1.000000 0.206589 0.500000 0.152348
C145  C     C_R   0.228340 0.517543 0.022870 -0.156826
C146  C     C_R   0.477434 0.228340 0.020723 -0.156707
C147  C     C_R   0.771660 0.480243 0.022016 -0.156739
C148  C     C_R   0.515868 0.771659 0.023431 -0.157016
C149  C     C_R   0.228340 0.482455 0.977133 -0.156953
C150  C     C_R   0.484133 0.771660 0.976569 -0.157012
C151  C     C_R   0.771660 0.519757 0.977987 -0.156845
C152  C     C_R   0.522566 0.228341 0.979278 -0.156720
C153  C     C_R   0.728340 0.018832 0.522388 -0.156711
C154  C     C_R   0.984759 0.728340 0.523625 -0.156889
C155  C     C_R   0.271660 0.985992 0.523976 -0.156868
C156  C     C_R   0.013434 0.271659 0.524128 -0.156930
C157  C     C_R   0.728340 0.981167 0.477613 -0.156721
C158  C     C_R   0.986565 0.271660 0.475873 -0.157031
C159  C     C_R   0.271660 0.014007 0.476024 -0.156882
C160  C     C_R   0.015241 0.728340 0.476378 -0.156993
C161  C     C_R   0.206708 0.499999 0.000001 0.151457
C162  C     C_R   0.500000 0.206708 0.000000 0.151713
C163  C     C_R   0.793292 0.500000 0.000001 0.151516
C164  C     C_R   0.500000 0.793291 1.000000 0.151519
C165  C     C_R   0.706708 1.000000 0.500000 0.151427
C166  C     C_R   1.000000 0.706708 0.500001 0.151451
C167  C     C_R   0.293292 1.000000 0.500000 0.151355
C168  C     C_R   1.000000 0.293291 0.500001 0.151447
C169  C     C_1   0.337845 0.499999 0.000000 -0.049435
C170  C     C_1   0.500000 0.337845 0.000000 -0.049334
C171  C     C_1   0.662155 0.500000 0.000000 -0.049398
C172  C     C_1   0.500000 0.662155 1.000000 -0.049451
C173  C     C_1   0.837845 1.000000 0.500000 -0.049222
C174  C     C_1   1.000000 0.837845 0.500001 -0.049368
C175  C     C_1   0.162155 1.000000 0.500000 -0.049290
C176  C     C_1   1.000000 0.162155 0.500000 -0.049385
C177  C     C_1   0.162276 0.500000 0.000001 -0.040411
C178  C     C_1   0.500000 0.162276 0.000000 -0.040477
C179  C     C_1   0.837724 0.500000 0.000001 -0.040409
C180  C     C_1   0.500000 0.837723 1.000000 -0.040488
C181  C     C_1   0.662276 1.000000 0.500000 -0.040285
C182  C     C_1   1.000000 0.662276 0.500001 -0.040390
C183  C     C_1   0.337724 1.000000 0.500000 -0.040286
C184  C     C_1   1.000000 0.337723 0.500001 -0.040382
C185  C     C_1   0.124958 0.500000 0.000001 -0.147028
C186  C     C_1   0.500000 0.124959 0.000000 -0.147140
C187  C     C_1   0.875042 0.500000 0.000001 -0.147041
C188  C     C_1   0.500000 0.875041 1.000000 -0.147100
C189  C     C_1   0.624958 1.000000 0.500000 -0.146931
C190  C     C_1   1.000000 0.624959 0.500001 -0.147000
C191  C     C_1   0.375042 0.000000 0.500000 -0.146909
C192  C     C_1   1.000000 0.375041 0.500001 -0.146992
C193  C     C_1   0.375165 0.500000 0.000000 -0.156520
C194  C     C_1   0.500000 0.375165 0.000000 -0.156485
C195  C     C_1   0.624835 0.500000 0.000000 -0.156511
C196  C     C_1   0.500000 0.624836 1.000000 -0.156511
C197  C     C_1   0.875164 1.000000 0.500000 -0.156363
C198  C     C_1   1.000000 0.875164 0.500000 -0.156448
C199  C     C_1   0.124836 1.000000 0.500000 -0.156378
C200  C     C_1   1.000000 0.124836 0.500000 -0.156453
C201  C     C_R   0.500000 0.419431 0.000000 0.899140
C202  C     C_R   0.580569 0.500000 0.000000 0.899260
C203  C     C_R   0.500000 0.580570 1.000000 0.899462
C204  C     C_R   0.419431 0.500000 0.000000 0.899363
C205  C     C_R   1.000000 0.919431 0.500000 0.899593
C206  C     C_R   0.080569 1.000000 0.500000 0.899715
C207  C     C_R   1.000000 0.080570 0.500000 0.899659
C208  C     C_R   0.919431 1.000000 0.500000 0.899511
N9    N     N_R   0.056290 0.554289 0.145259 0.232269
O65   O     O_R   0.088437 0.569074 0.131719 -0.351754
O66   O     O_R   0.050074 0.566355 0.171296 -0.362645
N10   N     N_R   0.444114 0.054727 0.145280 0.232437
O67   O     O_R   0.428186 0.086267 0.131679 -0.351354
O68   O     O_R   0.432491 0.048378 0.171396 -0.362827
N11   N     N_R   0.943717 0.445707 0.145260 0.232281
O69   O     O_R   0.911568 0.430924 0.131722 -0.351659
O70   O     O_R   0.949937 0.433636 0.171297 -0.362638
N12   N     N_R   0.555884 0.945265 0.145279 0.232399
O71   O     O_R   0.571809 0.913725 0.131678 -0.351556
O72   O     O_R   0.567509 0.951615 0.171394 -0.362793
N13   N     N_R   0.055008 0.444388 0.854724 0.232365
O73   O     O_R   0.086670 0.428675 0.868309 -0.351573
O74   O     O_R   0.048657 0.432663 0.828630 -0.362762
N14   N     N_R   0.444120 0.945267 0.854720 0.232357
O75   O     O_R   0.428249 0.913685 0.868307 -0.351550
O76   O     O_R   0.432432 0.951665 0.828623 -0.362758
N15   N     N_R   0.945018 0.555628 0.854722 0.232377
O77   O     O_R   0.913353 0.571341 0.868303 -0.351512
O78   O     O_R   0.951376 0.567358 0.828629 -0.362759
N16   N     N_R   0.555878 0.054733 0.854718 0.232422
O79   O     O_R   0.571782 0.086290 0.868312 -0.351345
O80   O     O_R   0.567528 0.048361 0.828610 -0.362783
N17   N     N_R   0.556122 0.054463 0.645261 0.232324
O81   O     O_R   0.588180 0.069408 0.631705 -0.351676
O82   O     O_R   0.549923 0.066440 0.671319 -0.362665
N18   N     N_R   0.945263 0.555907 0.645255 0.232405
O83   O     O_R   0.930015 0.587785 0.631658 -0.351732
O84   O     O_R   0.933480 0.549775 0.671361 -0.362757
N19   N     N_R   0.443874 0.945534 0.645260 0.232286
O85   O     O_R   0.411804 0.930609 0.631708 -0.351726
O86   O     O_R   0.450086 0.933537 0.671312 -0.362659
N20   N     N_R   0.054744 0.444187 0.645273 0.232204
O87   O     O_R   0.069743 0.412128 0.631747 -0.351656
O88   O     O_R   0.066800 0.450528 0.671299 -0.362611
N21   N     N_R   0.556086 0.945485 0.354742 0.232368
O89   O     O_R   0.588082 0.930446 0.368318 -0.351690
O90   O     O_R   0.549942 0.933596 0.328659 -0.362740
N22   N     N_R   0.943999 0.445394 0.354716 0.232342
O91   O     O_R   0.928053 0.413850 0.368303 -0.351475
O92   O     O_R   0.932325 0.451822 0.328620 -0.362719
N23   N     N_R   0.443916 0.054513 0.354741 0.232327
O93   O     O_R   0.411903 0.069527 0.368310 -0.351751
O94   O     O_R   0.450078 0.066427 0.328665 -0.362689
N24   N     N_R   0.056003 0.554603 0.354715 0.232344
O95   O     O_R   0.071948 0.586148 0.368301 -0.351518
O96   O     O_R   0.067679 0.548173 0.328620 -0.362753

loop_
_geom_bond_atom_site_label_1
_geom_bond_atom_site_label_2
_geom_bond_distance
_ccdc_geom_bond_type
C133  C153  1.393491 A    
N9    O65   1.301758 A    
C75   C113  1.419847 A    
O25   C13   1.274541 A    
C135  C155  1.393491 A    
C184  C192  1.197152 T    
C103  C111  1.394181 A    
C133  H61   1.083618 S    
C79   C95   1.398838 A    
C3    C187  1.419915 S    
C20   N2    1.368579 A    
C77   C93   1.398844 A    
N22   O92   1.300506 A    
C20   C34   1.399974 A    
O18   Zn2   2.008848 S    
C34   C50   1.409147 A    
O33   C201  1.281515 A    
N14   O75   1.301758 A    
C86   C102  1.398844 A    
C42   C66   1.404239 A    
C132  C144  1.398870 A    
C23   O55   1.349507 S    
O24   Zn4   2.008853 S    
C150  C164  1.398857 A    
C40   C52   1.409142 A    
C90   H18   1.083622 S    
H45   C153  1.083629 S    
H41   C157  1.083627 S    
C77   N13   1.445017 S    
O3    C3    1.272274 A    
C19   N1    1.368579 A    
C22   C40   1.399983 A    
C80   C96   1.398855 A    
C161  C177  1.425365 S    
C42   C54   1.409152 A    
C133  C141  1.398867 A    
O22   C12   1.274667 A    
C82   N18   1.445013 S    
O48   C208  1.281517 A    
C1    C185  1.419918 S    
C156  C168  1.398858 A    
H35   C151  1.083636 S    
C122  C138  1.398869 A    
C25   N5    1.368584 A    
C45   C69   1.404236 A    
C18   C36   1.399973 A    
O17   C9    1.274522 A    
C48   C56   1.409143 A    
C27   C41   1.399988 A    
N20   O88   1.300515 A    
C62   C65   1.394001 A    
O43   C207  1.281519 A    
N6    C115  1.430426 S    
C27   O59   1.349510 S    
C36   C60   1.404236 A    
O40   C204  1.281517 A    
C78   C116  1.419963 A    
C49   C56   1.408517 A    
C78   C94   1.398840 A    
C40   C64   1.404229 A    
C51   C54   1.408527 A    
C153  C165  1.398854 A    
C175  C199  1.197198 T    
C58   H2    1.083113 S    
O13   C5    1.272275 A    
C13   C109  1.456095 S    
O40   Zn10  1.991243 S    
C96   C108  1.394333 A    
C30   C48   1.399979 A    
C85   C119  1.419939 A    
O26   Zn6   2.008848 S    
O7    C3    1.272272 A    
C134  C156  1.393494 A    
N17   O81   1.301735 A    
C37   C51   1.409143 A    
H48   C154  1.083629 S    
C79   C115  1.419974 A    
N19   O85   1.301736 A    
O27   C13   1.274542 A    
O31   C15   1.274544 A    
O36   C204  1.281514 A    
N23   O94   1.300505 A    
H44   C158  1.083628 S    
C18   O50   1.349511 S    
O38   C202  1.281516 A    
C60   C71   1.393994 A    
C171  C195  1.197198 T    
C131  C143  1.398870 A    
N18   O84   1.300501 A    
C102  C112  1.394348 A    
N15   O77   1.301761 A    
C65   H9    1.083103 S    
N21   O89   1.301743 A    
C78   N14   1.445015 S    
C183  C191  1.197144 T    
C81   N17   1.444873 S    
H46   C156  1.083628 S    
C60   H4    1.083108 S    
O11   C7    1.272277 A    
C25   O57   1.349507 S    
C82   C118  1.419959 A    
O4    C4    1.272274 A    
O5    Zn3   1.990369 S    
C134  C144  1.398870 A    
N16   O79   1.301754 A    
O44   Zn11  1.991244 S    
O37   Zn10  1.991262 S    
C128  C138  1.398870 A    
C98   C110  1.394247 A    
C32   O64   1.349509 S    
C123  C139  1.398863 A    
C178  C186  1.197152 T    
C11   C107  1.456505 S    
C27   N5    1.368585 A    
O9    C5    1.272277 A    
C31   N7    1.368586 A    
C141  C173  1.425423 S    
N7    C114  1.430412 S    
C24   C38   1.399979 A    
O23   C11   1.274645 A    
C99   H27   1.083638 S    
C154  C166  1.398856 A    
O37   C203  1.281519 A    
C90   C106  1.394316 A    
C16   C112  1.456655 S    
C85   C101  1.398830 A    
N23   O93   1.301746 A    
C17   C35   1.399988 A    
C195  C202  1.420036 S    
C64   H8    1.083112 S    
O44   C208  1.281514 A    
C47   C55   1.409150 A    
O14   C8    1.272274 A    
N1    C120  1.430421 S    
C21   O53   1.349507 S    
O2    Zn2   1.990387 S    
C93   H21   1.083639 S    
C164  C180  1.425372 S    
O17   Zn1   2.008846 S    
H47   C155  1.083626 S    
O28   C14   1.274559 A    
O26   C14   1.274558 A    
O29   C15   1.274544 A    
C121  C149  1.393494 A    
O8    Zn4   1.990386 S    
O30   C16   1.274682 A    
C50   C55   1.408512 A    
C134  H62   1.083613 S    
C8    C192  1.419941 S    
C196  C203  1.420066 S    
C19   O51   1.349510 S    
C24   O56   1.349506 S    
C129  C157  1.393494 A    
C48   C72   1.404232 A    
C181  C189  1.197147 T    
N10   O67   1.301747 A    
O19   Zn3   2.008852 S    
C86   C120  1.419950 A    
C24   N4    1.368575 A    
C36   C50   1.409144 A    
C89   H17   1.083655 S    
C91   H19   1.083650 S    
C88   C104  1.398843 A    
O39   C201  1.281518 A    
C96   H24   1.083626 S    
C79   N15   1.445019 S    
O16   Zn8   1.990386 S    
C124  C150  1.393491 A    
C126  C148  1.393491 A    
C94   H22   1.083630 S    
C162  C178  1.425385 S    
C100  C110  1.394207 A    
O6    Zn2   1.990389 S    
C74   C114  1.419990 A    
C84   C118  1.419858 A    
C173  C197  1.197195 T    
C123  C151  1.393497 A    
C128  C146  1.393501 A    
O36   Zn9   1.991244 S    
C46   C70   1.404229 A    
C159  C167  1.398853 A    
O39   Zn10  1.991259 S    
C64   C67   1.394000 A    
C167  C183  1.425362 S    
O18   C10   1.274666 A    
N24   O95   1.301758 A    
O21   Zn3   2.008850 S    
C34   C58   1.404228 A    
C74   N10   1.445073 S    
N19   O86   1.300508 A    
O48   Zn12  1.991243 S    
O12   C8    1.272272 A    
O1    C1    1.272275 A    
C102  H30   1.083622 S    
C92   C106  1.394317 A    
C32   N8    1.368576 A    
C23   N3    1.368576 A    
C100  H28   1.083656 S    
N14   O76   1.300504 A    
C199  C206  1.420049 S    
C44   C68   1.404244 A    
C122  C152  1.393497 A    
C155  C167  1.398856 A    
C128  H56   1.083623 S    
C15   C111  1.456109 S    
C22   O54   1.349506 S    
C130  C160  1.393494 A    
N2    C119  1.430407 S    
C10   C106  1.456608 S    
C136  C142  1.398872 A    
C25   C43   1.399988 A    
C163  C179  1.425368 S    
C97   C109  1.394198 A    
N13   O74   1.300504 A    
H42   C160  1.083628 S    
O46   Zn12  1.991241 S    
C2    C186  1.419931 S    
O35   C203  1.281523 A    
C179  C187  1.197144 T    
O10   C6    1.272272 A    
O33   Zn9   1.991265 S    
C170  C194  1.197203 T    
C18   N2    1.368578 A    
C88   N24   1.445005 S    
C104  H32   1.083616 S    
O15   Zn5   1.990372 S    
C35   C59   1.404234 A    
C21   C39   1.399997 A    
C5    C189  1.419918 S    
C26   O58   1.349506 S    
H37   C145  1.083632 S    
C193  C204  1.420043 S    
O5    C1    1.272274 A    
C87   C103  1.398824 A    
C157  C165  1.398854 A    
C124  C140  1.398867 A    
N3    C118  1.430412 S    
C165  C181  1.425362 S    
C69   H13   1.083107 S    
N12   O71   1.301749 A    
H36   C150  1.083632 S    
C72   H16   1.083116 S    
C121  H49   1.083619 S    
C28   O60   1.349507 S    
O32   Zn8   2.008853 S    
C129  C141  1.398867 A    
N11   O69   1.301758 A    
O47   C205  1.281521 A    
C127  H55   1.083627 S    
C12   C108  1.456608 S    
C71   H15   1.083108 S    
C57   C70   1.394001 A    
C125  C145  1.393494 A    
C145  C161  1.398854 A    
O22   Zn2   2.008852 S    
C127  C147  1.393497 A    
N9    O66   1.300524 A    
O21   C11   1.274650 A    
C41   C53   1.409143 A    
O23   Zn1   2.008856 S    
H33   C149  1.083633 S    
C28   N6    1.368585 A    
C26   N6    1.368588 A    
C137  C169  1.425423 S    
C30   N8    1.368574 A    
C139  C171  1.425426 S    
N22   O91   1.301755 A    
C140  C172  1.425433 S    
C136  C154  1.393494 A    
C86   N22   1.445006 S    
O3    Zn3   1.990371 S    
C38   C62   1.404233 A    
O42   C206  1.281516 A    
O8    C2    1.272272 A    
C39   C51   1.409147 A    
O34   C202  1.281511 A    
N21   O90   1.300506 A    
C66   H10   1.083120 S    
O30   Zn6   2.008852 S    
C135  H63   1.083619 S    
C31   O63   1.349505 S    
C126  H54   1.083623 S    
C125  C137  1.398867 A    
C127  C139  1.398868 A    
C149  C161  1.398852 A    
C160  C166  1.398858 A    
C74   C90   1.398851 A    
O43   Zn11  1.991256 S    
C6    C190  1.419935 S    
O4    Zn4   1.990390 S    
C7    C191  1.419918 S    
O9    Zn5   1.990368 S    
N16   O80   1.300499 A    
C132  C158  1.393491 A    
O35   Zn9   1.991256 S    
O11   Zn7   1.990371 S    
C45   C55   1.409145 A    
O16   C6    1.272274 A    
C61   H5    1.083122 S    
C26   C44   1.399998 A    
C35   C49   1.409139 A    
C144  C176  1.425433 S    
H38   C148  1.083630 S    
N20   O87   1.301755 A    
O6    C4    1.272275 A    
C17   O49   1.349509 S    
C135  C143  1.398867 A    
C180  C188  1.197155 T    
O45   Zn12  1.991262 S    
C20   O52   1.349510 S    
C84   C100  1.398760 A    
C47   C71   1.404230 A    
O31   Zn5   2.008856 S    
H43   C159  1.083628 S    
C131  H59   1.083616 S    
C176  C200  1.197206 T    
C168  C184  1.425372 S    
C81   C97   1.398817 A    
C121  C137  1.398867 A    
C29   O61   1.349511 S    
C4    C188  1.419938 S    
C101  H29   1.083640 S    
C81   C117  1.419881 A    
C93   C107  1.394313 A    
N17   O82   1.300509 A    
C43   C53   1.409144 A    
C9    C105  1.456039 S    
O13   Zn7   1.990369 S    
H34   C152  1.083635 S    
O2    C2    1.272271 A    
O20   Zn4   2.008848 S    
C177  C185  1.197144 T    
C82   C98   1.398876 A    
N24   O96   1.300507 A    
N8    C113  1.430412 S    
C23   C37   1.399988 A    
N18   O83   1.301728 A    
C142  C174  1.425436 S    
N10   O68   1.300492 A    
O42   Zn11  1.991240 S    
C87   N23   1.444923 S    
C174  C198  1.197206 T    
C123  H51   1.083625 S    
C21   N3    1.368583 A    
C124  H52   1.083621 S    
O47   Zn12  1.991259 S    
C73   N9    1.444800 S    
C136  H64   1.083619 S    
O28   Zn8   2.008848 S    
O34   Zn9   1.991240 S    
C75   C91   1.398806 A    
C89   C105  1.394193 A    
C76   C92   1.398851 A    
H39   C147  1.083639 S    
C130  H58   1.083616 S    
C52   C53   1.408517 A    
C126  C140  1.398869 A    
C73   C89   1.398808 A    
O32   C16   1.274680 A    
C63   C68   1.394005 A    
N11   O70   1.300523 A    
C61   C66   1.393997 A    
C147  C163  1.398853 A    
C148  C164  1.398856 A    
C33   C57   1.404233 A    
N4    C117  1.430407 S    
C104  C112  1.394349 A    
C198  C205  1.420063 S    
C88   C120  1.419950 A    
O15   C7    1.272275 A    
C57   H1    1.083106 S    
C92   H20   1.083620 S    
C28   C42   1.399992 A    
C182  C190  1.197152 T    
C83   N19   1.444863 S    
N15   O78   1.300504 A    
O25   Zn5   2.008846 S    
C32   C46   1.399979 A    
C197  C208  1.420049 S    
O27   Zn7   2.008852 S    
C44   C54   1.409145 A    
O7    Zn1   1.990372 S    
C43   C67   1.404236 A    
C46   C56   1.409141 A    
C41   C65   1.404234 A    
O41   Zn11  1.991265 S    
C80   N16   1.445045 S    
C122  H50   1.083625 S    
C83   C99   1.398808 A    
C130  C142  1.398867 A    
C63   H7    1.083130 S    
O29   Zn7   2.008850 S    
C84   N20   1.444821 S    
C58   C69   1.393995 A    
C95   H23   1.083644 S    
C194  C201  1.420056 S    
O19   C9    1.274523 A    
C76   N12   1.445069 S    
C146  C162  1.398852 A    
C143  C175  1.425423 S    
C76   C114  1.419991 A    
O24   C12   1.274666 A    
C129  H57   1.083617 S    
C29   N7    1.368584 A    
C101  C111  1.394183 A    
C99   C109  1.394194 A    
O12   Zn8   1.990390 S    
C73   C113  1.419849 A    
C151  C163  1.398854 A    
O14   Zn6   1.990389 S    
C83   C117  1.419870 A    
C138  C170  1.425436 S    
C70   H14   1.083110 S    
C19   C33   1.399987 A    
O46   C206  1.281514 A    
C33   C49   1.409145 A    
C39   C63   1.404235 A    
C166  C182  1.425379 S    
C94   C108  1.394327 A    
N13   O73   1.301762 A    
C91   C105  1.394196 A    
C80   C116  1.419976 A    
N5    C116  1.430417 S    
C22   N4    1.368575 A    
C30   O62   1.349511 S    
C17   N1    1.368583 A    
C68   H12   1.083115 S    
C77   C115  1.419969 A    
O45   C207  1.281523 A    
C125  H53   1.083621 S    
C103  H31   1.083643 S    
C59   C72   1.393996 A    
C158  C168  1.398858 A    
C14   C110  1.456189 S    
C131  C159  1.393494 A    
C95   C107  1.394316 A    
C29   C47   1.399983 A    
H40   C146  1.083636 S    
C31   C45   1.399982 A    
O20   C10   1.274667 A    
C132  H60   1.083618 S    
C75   N11   1.444799 S    
O10   Zn6   1.990387 S    
N12   O72   1.300496 A    
C59   H3    1.083105 S    
C38   C52   1.409142 A    
O38   Zn10  1.991241 S    
C67   H11   1.083102 S    
C152  C162  1.398856 A    
C97   H25   1.083637 S    
O41   C205  1.281518 A    
C85   N21   1.444945 S    
C169  C193  1.197198 T    
C62   H6    1.083109 S    
O1    Zn1   1.990368 S    
C37   C61   1.404236 A    
C172  C196  1.197203 T    
C87   C119  1.419930 A    
C200  C207  1.420066 S    
C98   H26   1.083636 S    
