data_mof_unit_25582.cif
_audit_creation_date              2012-12-11T15:55:59-0500
_audit_creation_method            fapswitch 2.2
_symmetry_space_group_name_H-M    P1
_symmetry_Int_Tables_number       1
_space_group_crystal_system       triclinic
_cell_length_a                    11.054704
_cell_length_b                    11.421218
_cell_length_c                    18.767311
_cell_angle_alpha                 90.490029
_cell_angle_beta                  90.254235
_cell_angle_gamma                 60.214468
_cell_volume                      2056.41536598

loop_
_atom_site_label
_atom_site_type_symbol
_atom_type_description
_atom_site_fract_x
_atom_site_fract_y
_atom_site_fract_z
_atom_type_partial_charge
C1    C     C_R   0.358408 0.775336 0.398746 0.627700
C2    C     C_R   0.224516 0.374124 0.208522 -0.032949
C3    C     C_R   0.233475 0.383064 0.281463 -0.043496
C4    C     C_R   0.385575 0.351332 0.389246 0.579446
C5    C     C_R   0.911842 0.736173 0.377207 -0.148776
C6    C     C_R   0.886383 0.632630 0.359908 -0.111544
C7    C     C_R   0.992450 0.512971 0.330928 -0.117971
C8    C     C_R   0.117969 0.504347 0.311753 -0.014208
C9    C     C_R   0.366119 0.324323 0.314100 0.090209
C10   C     C_R   0.843595 0.346445 0.180269 0.026020
C11   C     C_R   0.920857 0.265578 0.236011 -0.050971
C12   C     C_R   0.601905 0.214868 0.150155 0.023467
C13   C     C_R   0.871986 0.286960 0.304492 0.006288
C14   C     C_R   0.669374 0.486064 0.267694 -0.176140
C15   C     C_R   0.718354 0.464071 0.196863 -0.162306
C16   C     C_R   0.708844 0.417207 0.396369 0.576493
C17   C     C_3   0.982059 0.120130 0.243802 -0.221081
C18   C     C_3   0.928021 0.143053 0.320376 0.014846
C19   C     C_R   0.745978 0.394885 0.321819 0.009534
C20   C     C_R   0.343811 0.834561 0.174796 -0.009645
C21   C     C_R   0.453085 0.832220 0.214103 -0.088887
C22   C     C_R   0.469848 0.805587 0.288127 -0.036991
C23   C     C_R   0.344353 0.319381 0.165777 0.087818
C24   C     C_R   0.232092 0.858112 0.288025 -0.129576
C25   C     C_R   0.233980 0.835575 0.214989 0.026898
C26   C     C_3   0.483221 0.945066 0.222448 -0.054111
C27   C     C_3   0.549334 0.880332 0.292881 -0.054801
C28   C     C_R   0.342937 0.771190 0.603151 0.562563
C29   C     C_R   0.350058 0.830754 0.327004 0.103128
C30   C     C_R   0.310084 0.321634 0.814477 0.047729
C31   C     C_R   0.434935 0.237268 0.781228 0.095598
C32   C     C_R   0.447987 0.239865 0.709311 0.087696
C33   C     C_R   0.206718 0.412622 0.698688 -0.174076
C34   C     C_R   0.487271 0.265576 0.270484 -0.077916
C35   C     C_R   0.193722 0.407961 0.772741 -0.139628
C36   C     C_3   0.574746 0.221296 0.796412 -0.263379
C37   C     C_3   0.590755 0.222776 0.716740 -0.239446
C38   C     C_R   0.336865 0.330357 0.666837 0.037324
C39   C     C_R   0.917611 0.288532 0.820284 0.012169
C40   C     C_R   0.371480 0.352315 0.595977 0.555072
C41   C     C_R   0.902628 0.400970 0.784270 -0.001962
C42   C     C_R   0.872082 0.419697 0.713100 0.007493
C43   C     C_R   0.888123 0.202280 0.705661 -0.156754
C44   C     C_R   0.921067 0.182915 0.779236 -0.160074
C45   C     C_R   0.476940 0.268082 0.196472 -0.042177
C46   C     C_3   0.808992 0.546492 0.801362 -0.239547
C47   C     C_3   0.779618 0.568579 0.722994 -0.224687
C48   C     C_R   0.849448 0.328044 0.674033 0.020032
C49   C     C_R   0.302337 0.861580 0.821271 0.010047
C50   C     C_R   0.196309 0.855898 0.784613 -0.035256
C51   C     C_R   0.201688 0.839943 0.712128 -0.027488
C52   C     C_R   0.767733 0.375956 0.608139 0.524774
C53   C     C_R   0.397691 0.877981 0.705271 -0.012404
C54   C     C_R   0.406589 0.873919 0.781069 -0.005391
C55   C     C_3   0.140198 0.762584 0.796006 -0.056889
C56   C     C_R   0.135949 0.616446 0.316310 0.154165
C57   C     C_3   0.150202 0.740765 0.715708 -0.250814
C58   C     C_R   0.307449 0.840582 0.671818 -0.008692
C59   C     C_R   0.908366 0.316994 0.110284 0.559689
C60   C     C_R   0.326822 0.291427 0.092352 0.580171
C61   C     C_R   0.308521 0.894158 0.103312 0.598930
C62   C     C_R   0.941612 0.283982 0.897454 0.543161
C63   C     C_R   0.295786 0.287131 0.886284 0.525251
C64   C     C_R   0.775635 0.088428 0.032720 -0.043071
C65   C     C_R   0.275628 0.897974 0.896879 0.574812
C66   C     C_R   0.786388 0.014134 0.093385 -0.100192
C67   C     C_R   0.036354 0.727728 0.356954 -0.057741
C68   C     C_R   0.701679 0.077475 0.152625 -0.101768
C69   C     C_3   0.004378 0.061668 0.443842 -0.258641
C70   C     C_2   0.114562 0.819282 0.184859 0.611950
C71   C     C_2   0.342447 0.072357 0.229315 0.544694
C72   C     C_2   0.534403 0.967256 0.356760 0.613410
C73   C     C_2   0.479984 0.919299 0.659749 0.620087
C74   C     C_2   0.527312 0.874729 0.816926 0.618119
C75   C     C_2   0.236494 0.642127 0.840356 0.570465
C76   C     C_2   0.269661 0.598124 0.284097 0.541683
C77   C     C_R   0.599976 0.291205 0.091156 -0.098600
C78   C     C_R   0.684624 0.227627 0.032186 -0.072619
Cr1   Cr    Cr6+3 0.601740 0.606840 0.505840 1.047137
Cr2   Cr    Cr6+3 0.291500 0.601560 0.495070 1.014970
Cr3   Cr    Cr6+3 0.606780 0.291630 0.499130 1.014937
Cr4   Cr    Cr6+3 0.062440 0.063060 0.008240 1.034330
Cr5   Cr    Cr6+3 0.062950 0.375000 0.998920 1.051041
Cr6   Cr    Cr6+3 0.374550 0.061770 0.992470 1.064490
H1    H     H_    0.589795 0.228673 0.293519 0.154512
H2    H     H_    0.139997 0.882871 0.315200 0.177186
H3    H     H_    0.676226 0.285773 0.985337 0.129893
H4    H     H_    0.554202 0.944809 0.180997 0.101608
H5    H     H_    0.662024 0.808218 0.284222 0.073431
H6    H     H_    0.118774 0.484730 0.667542 0.127039
H7    H     H_    0.095150 0.473941 0.797638 0.146544
H8    H     H_    0.648119 0.122719 0.820793 0.177172
H9    H     H_    0.569322 0.310321 0.823991 0.164918
H10   H     H_    0.594881 0.312992 0.698565 0.155226
H11   H     H_    0.045396 0.811444 0.373884 0.137134
H12   H     H_    0.834544 0.824004 0.405767 0.152525
H13   H     H_    0.671619 0.124235 0.694570 0.156759
H14   H     H_    0.881634 0.124357 0.675597 0.123045
H15   H     H_    0.940030 0.090440 0.804366 0.132374
H16   H     H_    0.864201 0.597693 0.823335 0.156636
H17   H     H_    0.717169 0.560546 0.832251 0.211603
H18   H     H_    0.668211 0.605001 0.710211 0.183274
H19   H     H_    0.825737 0.625580 0.698363 0.180065
H20   H     H_    0.031120 0.817130 0.816066 0.118000
H21   H     H_    0.838297 0.037927 0.986329 0.129261
H22   H     H_    0.230794 0.638236 0.698174 0.180665
H23   H     H_    0.784203 0.647769 0.369339 0.169376
H24   H     H_    0.046755 0.779618 0.689799 0.119044
H25   H     H_    0.856457 0.906450 0.093049 0.139602
H26   H     H_    0.706799 0.017915 0.198175 0.120430
H27   H     H_    0.523579 0.397537 0.088052 0.103771
H28   H     H_    0.121427 0.418456 0.184903 0.161605
H29   H     H_    0.088895 0.149575 0.380265 0.290320
H30   H     H_    0.102717 0.986236 0.469524 0.167865
H31   H     H_    0.934738 0.017917 0.438612 0.138313
H32   H     H_    0.956189 0.151317 0.479490 0.182135
H33   H     H_    0.935488 0.819365 0.206059 0.325536
H34   H     H_    0.978589 0.428017 0.323153 0.133849
H35   H     H_    0.182798 0.195049 0.292530 0.313593
H36   H     H_    0.445640 0.045856 0.451940 0.360362
H37   H     H_    0.666968 0.895037 0.631626 0.326748
H38   H     H_    0.670895 0.802674 0.895584 0.322392
H39   H     H_    0.264724 0.544309 0.933102 0.342198
H40   H     H_    0.393200 0.549132 0.196988 0.319916
H41   H     H_    0.570323 0.568595 0.279547 0.167691
H42   H     H_    0.657139 0.534751 0.155604 0.122765
H43   H     H_    0.093162 0.080057 0.236110 0.189225
H44   H     H_    0.929675 0.084061 0.206677 0.186487
H45   H     H_    0.847572 0.112895 0.328620 0.178545
N1    N     N_2   0.035750 0.097326 0.375245 -0.525055
O1    O     O_R   0.748670 0.497520 0.427970 -0.540423
O2    O     O_R   0.417470 0.174910 0.067830 -0.500594
O3    O     O_R   0.375160 0.946380 0.070880 -0.471671
O4    O     O_R   0.476470 0.723930 0.429450 -0.486231
O5    O     O_R   0.160500 0.919670 0.926690 -0.512250
O6    O     O_R   0.933140 0.190380 0.936050 -0.545103
O7    O     O_R   0.909010 0.403210 0.925030 -0.513962
O8    O     O_R   0.179590 0.361290 0.918480 -0.512477
O9    O     O_R   0.391360 0.170840 0.907510 -0.507718
O10   O     O_R   0.350950 0.942600 0.922260 -0.477973
O11   O     O_3   0.166650 0.166610 0.999880 -0.289039
O12   O     O_R   0.300170 0.471020 0.567120 -0.520151
O13   O     O_R   0.264730 0.744140 0.416740 -0.535661
O14   O     O_R   0.309440 0.472410 0.418220 -0.479139
O15   O     O_R   0.501630 0.260530 0.414310 -0.487585
O16   O     O_R   0.727920 0.305730 0.428950 -0.512466
O17   O     O_R   0.738670 0.496020 0.588600 -0.510696
O18   O     O_R   0.467190 0.722540 0.578350 -0.480141
O19   O     O_R   0.254720 0.742640 0.577370 -0.539839
O20   O     O_2   0.128311 0.757997 0.128803 -0.456897
O21   O     O_R   0.994889 0.857163 0.225425 -0.777883
O22   O     O_2   0.271309 0.120697 0.176305 -0.539791
O23   O     O_R   0.491630 0.259030 0.574940 -0.503733
O24   O     O_R   0.282522 0.119776 0.296054 -0.696235
O25   O     O_2   0.610348 0.016113 0.360819 -0.559794
O26   O     O_R   0.442109 0.986878 0.412241 -0.650748
O27   O     O_2   0.419977 0.004440 0.613852 -0.523848
O28   O     O_R   0.624586 0.858056 0.666407 -0.695233
O29   O     O_2   0.568271 0.950196 0.796902 -0.516237
O30   O     O_R   0.593048 0.790310 0.874861 -0.701183
O31   O     O_2   0.357286 0.567632 0.821871 -0.560128
O32   O     O_R   0.188456 0.621193 0.905056 -0.676909
O33   O     O_2   0.368330 0.576813 0.321146 -0.562853
O34   O     O_R   0.718640 0.304340 0.577850 -0.528494
O35   O     O_R   0.296527 0.569043 0.211657 -0.699193
O36   O     O_3   0.500010 0.500010 0.500020 -0.289189
O37   O     O_R   0.186620 0.923750 0.087000 -0.479915
O38   O     O_R   0.957350 0.194160 0.084660 -0.494266
O39   O     O_R   0.935120 0.407280 0.085350 -0.511494
O40   O     O_R   0.203800 0.365060 0.067090 -0.491616

loop_
_geom_bond_atom_site_label_1
_geom_bond_atom_site_label_2
_ccdc_geom_bond_type
C78   H3    S    
C66   C68   A    
C21   C26   S    
C69   H32   S    
C72   O26   S    
C22   C29   A    
C40   O12   A    
C41   C42   A    
C70   O20   D    
C43   H14   S    
C5    C67   A    
C8    C56   A    
C37   H13   S    
C61   O3    A    
C7    C8    A    
C39   C41   A    
Cr4   O38   S    
C77   C78   A    
C12   C68   A    
C2    H28   S    
C26   C27   S    
C14   H41   S    
C49   C65   S    
C13   C18   S    
C75   O32   S    
C23   C45   A    
C36   C37   S    
C10   C15   A    
C30   C31   A    
C44   H15   S    
C47   H18   S    
C20   C25   A    
C49   C54   A    
Cr5   O40   S    
C73   O27   D    
H36   O26   S    
Cr3   O23   S    
C16   O16   A    
C62   O6    A    
C20   C61   S    
C77   H27   S    
C16   O1    A    
C24   C29   A    
C33   C35   A    
C54   C74   S    
C65   O10   A    
C36   H9    S    
C69   H31   S    
C31   C32   A    
Cr6   O9    S    
C69   N1    S    
Cr2   O14   S    
C15   H42   S    
C6    H23   S    
C51   C57   S    
C32   C38   A    
C43   C48   A    
C55   C75   S    
C36   H8    S    
C57   H22   S    
Cr3   O36   S    
C28   O19   A    
C62   O7    A    
C72   O25   D    
C21   C22   A    
C67   H11   S    
C26   C71   S    
C7    H34   S    
C60   O2    A    
C23   C60   S    
C63   O9    A    
Cr4   O11   S    
Cr2   O36   S    
C50   C51   A    
C6    C7    A    
Cr4   O37   S    
Cr2   O19   S    
Cr6   O3    S    
C46   H17   S    
C69   H30   S    
C28   O18   A    
C47   H19   S    
H29   N1    S    
C13   C19   A    
C64   H21   S    
C24   C25   A    
C3    C8    S    
C68   H26   S    
Cr5   O11   S    
H39   O32   S    
C17   H43   S    
Cr1   O17   S    
C53   C54   A    
C71   O24   S    
C73   O28   S    
Cr6   O2    S    
Cr1   O36   S    
C61   O37   A    
C34   H1    S    
C64   C66   A    
Cr5   O39   S    
C43   C44   A    
C3    C9    A    
C71   O22   D    
C41   C46   S    
Cr2   O13   S    
Cr1   O1    S    
C12   C77   A    
C1    C29   S    
C17   C18   S    
C76   O35   S    
H33   O21   S    
C51   C58   A    
C42   C48   A    
C32   C37   S    
C65   O5    A    
C34   C45   A    
C52   O34   A    
C74   O29   D    
C49   C50   A    
C52   O17   A    
Cr3   O15   S    
H37   O28   S    
C55   C57   S    
C9    C34   A    
C63   O8    A    
C40   O23   A    
C18   N1    S    
C1    O4    A    
Cr5   O7    S    
C5    H12   S    
C75   O31   D    
Cr1   O4    S    
C46   H16   S    
C46   C47   S    
C11   C17   S    
C31   C36   S    
C64   C78   A    
C14   C19   A    
C53   C73   S    
C70   O21   S    
C33   C38   A    
C12   C45   S    
C18   H45   S    
C4    O14   A    
C53   C58   A    
C17   H44   S    
C39   C44   A    
C28   C58   S    
C1    O13   A    
H35   O24   S    
C56   C67   A    
C30   C35   A    
Cr2   O12   S    
C50   C55   S    
C74   O30   S    
C22   C27   S    
C60   O40   A    
C2    C3    A    
Cr4   O5    S    
C56   C76   S    
C59   O39   A    
C33   H6    S    
C38   C40   S    
C11   C13   A    
C5    C6    A    
C24   H2    S    
Cr6   O11   S    
C16   C19   S    
C4    O15   A    
C55   H20   S    
Cr3   O34   S    
C37   H10   S    
C27   H5    S    
Cr1   O18   S    
C42   C47   S    
C66   H25   S    
Cr4   O6    S    
C10   C11   A    
C27   C72   S    
H40   O35   S    
C48   C52   S    
C57   H24   S    
C20   C21   A    
Cr6   O10   S    
C26   H4    S    
Cr3   O16   S    
C2    C23   A    
C39   C62   S    
H38   O30   S    
C14   C15   A    
C76   O33   D    
C25   C70   S    
C4    C9    S    
C30   C63   S    
C10   C59   S    
Cr5   O8    S    
C59   O38   A    
C35   H7    S    
