data_mof_unit_26855.cif
_audit_creation_date              2012-12-10T19:25:54-0500
_audit_creation_method            fapswitch 2.2
_symmetry_space_group_name_H-M    P1
_symmetry_Int_Tables_number       1
_space_group_crystal_system       triclinic
_cell_length_a                    9.867533
_cell_length_b                    10.465416
_cell_length_c                    16.906105
_cell_angle_alpha                 90.345384
_cell_angle_beta                  82.018247
_cell_angle_gamma                 90.948021
_cell_volume                      1728.69470843

loop_
_atom_site_label
_atom_site_type_symbol
_atom_type_description
_atom_site_fract_x
_atom_site_fract_y
_atom_site_fract_z
_atom_type_partial_charge
C1    C     C_R   0.501231 0.742095 0.499399 0.871987
C2    C     C_3   0.631094 0.963167 0.492057 -0.118530
C3    C     C_3   0.943762 0.595929 0.540422 0.172409
C4    C     C_3   0.056335 0.404074 0.459535 0.172926
C5    C     C_3   0.057267 0.603232 0.468584 0.129791
C6    C     C_3   0.942781 0.396713 0.531384 0.129725
C7    C     C_3   0.030273 0.492384 0.571753 0.132592
C8    C     C_3   0.969785 0.507594 0.428245 0.131351
C9    C     C_R   0.477551 0.503145 0.652485 0.865923
C10   C     C_R   0.522352 0.497991 0.347456 0.869140
C11   C     C_R   0.457889 0.523091 0.737978 -0.065746
C12   C     C_R   0.498783 0.257899 0.500551 0.872651
C13   C     C_R   0.541062 0.489811 0.261205 -0.066126
C14   C     C_R   0.553363 0.598112 0.771623 -0.200457
C15   C     C_R   0.441030 0.427210 0.223974 -0.201637
C16   C     C_R   0.539022 0.615766 0.853187 -0.205390
C17   C     C_R   0.450491 0.427805 0.141906 -0.206692
C18   C     C_R   0.430422 0.556318 0.902229 0.156350
C19   C     C_R   0.559463 0.492224 0.096079 0.162709
C20   C     C_R   0.327643 0.487839 0.868672 0.219520
C21   C     C_R   0.666306 0.548413 0.132513 0.216015
C22   C     C_R   0.343214 0.471520 0.785856 -0.251491
C23   C     C_3   0.440406 0.955938 0.438110 -0.172204
C24   C     C_R   0.655133 0.547044 0.215771 -0.255048
C25   C     C_2   0.438551 0.550201 0.987240 -0.236279
C26   C     C_2   0.553215 0.508002 0.011415 -0.232929
C27   C     C_3   0.069575 0.485582 0.655967 -0.327226
C28   C     C_3   0.946164 0.482926 0.721656 -0.895559
C29   C     C_3   0.930219 0.515062 0.344170 -0.325561
C30   C     C_3   0.053136 0.517468 0.278168 -0.898917
C31   C     C_3   0.208139 0.422496 0.919222 -0.443111
C32   C     C_3   0.246183 0.289167 0.943802 -0.850451
C33   C     C_3   0.787037 0.617304 0.085247 -0.443414
C34   C     C_3   0.559643 0.044034 0.561759 -0.172846
C35   C     C_3   0.749500 0.752130 0.063128 -0.847406
C36   C     C_3   0.127362 0.728317 0.436653 -0.326958
C37   C     C_3   0.034921 0.812944 0.394707 -0.901064
C38   C     C_3   0.872909 0.271485 0.563157 -0.328194
C39   C     C_3   0.965730 0.186838 0.604796 -0.901398
C40   C     C_3   0.568245 0.044366 0.431020 -0.182028
C41   C     C_3   0.431795 0.955619 0.568851 -0.182399
C42   C     C_3   0.496917 0.122577 0.500663 0.019889
C43   C     C_3   0.503124 0.877406 0.499213 0.020053
C44   C     C_3   0.368950 0.036811 0.507806 -0.118494
H1    H     H_    0.640167 0.641689 0.734965 0.192747
H2    H     H_    0.376510 0.914602 0.624889 0.143825
H3    H     H_    0.392138 0.915549 0.387720 0.145261
H4    H     H_    0.607925 0.084399 0.612150 0.144814
H5    H     H_    0.261602 0.068790 0.514815 0.168516
H6    H     H_    0.738457 0.931199 0.484942 0.168996
H7    H     H_    0.904878 0.580057 0.732995 0.280975
H8    H     H_    0.863299 0.418854 0.706203 0.275818
H9    H     H_    0.978556 0.448668 0.777996 0.234701
H10   H     H_    0.129666 0.397820 0.659744 0.212695
H11   H     H_    0.134138 0.570319 0.666092 0.231274
H12   H     H_    0.354024 0.379977 0.258409 0.190827
H13   H     H_    0.137228 0.579809 0.293873 0.276561
H14   H     H_    0.092628 0.419901 0.265898 0.280224
H15   H     H_    0.020747 0.553580 0.222240 0.235183
H16   H     H_    0.864994 0.430835 0.333989 0.231344
H17   H     H_    0.870869 0.603352 0.340961 0.212141
H18   H     H_    0.274570 0.228645 0.890030 0.259164
H19   H     H_    0.333492 0.294257 0.978669 0.263788
H20   H     H_    0.157259 0.243928 0.981379 0.248268
H21   H     H_    0.172190 0.480358 0.973055 0.195026
H22   H     H_    0.119864 0.413629 0.885175 0.200975
H23   H     H_    0.731260 0.596709 0.244986 0.144752
H24   H     H_    0.667486 0.749430 0.024375 0.264084
H25   H     H_    0.714186 0.808077 0.117966 0.260006
H26   H     H_    0.840875 0.800977 0.030212 0.247562
H27   H     H_    0.873458 0.624727 0.120859 0.201199
H28   H     H_    0.825519 0.562403 0.030551 0.195443
H29   H     H_    0.030316 0.778821 0.332973 0.261813
H30   H     H_    0.929875 0.814656 0.427653 0.277788
H31   H     H_    0.077198 0.912063 0.390990 0.275434
H32   H     H_    0.157974 0.782845 0.488032 0.233982
H33   H     H_    0.220668 0.706724 0.394439 0.222788
H34   H     H_    0.269701 0.413462 0.759337 0.144615
H35   H     H_    0.070365 0.184698 0.571338 0.277824
H36   H     H_    0.971423 0.221291 0.666342 0.261790
H37   H     H_    0.923112 0.087855 0.608933 0.275641
H38   H     H_    0.779694 0.292822 0.605507 0.222514
H39   H     H_    0.842211 0.217130 0.511734 0.233852
H40   H     H_    0.642925 0.486754 0.968749 0.161089
H41   H     H_    0.348771 0.570949 0.029936 0.159316
H42   H     H_    0.369899 0.381677 0.114147 0.153515
H43   H     H_    0.616823 0.670403 0.878601 0.153394
H44   H     H_    0.623543 0.085369 0.374982 0.143377
I1    I     I_    0.856908 0.757943 0.605957 -0.481900
I2    I     I_    0.144743 0.243552 0.393017 -0.476345
N1    N     N_3   0.136700 0.499970 0.500060 -0.157527
N2    N     N_3   0.863300 0.500030 0.499940 -0.157349
O1    O     O_R   0.383390 0.686040 0.500000 -0.646121
O2    O     O_R   0.616610 0.313960 0.500000 -0.645969
O3    O     O_R   0.616650 0.686050 0.499970 -0.591603
O4    O     O_R   0.383350 0.313950 0.500030 -0.591005
O5    O     O_R   0.369590 0.500020 0.615820 -0.639710
O6    O     O_R   0.630410 0.499980 0.384180 -0.640603
O7    O     O_R   0.602840 0.500020 0.615790 -0.600064
O8    O     O_R   0.397160 0.499980 0.384210 -0.599920
Zn1   Zn    Zn3+2 0.344250 0.499990 0.500020 0.939279
Zn2   Zn    Zn3+2 0.655750 0.500010 0.499980 0.938461

loop_
_geom_bond_atom_site_label_1
_geom_bond_atom_site_label_2
_ccdc_geom_bond_type
C44   H5    S    
C31   H22   S    
C37   H30   S    
C30   H13   S    
C38   H39   S    
C34   C42   S    
C4    C8    S    
C27   H10   S    
C7    C27   S    
C34   C41   S    
C8    C29   S    
C36   C37   S    
C19   C21   A    
C3    C7    S    
C36   H33   S    
C38   C39   S    
C28   H7    S    
C27   H11   S    
C21   C33   S    
C23   C40   S    
C5    C36   S    
C23   C43   S    
C15   C17   A    
C10   O6    A    
C19   C26   S    
C12   C42   S    
C36   H32   S    
C33   H28   S    
C33   C35   S    
C1    C43   S    
C35   H26   S    
C16   H43   S    
C26   H40   S    
C41   H2    S    
C6    C38   S    
C8    N2    S    
C2    H6    S    
C24   H23   S    
O3    Zn2   S    
N2    Zn2   S    
C4    N1    S    
C2    C34   S    
C40   C42   S    
C37   H31   S    
C9    O7    A    
O4    Zn1   S    
C38   H38   S    
C41   C43   S    
C12   O2    A    
C18   C25   S    
C42   C44   S    
N1    Zn1   S    
C14   H1    S    
C4    I2    S    
C29   H17   S    
C23   H3    S    
C17   H42   S    
C22   H34   S    
C4    C6    S    
C39   H37   S    
O1    Zn1   S    
C17   C19   A    
C25   C26   D    
O6    Zn2   S    
C23   C44   S    
C13   C24   A    
C3    N2    S    
C39   H35   S    
C29   C30   S    
C31   C32   S    
C29   H16   S    
C2    C43   S    
C1    O3    A    
C7    N1    S    
C30   H15   S    
C25   H41   S    
C10   O8    A    
C9    C11   S    
C32   H20   S    
C5    N1    S    
C16   C18   A    
C20   C22   A    
C13   C15   A    
C41   C44   S    
C14   C16   A    
C34   H4    S    
C31   H21   S    
C37   H29   S    
C9    O5    A    
C32   H19   S    
C3    C5    S    
C10   C13   S    
C5    C8    S    
C28   H9    S    
C6    C7    S    
C11   C22   A    
C3    I1    S    
C15   H12   S    
C40   H44   S    
C32   H18   S    
C39   H36   S    
C28   H8    S    
C35   H24   S    
C6    N2    S    
C30   H14   S    
O8    Zn1   S    
C11   C14   A    
C18   C20   A    
C33   H27   S    
C2    C40   S    
O7    Zn2   S    
C35   H25   S    
C1    O1    A    
C21   C24   A    
C27   C28   S    
C12   O4    A    
O5    Zn1   S    
O2    Zn2   S    
C20   C31   S    
