data_mof_unit_35542.cif
_audit_creation_date              2012-12-10T20:28:01-0500
_audit_creation_method            fapswitch 2.2
_symmetry_space_group_name_H-M    P1
_symmetry_Int_Tables_number       1
_space_group_crystal_system       triclinic
_cell_length_a                    12.821149
_cell_length_b                    10.700711
_cell_length_c                    9.888587
_cell_angle_alpha                 90.222396
_cell_angle_beta                  97.033959
_cell_angle_gamma                 90.178956
_cell_volume                      1346.43912063

loop_
_atom_site_label
_atom_site_type_symbol
_atom_type_description
_atom_site_fract_x
_atom_site_fract_y
_atom_site_fract_z
_atom_type_partial_charge
C1    C     C_R   0.500281 0.260230 0.499831 0.877719
C2    C     C_R   0.521399 0.935252 0.383017 -0.225763
C3    C     C_R   0.493265 0.871591 0.496721 -0.096264
C4    C     C_R   0.298312 0.499682 0.472990 0.874651
C5    C     C_R   0.453530 0.936447 0.601369 0.125515
C6    C     C_3   0.483148 0.930049 0.752151 -0.475282
C7    C     C_3   0.483380 0.071765 0.752139 -0.477532
C8    C     C_R   0.421922 0.439582 0.058686 0.221401
C9    C     C_R   0.581726 0.548989 0.084996 -0.140189
C10   C     C_R   0.581965 0.548398 0.941325 -0.142318
C11   C     C_R   0.420951 0.442837 0.915917 0.181488
C12   C     C_R   0.027061 0.461096 0.549550 0.194484
C13   C     C_3   0.307902 0.478137 0.893494 -0.524938
C14   C     C_3   0.306934 0.468622 0.046564 -0.110868
C15   C     C_R   0.499788 0.739764 0.499972 0.876591
C16   C     C_R   0.701687 0.500121 0.526639 0.879078
C17   C     C_R   0.813723 0.495187 0.542384 -0.042751
C18   C     C_R   0.186194 0.502765 0.454916 -0.052524
C19   C     C_R   0.024546 0.585149 0.341900 -0.220922
C20   C     C_R   0.132312 0.571225 0.348220 -0.230055
C21   C     C_R   0.133447 0.443576 0.551305 -0.285720
C22   C     C_3   0.234465 0.363360 0.089937 -0.331784
C23   C     C_R   0.972106 0.532315 0.443721 0.190771
C24   C     C_3   0.256071 0.228699 0.043400 -0.377225
C25   C     C_3   0.339156 0.162026 0.140563 -0.803504
C26   C     C_R   0.865487 0.548812 0.441092 -0.286634
C27   C     C_R   0.868043 0.428189 0.649905 -0.212725
C28   C     C_R   0.975170 0.410262 0.652967 -0.227242
C29   C     C_R   0.453763 0.064270 0.601270 0.116485
C30   C     C_R   0.494300 0.128308 0.496877 -0.098785
C31   C     C_R   0.523015 0.063792 0.383828 -0.237274
H1    H     H_    0.822332 0.601741 0.359172 0.142130
H2    H     H_    0.827118 0.385982 0.727873 0.154896
H3    H     H_    0.982874 0.639330 0.260155 0.136418
H4    H     H_    0.017112 0.356553 0.734952 0.134804
H5    H     H_    0.173814 0.616882 0.273020 0.149641
H6    H     H_    0.175630 0.385355 0.628411 0.134471
H7    H     H_    0.551926 0.111952 0.299692 0.171418
H8    H     H_    0.548335 0.886430 0.297628 0.169378
H9    H     H_    0.419384 0.889225 0.804945 0.201468
H10   H     H_    0.417253 0.205827 0.138494 0.261435
H11   H     H_    0.317898 0.164158 0.246113 0.258963
H12   H     H_    0.562352 0.889157 0.781078 0.207487
H13   H     H_    0.344520 0.062928 0.108461 0.233080
H14   H     H_    0.181855 0.174213 0.040463 0.204579
H15   H     H_    0.279261 0.225654 0.939133 0.210088
H16   H     H_    0.235185 0.364863 0.202013 0.222871
H17   H     H_    0.152819 0.387867 0.047421 0.164914
H18   H     H_    0.419780 0.112861 0.804950 0.198740
H19   H     H_    0.562713 0.113076 0.781150 0.210524
H20   H     H_    0.646558 0.591639 0.149282 0.147636
H21   H     H_    0.647106 0.590179 0.897826 0.147398
H22   H     H_    0.296188 0.575159 0.854772 0.199620
H23   H     H_    0.259215 0.407530 0.833333 0.192642
H24   H     H_    0.291460 0.560341 0.093397 0.150090
N1    N     N_R   0.499290 0.499140 0.142710 -0.126516
N2    N     N_R   0.499290 0.499180 0.857070 -0.106076
O1    O     O_R   0.500010 0.316790 0.614690 -0.617194
O2    O     O_R   0.500000 0.316760 0.385350 -0.621982
O3    O     O_R   0.346360 0.499990 0.595720 -0.613428
O4    O     O_R   0.346350 0.499960 0.366370 -0.635968
O5    O     O_R   0.500000 0.683240 0.614650 -0.615321
O6    O     O_R   0.499990 0.683210 0.385310 -0.625706
O7    O     O_R   0.653650 0.500040 0.633630 -0.629254
O8    O     O_R   0.653640 0.500010 0.404280 -0.622985
Zn1   Zn    Zn3+2 0.500010 0.500020 0.653130 0.938509
Zn2   Zn    Zn3+2 0.499990 0.499980 0.346870 0.933348

loop_
_geom_bond_atom_site_label_1
_geom_bond_atom_site_label_2
_ccdc_geom_bond_type
C25   H11   S    
C22   H17   S    
C26   H1    S    
C6    C7    S    
C7    C29   S    
C2    C3    A    
C18   C21   A    
C9    C10   A    
O4    Zn2   S    
C13   H22   S    
C19   C20   A    
C9    H20   S    
C31   H7    S    
N2    Zn1   S    
C4    C18   S    
C8    N1    A    
C14   H24   S    
C10   H21   S    
N1    Zn2   S    
C11   N2    A    
C13   C14   S    
C27   H2    S    
C11   C13   S    
C12   C23   A    
C4    O3    A    
C29   C30   A    
C12   C21   A    
C12   C28   A    
C8    C11   A    
C17   C26   A    
C2    H8    S    
C22   C24   S    
C1    C30   S    
C15   O5    A    
C22   H16   S    
C18   C20   A    
C6    H12   S    
C1    O2    A    
C25   H13   S    
C5    C6    S    
C10   N2    A    
O6    Zn2   S    
C16   C17   S    
C24   H14   S    
O3    Zn1   S    
C17   C27   A    
C5    C29   A    
C19   C23   A    
C6    H9    S    
C3    C15   S    
C24   C25   S    
C7    H18   S    
C21   H6    S    
C14   C22   S    
C13   H23   S    
C23   C26   A    
C25   H10   S    
C27   C28   A    
C9    N1    A    
O5    Zn1   S    
C30   C31   A    
C2    C31   A    
C15   O6    A    
C16   O8    A    
C16   O7    A    
O2    Zn2   S    
C1    O1    A    
C28   H4    S    
O8    Zn2   S    
C4    O4    A    
O1    Zn1   S    
C8    C14   S    
C7    H19   S    
O7    Zn1   S    
C24   H15   S    
C3    C5    A    
C19   H3    S    
C20   H5    S    
