data_mof_unit_37810.cif
_audit_creation_date              2012-12-10T16:48:43-0500
_audit_creation_method            fapswitch 2.2
_symmetry_space_group_name_H-M    P1
_symmetry_Int_Tables_number       1
_space_group_crystal_system       triclinic
_cell_length_a                    17.220122
_cell_length_b                    8.683406
_cell_length_c                    7.504041
_cell_angle_alpha                 103.225409
_cell_angle_beta                  91.21482
_cell_angle_gamma                 93.969946
_cell_volume                      1088.90001118

loop_
_atom_site_label
_atom_site_type_symbol
_atom_type_description
_atom_site_fract_x
_atom_site_fract_y
_atom_site_fract_z
_atom_type_partial_charge
C1    C     C_R   0.497549 0.199760 0.453399 0.889981
C2    C     C_R   0.502451 0.800240 0.546601 0.889981
C3    C     C_2   0.496286 0.031479 0.427642 -0.343010
C4    C     C_2   0.503714 0.968521 0.572358 -0.343010
C5    C     C_R   0.350998 0.497009 0.523565 0.805474
C6    C     C_R   0.649002 0.502991 0.476435 0.805474
C7    C     C_R   0.266219 0.480901 0.532599 -0.036288
C8    C     C_R   0.733781 0.519099 0.467401 -0.036288
C9    C     C_R   0.221032 0.426158 0.369477 -0.232808
C10   C     C_R   0.778968 0.573843 0.630523 -0.232808
C11   C     C_R   0.140278 0.411646 0.372696 0.016137
C12   C     C_R   0.859722 0.588354 0.627305 0.016137
C13   C     C_R   0.103898 0.455192 0.541505 0.125303
C14   C     C_R   0.896103 0.544809 0.458495 0.125302
C15   C     C_R   0.148957 0.502024 0.705113 -0.140559
C16   C     C_R   0.851042 0.497976 0.294887 -0.140560
C17   C     C_R   0.229883 0.515164 0.700940 -0.181125
C18   C     C_R   0.770117 0.484837 0.299060 -0.181124
C19   C     C_2   0.019442 0.460530 0.551232 -0.203019
C20   C     C_2   0.980558 0.539471 0.448768 -0.203019
Cu1   Cu    Cu3+1 0.508700 0.517250 0.683000 0.956713
Cu2   Cu    Cu3+1 0.491300 0.482750 0.317000 0.956713
H1    H     H_    0.248546 0.393713 0.238839 0.162761
H2    H     H_    0.751454 0.606287 0.761161 0.162761
H3    H     H_    0.736216 0.445097 0.171509 0.156496
H4    H     H_    0.263784 0.554903 0.828491 0.156496
H5    H     H_    0.010227 0.592700 0.348684 0.171121
H6    H     H_    0.989773 0.407301 0.651316 0.171121
H7    H     H_    0.121357 0.533702 0.835579 0.157993
H8    H     H_    0.878643 0.466298 0.164421 0.157993
H9    H     H_    0.489213 0.959129 0.288573 0.177100
H10   H     H_    0.510787 0.040871 0.711427 0.177100
N1    N     N_2   0.478180 0.456750 0.041980 -0.215565
N2    N     N_2   0.521820 0.543250 0.958020 -0.215565
O1    O     O_R   0.505650 0.286040 0.618880 -0.587782
O2    O     O_R   0.494350 0.713960 0.381120 -0.587782
O3    O     O_R   0.490960 0.256910 0.309800 -0.597670
O4    O     O_R   0.509040 0.743090 0.690200 -0.597670
O5    O     O_R   0.394600 0.516230 0.672450 -0.595955
O6    O     O_R   0.605400 0.483770 0.327550 -0.595956
O7    O     O_R   0.379910 0.487100 0.363380 -0.601894
O8    O     O_R   0.620090 0.512900 0.636620 -0.601893
C21   C     C_1   0.903546 0.651376 0.798031 0.223180
N3    N     N_1   0.938585 0.701760 0.934734 -0.285626
C22   C     C_1   0.096454 0.348624 0.201969 0.223180
N4    N     N_1   0.061414 0.298240 0.065266 -0.285626
C23   C     C_1   0.422145 0.348168 0.939694 0.535065
N5    N     N_1   0.375019 0.256827 0.856440 -0.356023
C24   C     C_1   0.577855 0.651832 0.060306 0.535065
N6    N     N_1   0.624981 0.743173 0.143560 -0.356023

loop_
_geom_bond_atom_site_label_1
_geom_bond_atom_site_label_2
_ccdc_geom_bond_type
C2    C4    S    
C21   N3    T    
C15   C17   A    
Cu1   O1    S    
C20   H5    S    
C14   C20   S    
C11   C13   A    
C2    O4    A    
C19   C20   D    
Cu1   O5    S    
C1    O3    A    
Cu2   O6    S    
C5    O5    A    
N1    N2    D    
C22   N4    T    
C3    H9    S    
C19   H6    S    
C9    C11   A    
C4    H10   S    
C18   H3    S    
C10   C12   A    
C17   H4    S    
C16   C18   A    
C12   C14   A    
C15   H7    S    
C12   C21   S    
C6    O6    A    
C13   C15   A    
N1    C23   S    
C14   C16   A    
C11   C22   S    
Cu2   O7    S    
C13   C19   S    
C16   H8    S    
Cu1   O8    S    
C23   N5    T    
C7    C9    A    
Cu2   O2    S    
C1    O1    A    
C8    C10   A    
C24   N6    T    
C6    O8    A    
C2    O2    A    
C5    C7    S    
Cu2   N1    S    
C5    O7    A    
C9    H1    S    
N2    C24   S    
C6    C8    S    
Cu1   N2    S    
C10   H2    S    
Cu1   Cu2   S    
Cu2   O3    S    
C8    C18   A    
Cu1   O4    S    
C3    C4    D    
C1    C3    S    
C7    C17   A    
