data_mof_unit_10646.cif
_audit_creation_date              2012-12-11T14:23:06-0500
_audit_creation_method            fapswitch 2.2
_symmetry_space_group_name_H-M    P1
_symmetry_Int_Tables_number       1
_space_group_crystal_system       triclinic
_cell_length_a                    11.056169
_cell_length_b                    10.898995
_cell_length_c                    18.887183
_cell_angle_alpha                 89.586379
_cell_angle_beta                  89.169701
_cell_angle_gamma                 60.393926
_cell_volume                      1978.5799426

loop_
_atom_site_label
_atom_site_type_symbol
_atom_type_description
_atom_site_fract_x
_atom_site_fract_y
_atom_site_fract_z
_atom_type_partial_charge
C1    C     C_R   0.237462 0.644933 0.610413 0.535667
C2    C     C_R   0.552828 0.199319 0.719358 -0.140264
C3    C     C_R   0.563992 0.195290 0.791273 -0.177153
C4    C     C_R   0.653401 0.622202 0.600994 0.550553
C5    C     C_R   0.925516 0.132753 0.810871 -0.097993
C6    C     C_R   0.037606 0.109876 0.767549 -0.146522
C7    C     C_R   0.030886 0.099299 0.694668 -0.141485
C8    C     C_R   0.911258 0.113493 0.664323 -0.084338
C9    C     C_R   0.664224 0.177313 0.675648 -0.004404
C10   C     C_R   0.187554 0.661845 0.835763 -0.013384
C11   C     C_R   0.195498 0.544867 0.799081 0.020331
C12   C     C_3   0.587130 0.632903 0.802103 -0.124151
C13   C     C_R   0.188230 0.547896 0.723942 0.012450
C14   C     C_R   0.208586 0.759769 0.725005 -0.156108
C15   C     C_R   0.204057 0.762467 0.797911 -0.157947
C16   C     C_R   0.627662 0.228008 0.602727 0.541870
C17   C     C_R   0.209865 0.425157 0.835427 -0.101450
C18   C     C_R   0.203361 0.317710 0.799862 -0.150589
C19   C     C_R   0.181067 0.327793 0.727403 -0.142742
C20   C     C_R   0.172064 0.442045 0.689685 -0.111023
C21   C     C_R   0.198472 0.655892 0.686336 -0.007083
C22   C     C_R   0.671638 0.645546 0.168769 0.017891
C23   C     C_3   0.702217 0.674659 0.811783 0.045179
C24   C     C_R   0.789942 0.557774 0.211889 0.013255
C25   C     C_R   0.783973 0.588908 0.284007 0.015424
C26   C     C_R   0.533165 0.705140 0.274908 -0.178297
C27   C     C_R   0.540105 0.709632 0.200817 -0.021541
C28   C     C_R   0.286873 0.623702 0.392384 0.551891
C29   C     C_R   0.911183 0.435686 0.187055 -0.093754
C30   C     C_R   0.029275 0.367859 0.228973 -0.154268
C31   C     C_R   0.030975 0.422496 0.294936 -0.112872
C32   C     C_R   0.908918 0.533788 0.322487 -0.071901
C33   C     C_R   0.652802 0.655143 0.317154 -0.011738
C34   C     C_3   0.670914 0.648512 0.676326 0.022616
C35   C     C_R   0.634555 0.158742 0.176521 -0.011275
C36   C     C_R   0.570851 0.103299 0.223462 0.024184
C37   C     C_R   0.597835 0.098839 0.296069 0.015580
C38   C     C_R   0.681019 0.265053 0.275297 -0.152778
C39   C     C_R   0.679091 0.248119 0.202740 -0.193827
C40   C     C_R   0.641327 0.623167 0.391775 0.523216
C41   C     C_R   0.470184 0.066024 0.202862 -0.095456
C42   C     C_R   0.403525 0.026024 0.253288 -0.151552
C43   C     C_R   0.449523 0.000653 0.322624 -0.114136
C44   C     C_R   0.554175 0.026517 0.342644 -0.080358
C45   C     C_3   0.825784 0.555489 0.697255 -0.255374
C46   C     C_R   0.647587 0.184997 0.322037 0.012086
C47   C     C_R   0.106993 0.696443 0.190968 0.020696
C48   C     C_R   0.079173 0.811616 0.235644 -0.007704
C49   C     C_R   0.164403 0.789999 0.292775 0.023129
C50   C     C_R   0.266360 0.535299 0.276966 -0.156811
C51   C     C_R   0.210164 0.557975 0.209418 -0.009876
C52   C     C_R   0.616328 0.232649 0.394521 0.526527
C53   C     C_R   0.979622 0.951129 0.218948 -0.077291
C54   C     C_R   0.991490 0.064816 0.242957 -0.108726
C55   C     C_R   0.085238 0.044399 0.294570 -0.149301
C56   C     C_3   0.584636 0.599473 0.722621 -0.221610
C57   C     C_R   0.170275 0.909704 0.319463 -0.100461
C58   C     C_R   0.240366 0.649808 0.319680 -0.016296
C59   C     C_R   0.703412 0.102290 0.896041 0.525323
C60   C     C_R   0.727641 0.689988 0.887138 0.557161
C61   C     C_R   0.121012 0.703997 0.906326 0.539575
C62   C     C_R   0.672752 0.105528 0.104308 0.520232
C63   C     C_R   0.697709 0.684745 0.097054 0.586496
C64   C     C_3   0.654873 0.817793 0.772143 -0.249201
C65   C     C_R   0.050582 0.732245 0.120037 0.541059
C66   C     C_3   0.627962 0.805237 0.692706 -0.101685
C67   C     C_R   0.689692 0.160017 0.823906 -0.022686
C68   C     C_3   0.842020 0.564617 0.776600 -0.228133
C69   C     C_2   0.410624 0.767672 0.159004 0.203928
C70   C     C_2   0.478267 0.908362 0.675162 0.223665
C71   C     C_3   0.263704 0.434505 0.158912 -0.236362
C72   C     C_3   0.348593 0.446567 0.096580 -0.266292
C73   C     C_3   0.337744 0.370812 0.031383 -0.430712
C74   C     C_3   0.602039 0.509329 0.849828 -0.273664
C75   C     C_3   0.537817 0.556007 0.924791 -0.279174
C76   C     C_3   0.629108 0.452232 0.981585 -0.421615
C77   C     C_R   0.803179 0.145562 0.781515 0.017751
C78   C     C_R   0.792825 0.145477 0.706376 0.016531
Cr1   Cr    Cr6+3 0.392940 0.397950 0.502230 1.024809
Cr2   Cr    Cr6+3 0.398400 0.708500 0.501260 1.020919
Cr3   Cr    Cr6+3 0.708640 0.393530 0.496460 1.003609
Cr4   Cr    Cr6+3 0.937880 0.938320 0.007620 1.003857
Cr5   Cr    Cr6+3 0.625560 0.937220 0.994510 1.002150
Cr6   Cr    Cr6+3 0.938080 0.625010 0.001190 0.968588
H1    H     H_    0.736940 0.848360 0.776273 0.125926
H2    H     H_    0.914467 0.095654 0.607970 0.139273
H3    H     H_    0.227131 0.837021 0.698820 0.140570
H4    H     H_    0.560104 0.904028 0.798153 0.134472
H5    H     H_    0.232608 0.410181 0.891010 0.115429
H6    H     H_    0.207935 0.847703 0.824826 0.135434
H7    H     H_    0.218092 0.225978 0.829074 0.100456
H8    H     H_    0.174826 0.245245 0.699603 0.135527
H9    H     H_    0.148605 0.446859 0.634186 0.143704
H10   H     H_    0.434459 0.738692 0.299933 0.108979
H11   H     H_    0.914104 0.387403 0.136755 0.127571
H12   H     H_    0.627512 0.484055 0.714479 0.136103
H13   H     H_    0.120604 0.274364 0.209511 0.095974
H14   H     H_    0.124526 0.373756 0.326235 0.126086
H15   H     H_    0.910075 0.569260 0.375761 0.133183
H16   H     H_    0.709809 0.340218 0.294845 0.154356
H17   H     H_    0.426490 0.083866 0.150795 0.154292
H18   H     H_    0.715820 0.301458 0.167136 0.110176
H19   H     H_    0.318552 0.011277 0.237620 0.103701
H20   H     H_    0.404131 0.962877 0.361733 0.119623
H21   H     H_    0.588032 0.005637 0.397110 0.136179
H22   H     H_    0.334895 0.428811 0.295455 0.134452
H23   H     H_    0.881362 0.458363 0.800618 0.147372
H24   H     H_    0.898975 0.969342 0.183872 0.155047
H25   H     H_    0.695380 0.833823 0.660208 0.140907
H26   H     H_    0.932155 0.168108 0.220429 0.126802
H27   H     H_    0.094854 0.131894 0.314518 0.122412
H28   H     H_    0.246056 0.903759 0.355919 0.142729
H29   H     H_    0.922053 0.596182 0.785322 0.155266
H30   H     H_    0.890285 0.591426 0.667624 0.116488
H31   H     H_    0.484584 0.726699 0.815093 0.123338
H32   H     H_    0.475790 0.650907 0.704584 0.121448
H33   H     H_    0.310557 0.825802 0.185073 0.125441
H34   H     H_    0.866444 0.442187 0.684197 0.165658
H35   H     H_    0.394488 0.908263 0.705576 0.080966
H36   H     H_    0.356976 0.263749 0.044850 0.167601
H37   H     H_    0.231162 0.429630 0.010393 0.172606
H38   H     H_    0.412652 0.363674 0.989737 0.140833
H39   H     H_    0.313085 0.557858 0.081971 0.218516
H40   H     H_    0.458729 0.400706 0.111738 0.154401
H41   H     H_    0.330263 0.335731 0.187416 0.129557
H42   H     H_    0.176015 0.422992 0.139575 0.173469
H43   H     H_    0.641137 0.346483 0.972190 0.146047
H44   H     H_    0.733497 0.443379 0.981411 0.177658
H45   H     H_    0.453033 0.224896 0.698148 0.193944
H46   H     H_    0.580611 0.489820 0.034559 0.168815
H47   H     H_    0.520014 0.662386 0.938469 0.206789
H48   H     H_    0.434028 0.563173 0.926809 0.149735
H49   H     H_    0.546546 0.459495 0.824879 0.147070
H50   H     H_    0.713006 0.426456 0.852448 0.159379
H51   H     H_    0.935251 0.145289 0.866693 0.137766
H52   H     H_    0.474178 0.211085 0.821661 0.155124
H53   H     H_    0.132518 0.094193 0.790882 0.091754
H54   H     H_    0.120217 0.076048 0.661421 0.122543
O1    O     O_R   0.507340 0.255690 0.581430 -0.488499
O2    O     O_R   0.837290 0.593240 0.915240 -0.534642
O3    O     O_R   0.065320 0.635310 0.931580 -0.518908
O4    O     O_R   0.280360 0.527380 0.578910 -0.508728
O5    O     O_R   0.068470 0.828620 0.091850 -0.505903
O6    O     O_R   0.799150 0.057200 0.079350 -0.529421
O7    O     O_R   0.585220 0.080180 0.076770 -0.544698
O8    O     O_R   0.627170 0.809480 0.067050 -0.454515
O9    O     O_R   0.816200 0.596410 0.076500 -0.559397
O10   O     O_R   0.045770 0.638240 0.081070 -0.515562
O11   O     O_3   0.833840 0.833520 0.001110 -0.254784
O12   O     O_R   0.524510 0.695820 0.424050 -0.529779
O13   O     O_R   0.260600 0.739610 0.584580 -0.519746
O14   O     O_R   0.532370 0.695050 0.573830 -0.476138
O15   O     O_R   0.744850 0.503430 0.576380 -0.531766
O16   O     O_R   0.699080 0.276500 0.571950 -0.516555
O17   O     O_R   0.498860 0.256520 0.419860 -0.529906
O18   O     O_R   0.272490 0.528150 0.429140 -0.497806
O19   O     O_R   0.252110 0.740440 0.423010 -0.531264
O20   O     O_2   0.413436 0.748389 0.095290 -0.531725
O21   O     O_2   0.450389 0.994098 0.627492 -0.517147
O22   O     O_R   0.736370 0.504260 0.414810 -0.519959
O23   O     O_R   0.691220 0.277270 0.422180 -0.503232
O24   O     O_3   0.499990 0.499990 0.499980 -0.276406
O25   O     O_R   0.089570 0.825450 0.930590 -0.507555
O26   O     O_R   0.818700 0.054260 0.929860 -0.512123
O27   O     O_R   0.606310 0.077010 0.915520 -0.535054
O28   O     O_R   0.646730 0.806540 0.917560 -0.512564

loop_
_geom_bond_atom_site_label_1
_geom_bond_atom_site_label_2
_ccdc_geom_bond_type
C45   H34   S    
C26   H10   S    
Cr2   O13   S    
Cr1   O1    S    
C20   H9    S    
C34   C56   S    
C12   C74   S    
C41   C42   A    
C35   C39   A    
C19   C20   A    
C67   C77   A    
C75   C76   S    
C42   H19   S    
C34   C66   S    
Cr3   O15   S    
C7    C8    A    
C66   C70   S    
C77   C78   A    
C52   O17   A    
C1    C21   S    
Cr5   O27   S    
C30   H13   S    
C26   C27   A    
C18   H7    S    
C14   C21   A    
C47   C65   S    
C36   C37   A    
C9    C16   S    
C14   H3    S    
C3    H52   S    
C10   C15   A    
C30   C31   A    
C65   O5    A    
Cr1   O4    S    
Cr4   O25   S    
C74   H49   S    
C46   C52   S    
C2    H45   S    
C49   C57   A    
C54   H26   S    
C5    H51   S    
C70   O21   D    
Cr3   O24   S    
C31   H14   S    
C43   H20   S    
C1    O4    A    
C59   C67   S    
Cr1   O18   S    
Cr5   O7    S    
C76   H46   S    
C45   H30   S    
C11   C17   A    
C35   C36   A    
C41   H17   S    
C62   O7    A    
C71   H42   S    
C59   O26   A    
C68   H23   S    
C63   O8    A    
C27   C69   S    
C68   H29   S    
C72   C73   S    
C12   H31   S    
Cr6   O11   S    
C25   C32   A    
C4    O15   A    
C22   C63   S    
Cr3   O22   S    
C72   H40   S    
C8    C78   A    
C36   C41   A    
C23   C60   S    
C51   C71   S    
C63   O9    A    
C75   H47   S    
C19   H8    S    
C50   C51   A    
Cr6   O10   S    
C48   C53   A    
C4    O14   A    
Cr5   O28   S    
C4    C34   S    
C33   C40   S    
C74   C75   S    
C13   C21   A    
C50   C58   A    
C47   C48   A    
C17   H5    S    
C24   C25   A    
C38   H16   S    
C29   H11   S    
C18   C19   A    
C47   C51   A    
C44   H21   S    
C60   O28   A    
Cr3   O16   S    
C38   C39   A    
C23   C68   S    
Cr2   O12   S    
C43   C44   A    
C29   C30   A    
Cr5   O8    S    
C26   C33   A    
C31   C32   A    
C12   C23   S    
C70   H35   S    
C28   O18   A    
C45   C68   S    
C17   C18   A    
C56   H32   S    
C40   O12   A    
C34   C45   S    
C65   O10   A    
Cr2   O24   S    
C12   C56   S    
C60   O2    A    
Cr4   O6    S    
C23   C64   S    
C73   H37   S    
C22   C27   A    
C55   C57   A    
C72   H39   S    
C16   O16   A    
C76   H44   S    
C22   C24   A    
C10   C61   S    
C42   C43   A    
Cr1   O24   S    
C5    C77   A    
C64   H1    S    
C75   H48   S    
C39   H18   S    
C50   H22   S    
Cr6   O9    S    
C61   O3    A    
Cr2   O14   S    
C54   C55   A    
C48   C49   A    
C13   C20   A    
C55   H27   S    
C61   O25   A    
Cr3   O23   S    
C40   O22   A    
C3    C67   A    
C62   O6    A    
Cr4   O5    S    
C59   O27   A    
C7    H54   S    
C53   C54   A    
C6    C7    A    
C28   C58   S    
C52   O23   A    
C32   H15   S    
C6    H53   S    
C2    C3    A    
C71   C72   S    
C15   H6    S    
C11   C13   A    
C53   H24   S    
Cr2   O19   S    
C5    C6    A    
Cr4   O26   S    
Cr6   O3    S    
C37   C44   A    
C74   H50   S    
C69   H33   S    
C28   O19   A    
C69   O20   D    
C1    O13   A    
C35   C62   S    
C8    H2    S    
C9    C78   A    
C66   H25   S    
C56   H12   S    
C38   C46   A    
Cr4   O11   S    
C10   C11   A    
C49   C58   A    
Cr1   O17   S    
C57   H28   S    
C24   C29   A    
Cr6   O2    S    
C73   H38   S    
C25   C33   A    
C16   O1    A    
C73   H36   S    
C76   H43   S    
C14   C15   A    
C71   H41   S    
C37   C46   A    
C2    C9    A    
C64   H4    S    
C64   C66   S    
Cr5   O11   S    
