data_mof_unit_45449.cif
_audit_creation_date              2012-12-11T16:34:07-0500
_audit_creation_method            fapswitch 2.2
_symmetry_space_group_name_H-M    P1
_symmetry_Int_Tables_number       1
_space_group_crystal_system       triclinic
_cell_length_a                    8.312337
_cell_length_b                    17.3028
_cell_length_c                    27.082974
_cell_angle_alpha                 94.777433
_cell_angle_beta                  92.605352
_cell_angle_gamma                 84.119987
_cell_volume                      3858.61888618

loop_
_atom_site_label
_atom_site_type_symbol
_atom_type_description
_atom_site_fract_x
_atom_site_fract_y
_atom_site_fract_z
_atom_type_partial_charge
Ba1   Ba    Ba6+2 0.856110 0.463800 0.523550 1.650114
Ba2   Ba    Ba6+2 0.333710 0.536130 0.476450 1.642686
C1    C     C_3   0.679990 0.171740 0.644431 -0.367244
C2    C     C_3   0.639493 0.255811 0.632394 0.351311
C3    C     C_3   0.455234 0.770232 0.621216 0.523056
C4    C     C_3   0.552765 0.839094 0.639317 -0.213391
C5    C     C_3   0.066274 0.703278 0.339676 0.281051
C6    C     C_3   0.105859 0.722443 0.288092 -0.311041
C7    C     C_3   0.544862 0.738359 0.366310 0.378363
C8    C     C_3   0.531367 0.820644 0.349095 -0.020236
C9    C     C_R   0.016466 0.447811 0.182498 0.588743
C10   C     C_R   0.937861 0.585011 0.182113 0.570177
C11   C     C_2   0.747918 0.534089 0.270493 0.034468
C12   C     C_3   0.122286 0.290757 0.655757 0.421170
C13   C     C_3   0.706359 0.528551 0.324349 -0.052830
C14   C     C_1   0.989125 0.495788 0.344955 0.071217
C15   C     C_2   0.031148 0.497298 0.298114 -0.133517
C16   C     C_2   0.906313 0.518640 0.257963 0.218804
C17   C     C_R   0.044942 0.513422 0.107053 -0.115093
C18   C     C_R   0.064262 0.444516 0.132438 -0.049490
C19   C     C_R   0.129688 0.374443 0.106763 0.212637
C20   C     C_R   0.984695 0.584131 0.132503 -0.023029
C21   C     C_2   0.851955 0.533864 0.359304 -0.301160
C22   C     C_2   0.353532 0.489999 0.645155 -0.276136
C23   C     C_3   0.136308 0.261871 0.707988 0.115658
C24   C     C_R   0.155663 0.436846 0.977470 0.029074
C25   C     C_R   0.121487 0.580103 0.981309 0.018611
C26   C     C_R   0.155810 0.507199 0.953909 0.050816
C27   C     C_R   0.176083 0.365636 0.947810 -0.107098
C28   C     C_R   0.203464 0.363635 0.897423 -0.068612
C29   C     C_R   0.213397 0.432455 0.874322 -0.025832
C30   C     C_R   0.190627 0.504427 0.902455 -0.084054
C31   C     C_R   0.203748 0.573376 0.879252 -0.046772
C32   C     C_R   0.243571 0.569050 0.828491 0.600990
C33   C     C_R   0.245501 0.430190 0.823525 0.559606
C34   C     C_3   0.142527 0.285917 0.406588 0.463987
C35   C     C_2   0.437794 0.453165 0.731338 -0.019817
C36   C     C_3   0.452862 0.432606 0.675801 -0.052131
C37   C     C_1   0.211908 0.522045 0.661072 0.001766
C38   C     C_2   0.174808 0.527707 0.709490 0.110269
C39   C     C_2   0.296122 0.492438 0.747677 0.232530
C40   C     C_R   0.132420 0.439650 0.029492 -0.005842
C41   C     C_R   0.084479 0.511736 0.055989 0.045477
C42   C     C_R   0.074574 0.582064 0.031702 0.027139
C43   C     C_R   0.159153 0.372554 0.056160 -0.132820
C44   C     C_R   0.970538 0.652651 0.107677 -0.061905
C45   C     C_3   0.038319 0.217409 0.397463 -0.316959
C46   C     C_R   0.135853 0.648448 0.957095 -0.101943
C47   C     C_R   0.177678 0.644988 0.907447 -0.067255
C48   C     C_R   0.015727 0.651891 0.058670 -0.102990
C49   C     C_R   0.406602 0.276805 0.517753 -0.298962
C50   C     C_R   0.550277 0.253718 0.493836 0.084772
C51   C     C_R   0.605559 0.174789 0.486988 -0.127130
C52   C     C_R   0.516406 0.118385 0.503724 0.005528
C53   C     C_R   0.367181 0.141150 0.526891 0.009670
C54   C     C_R   0.312132 0.221801 0.533163 0.023116
C55   C     C_R   0.590624 0.834884 0.505706 -0.134658
C56   C     C_3   0.995102 0.698175 0.576970 0.326628
C57   C     C_R   0.644072 0.755457 0.503678 0.001130
C58   C     C_R   0.875316 0.778357 0.457479 0.016251
C59   C     C_R   0.823955 0.858513 0.460108 -0.134310
C60   C     C_R   0.679995 0.886708 0.483950 0.009858
C61   C     C_1   0.627133 0.968963 0.489382 -0.011336
C62   C     C_1   0.578116 0.037146 0.495507 -0.005624
C63   C     C_R   0.781337 0.727203 0.477493 -0.264901
C64   C     C_3   0.981937 0.786355 0.587374 -0.408892
C65   C     C_3   0.692236 0.367661 0.374321 0.281154
C66   C     C_3   0.720657 0.338758 0.320331 -0.380908
H1    H     H_    0.674355 0.259682 0.593642 0.056496
H2    H     H_    0.047968 0.190561 0.358897 0.095262
H3    H     H_    0.075497 0.172735 0.424050 0.076325
H4    H     H_    0.910043 0.236679 0.402228 0.132065
H5    H     H_    0.874164 0.679360 0.567317 0.002521
H6    H     H_    0.076641 0.681690 0.545704 0.080921
H7    H     H_    0.899518 0.804358 0.618137 0.119949
H8    H     H_    0.935981 0.816034 0.554170 0.068468
H9    H     H_    0.101946 0.806104 0.598498 0.115579
H10   H     H_    0.805086 0.387165 0.391809 0.026611
H11   H     H_    0.594804 0.416545 0.376108 0.056698
H12   H     H_    0.806130 0.151715 0.634344 0.147148
H13   H     H_    0.796910 0.282093 0.318321 0.139831
H14   H     H_    0.784487 0.379982 0.301314 0.089822
H15   H     H_    0.603027 0.330780 0.300400 0.103974
H16   H     H_    0.506678 0.270463 0.635230 -0.061881
H17   H     H_    0.597640 0.134123 0.622551 0.061187
H18   H     H_    0.372889 0.792371 0.591024 -0.025097
H19   H     H_    0.467691 0.892321 0.647097 0.059919
H20   H     H_    0.629324 0.851440 0.608946 0.067017
H21   H     H_    0.665685 0.166288 0.684520 0.118604
H22   H     H_    0.139431 0.648413 0.347643 0.107898
H23   H     H_    0.935704 0.694612 0.340253 -0.015837
H24   H     H_    0.224872 0.746177 0.288805 0.140723
H25   H     H_    0.112848 0.668625 0.262789 0.120967
H26   H     H_    0.011658 0.766092 0.273880 0.126385
H27   H     H_    0.670340 0.722923 0.380579 -0.076299
H28   H     H_    0.458698 0.738673 0.396570 0.056828
H29   H     H_    0.547566 0.863039 0.381635 0.029354
H30   H     H_    0.013069 0.332801 0.653072 0.088624
H31   H     H_    0.408191 0.834218 0.332352 0.102495
H32   H     H_    0.153797 0.477695 0.287637 0.125199
H33   H     H_    0.217674 0.307307 0.876537 0.113499
H34   H     H_    0.166144 0.310157 0.962228 0.065629
H35   H     H_    0.211238 0.317744 0.039025 0.064568
H36   H     H_    0.924117 0.707809 0.126215 0.115994
H37   H     H_    0.119749 0.705837 0.976040 0.066125
H38   H     H_    0.229320 0.322115 0.649879 -0.125886
H39   H     H_    0.188029 0.699166 0.891013 0.115602
H40   H     H_    0.997977 0.706950 0.042306 0.065160
H41   H     H_    0.842688 0.564729 0.395787 0.075434
H42   H     H_    0.411237 0.515009 0.616263 0.081194
H43   H     H_    0.482831 0.856703 0.525472 0.056100
H44   H     H_    0.897264 0.898489 0.445008 0.075608
H45   H     H_    0.715694 0.157214 0.467298 0.077282
H46   H     H_    0.363402 0.338069 0.521910 0.074256
H47   H     H_    0.105894 0.314639 0.733153 0.094632
H48   H     H_    0.822078 0.665651 0.475970 0.058724
H49   H     H_    0.115184 0.314625 0.443942 0.041620
N1    N     N_R   0.955137 0.517428 0.206693 -0.430558
N2    N     N_R   0.259838 0.497865 0.800620 -0.417798
O1    O     O_2   0.910880 0.540430 0.617910 -0.440429
O2    O     O_3   0.645616 0.305491 0.397818 -0.659200
O3    O     O_3   0.109707 0.228079 0.620176 -0.618677
O4    O     O_2   0.278810 0.459550 0.382060 -0.470588
O5    O     O_3   0.046820 0.459570 0.442260 -0.493793
O6    O     O_3   0.514050 0.597710 0.411540 -0.477186
O7    O     O_3   0.109899 0.337201 0.368946 -0.642082
O8    O     O_3   0.627090 0.591350 0.524530 -0.443039
O9    O     O_3   0.103080 0.636600 0.435820 -0.492330
O10   O     O_2   0.209315 0.774057 0.466053 -0.488083
O11   O     O_3   0.104972 0.764292 0.374142 -0.613929
O12   O     O_3   0.142880 0.540370 0.557740 -0.478814
O13   O     O_3   0.562610 0.408580 0.475460 -0.480202
O14   O     O_2   0.365880 0.685750 0.523280 -0.459865
O15   O     O_3   0.559706 0.703936 0.604682 -0.634550
O16   O     O_2   0.370331 0.556678 0.325818 -0.511141
O17   O     O_3   0.505302 0.685404 0.326550 -0.599608
O18   O     O_2   0.025147 0.388363 0.204245 -0.574637
O19   O     O_2   0.264597 0.367214 0.799796 -0.639909
O20   O     O_2   0.879500 0.645888 0.203258 -0.605755
O21   O     O_2   0.263823 0.628548 0.809270 -0.601043
O22   O     O_3   0.675650 0.402220 0.588450 -0.465942
O23   O     O_2   0.795324 0.449841 0.675870 -0.502728
O24   O     O_3   0.055320 0.664799 0.620026 -0.631563
O25   O     O_3   0.725595 0.305437 0.665327 -0.597344
O26   O     O_2   0.823810 0.314230 0.476690 -0.471620
O27   O     O_3   0.086630 0.363340 0.564170 -0.489715
O28   O     O_2   0.975197 0.226165 0.532414 -0.490250
P1    P     P_3+3 0.078810 0.562990 0.610370 1.016348
P2    P     P_3+3 0.645380 0.325580 0.462150 0.968262
P3    P     P_3+3 0.119393 0.260774 0.561190 0.935418
P4    P     P_3+3 0.110900 0.436950 0.389630 0.980495
P5    P     P_3+3 0.073107 0.738431 0.433751 0.926541
P6    P     P_3+3 0.661749 0.401342 0.652186 0.941441
P7    P     P_3+3 0.549364 0.688123 0.539638 0.961419
P8    P     P_3+3 0.525147 0.591372 0.347069 0.944214
N3    N     N_2   0.351649 0.751088 0.659620 -0.420220
H50   H     H_    0.283213 0.798012 0.676794 0.162323
C67   C     C_3   0.409172 0.690593 0.691946 -0.128619
H51   H     H_    0.307354 0.677153 0.713800 0.133240
H52   H     H_    0.505568 0.709534 0.718263 0.089560
H53   H     H_    0.455375 0.636516 0.670208 0.101850
C68   C     C_3   0.660573 0.825700 0.685646 -0.389437
H54   H     H_    0.586152 0.831462 0.719019 0.123497
H55   H     H_    0.730810 0.767409 0.682250 0.151584
H56   H     H_    0.746845 0.870883 0.690711 0.111411
C69   C     C_3   0.310808 0.229583 0.721430 -0.343274
H57   H     H_    0.393464 0.275796 0.720500 0.118398
H58   H     H_    0.318024 0.209612 0.759455 0.138766
H59   H     H_    0.353297 0.180372 0.694708 0.101220
N4    N     N_2   0.653286 0.827063 0.313530 -0.390467
H60   H     H_    0.769706 0.816517 0.327874 0.201953
C70   C     C_3   0.631054 0.897272 0.287573 -0.212206
H61   H     H_    0.725760 0.895252 0.259756 0.114073
H62   H     H_    0.641069 0.949341 0.314099 0.088746
H63   H     H_    0.510801 0.902022 0.267775 0.114653
N5    N     N_2   0.169238 0.305087 0.131475 -0.377881
H64   H     H_    0.149200 0.254727 0.109893 0.183046
C71   C     C_3   0.328472 0.299979 0.155630 -0.163980
H65   H     H_    0.423211 0.295944 0.127598 0.075192
H66   H     H_    0.346005 0.247140 0.176643 0.104695
H67   H     H_    0.341934 0.351747 0.182104 0.123112
C72   C     C_3   0.570892 0.422535 0.766877 -0.301644
H68   H     H_    0.686501 0.444120 0.758850 0.101628
H69   H     H_    0.549555 0.442379 0.806176 0.105759
H70   H     H_    0.585420 0.357906 0.762910 0.129842
C73   C     C_3   0.611393 0.541958 0.231867 -0.297405
H71   H     H_    0.519650 0.502098 0.238656 0.086184
H72   H     H_    0.553540 0.602781 0.234266 0.154412
H73   H     H_    0.651666 0.526386 0.193546 0.102345
N6    N     N_2   0.045184 0.582698 0.726965 -0.400305
H74   H     H_    0.003219 0.627524 0.705598 0.212620
C74   C     C_3   0.925671 0.556257 0.757179 -0.145224
H75   H     H_    0.923313 0.590804 0.793557 0.096585
H76   H     H_    0.951764 0.493432 0.763318 0.105828
H77   H     H_    0.803697 0.566134 0.739013 0.109809
C75   C     C_3   0.271727 0.079029 0.543888 -0.390073
H78   H     H_    0.157098 0.102282 0.561178 0.148793
H79   H     H_    0.241252 0.038459 0.511659 0.111918
H80   H     H_    0.345844 0.045657 0.571598 0.098785
N7    N     N_2   0.017455 0.207300 0.714848 -0.385049
H81   H     H_    0.952791 0.220594 0.746593 0.198437
C76   C     C_3   0.061303 0.124191 0.705072 -0.193781
H82   H     H_    0.951630 0.092780 0.705726 0.086022
H83   H     H_    0.148306 0.102275 0.734246 0.085426
H84   H     H_    0.114569 0.110792 0.668158 0.143197
N8    N     N_2   0.311813 0.257835 0.406210 -0.452117
H85   H     H_    0.374626 0.305703 0.410582 0.199938
C77   C     C_3   0.368774 0.204491 0.364916 -0.211293
H86   H     H_    0.501962 0.191559 0.368407 0.126922
H87   H     H_    0.337002 0.230263 0.329087 0.132904
H88   H     H_    0.318080 0.147715 0.365382 0.089341

loop_
_geom_bond_atom_site_label_1
_geom_bond_atom_site_label_2
_ccdc_geom_bond_type
C25   C46   A    
C69   H58   S    
C53   C54   A    
N6    H74   S    
C12   O3    S    
C1    H17   S    
C33   N2    Am   
C17   C18   A    
Ba1   O13   S    
C71   H65   S    
O16   P8    D    
C55   C60   A    
C47   H39   S    
O15   P7    S    
C51   C52   A    
C70   H61   S    
C56   C64   S    
C60   C61   S    
C76   H83   S    
C11   C16   D    
C3    C4    S    
O3    P3    S    
N3    H50   S    
C35   C36   S    
Ba1   Ba2   S    
C23   H47   S    
C33   O19   D    
C28   C29   A    
N8    C77   S    
C55   C57   A    
N4    H60   S    
C35   C72   S    
C31   C47   A    
C10   C20   A    
Ba2   P4    S    
C22   C37   D    
C4    H20   S    
C34   C45   S    
C15   C16   S    
C49   C54   A    
C58   P5    S    
O25   P6    S    
C72   H68   S    
C5    O11   S    
C43   H35   S    
C67   H53   S    
O27   P3    S    
Ba1   O26   S    
C56   O24   S    
O9    P5    S    
Ba1   O22   S    
C4    C68   S    
C17   C41   A    
N7    H81   S    
C76   H84   S    
C37   P1    S    
C9    N1    Am   
C22   C36   S    
C56   H6    S    
Ba1   P2    S    
C6    H24   S    
C7    C8    S    
C7    H27   S    
C13   P8    S    
C70   H63   S    
Ba2   O8    S    
C13   C21   S    
C53   C75   S    
C64   H8    S    
O23   P6    D    
C48   H40   S    
O13   P2    S    
Ba1   O27   S    
O24   P1    S    
C65   H10   S    
C75   H80   S    
C1    H12   S    
C65   O2    S    
O8    P7    S    
C2    H1    S    
C31   C32   A    
C57   P7    S    
C51   H45   S    
C12   H30   S    
C68   H55   S    
C3    O15   S    
C21   H41   S    
O4    P4    D    
C9    C18   A    
Ba2   O14   S    
C76   H82   S    
C65   C66   S    
C49   H46   S    
C74   H77   S    
C26   C30   A    
O28   P3    D    
C22   H42   S    
O10   P5    D    
C75   H79   S    
C77   H86   S    
C37   C38   D    
O17   P8    S    
N8    H85   S    
C14   C15   D    
Ba2   O4    S    
C5    H22   S    
C44   H36   S    
C4    H19   S    
C49   C50   A    
C58   C59   A    
C19   C43   A    
C72   H70   S    
C74   H76   S    
C8    H29   S    
C41   C42   A    
C7    O17   S    
C45   H2    S    
C27   C28   A    
C68   H56   S    
O7    P4    S    
C50   P2    S    
Ba2   O13   S    
C46   H37   S    
C2    H16   S    
C19   N5    S    
C5    H23   S    
C17   C20   A    
Ba2   O12   S    
C10   O20   D    
C65   H11   S    
O12   P1    S    
C34   N8    S    
C39   N2    S    
C34   H49   S    
C7    H28   S    
C45   H3    S    
C24   C27   A    
C10   N1    Am   
C3    H18   S    
C77   H87   S    
N5    H64   S    
C20   C44   A    
O5    P4    S    
C58   C63   A    
O1    P1    D    
C14   C21   D    
C11   C13   S    
O11   P5    S    
C67   H51   S    
C63   H48   S    
C29   C33   A    
C40   C41   A    
C66   H13   S    
C54   P3    S    
C1    C2    S    
C6    H26   S    
C50   C51   A    
C24   C40   A    
C68   H54   S    
C42   C48   A    
C32   N2    Am   
C64   H9    S    
C16   N1    S    
C52   C53   A    
C38   C39   S    
N6    C74   S    
C11   C73   S    
C66   H15   S    
C29   C30   A    
C34   O7    S    
C6    H25   S    
Ba1   O8    S    
C75   H78   S    
Ba1   O12   S    
C2    O25   S    
C71   H66   S    
Ba2   O5    S    
C23   C69   S    
C8    N4    S    
C3    N3    S    
C44   C48   A    
C24   C26   A    
C1    H21   S    
C66   H14   S    
C30   C31   A    
C73   H73   S    
N3    C67   S    
C9    O18   D    
Ba1   O5    S    
C23   N7    S    
C74   H75   S    
C67   H52   S    
O22   P6    S    
C55   H43   S    
C69   H57   S    
N4    C70   S    
C77   H88   S    
C46   C47   A    
C64   H7    S    
C28   H33   S    
C32   O21   D    
C70   H62   S    
O2    P2    S    
C27   H34   S    
C8    H31   S    
C14   P4    S    
C12   C23   S    
C35   C39   D    
C59   C60   A    
C15   H32   S    
C72   H69   S    
C45   H4    S    
C71   H67   S    
C5    C6    S    
C40   C43   A    
C61   C62   T    
Ba2   O6    S    
C12   H38   S    
C38   N6    S    
C18   C19   A    
C52   C62   S    
C69   H59   S    
N7    C76   S    
C25   C26   A    
O26   P2    D    
Ba1   P1    S    
C36   P6    S    
C73   H71   S    
C25   C42   A    
C59   H44   S    
C73   H72   S    
O14   P7    D    
Ba1   O1    S    
C57   C63   A    
O6    P8    S    
C56   H5    S    
N5    C71   S    
Ba2   O9    S    
