data_mof_unit_34881.cif
_audit_creation_date              2012-12-10T18:55:59-0500
_audit_creation_method            fapswitch 2.2
_symmetry_space_group_name_H-M    P1
_symmetry_Int_Tables_number       1
_space_group_crystal_system       triclinic
_cell_length_a                    10.721952
_cell_length_b                    9.829261
_cell_length_c                    15.14661
_cell_angle_alpha                 89.934003
_cell_angle_beta                  90.508411
_cell_angle_gamma                 89.993641
_cell_volume                      1596.22011663

loop_
_atom_site_label
_atom_site_type_symbol
_atom_type_description
_atom_site_fract_x
_atom_site_fract_y
_atom_site_fract_z
_atom_type_partial_charge
C1    C     C_R   0.259831 0.499997 0.500031 0.865685
C2    C     C_R   0.936164 0.624056 0.500678 -0.166893
C3    C     C_R   0.936168 0.375860 0.499571 -0.166892
C4    C     C_R   0.063835 0.624059 0.500776 -0.166645
C5    C     C_R   0.519593 0.609924 0.091312 -0.271323
C6    C     C_R   0.506630 0.371364 0.905193 -0.278315
C7    C     C_R   0.447813 0.608604 0.906169 -0.268894
C8    C     C_R   0.459501 0.373251 0.095978 -0.277447
C9    C     C_R   0.512736 0.618035 0.182152 0.435644
C10   C     C_R   0.500856 0.370792 0.814070 0.452938
C11   C     C_R   0.467198 0.617220 0.816283 0.435811
C12   C     C_R   0.740171 0.499989 0.500044 0.868773
C13   C     C_R   0.478179 0.371915 0.186358 0.454871
C14   C     C_R   0.497360 0.496961 0.231374 -0.297743
C15   C     C_R   0.489776 0.496444 0.768288 -0.298818
C16   C     C_R   0.484507 0.490758 0.047679 0.029498
C17   C     C_R   0.477639 0.489352 0.951742 0.030114
C18   C     C_R   0.872608 0.499964 0.500084 -0.039846
C19   C     C_R   0.127401 0.499972 0.500182 -0.039697
C20   C     C_3   0.413201 0.809882 0.230899 0.192667
C21   C     C_3   0.354254 0.856411 0.142747 -0.484036
C22   C     C_3   0.252785 0.962751 0.157228 -0.831291
C23   C     C_R   0.499956 0.499667 0.327560 0.896573
C24   C     C_3   0.397689 0.189881 0.752056 0.166976
C25   C     C_3   0.340109 0.120933 0.833070 -0.442511
C26   C     C_3   0.231940 0.028105 0.806861 -0.876114
C27   C     C_3   0.574254 0.807837 0.773184 0.189978
C28   C     C_3   0.624082 0.852419 0.864430 -0.481664
C29   C     C_3   0.727277 0.958428 0.856057 -0.838808
C30   C     C_3   0.589493 0.190913 0.241009 0.163324
C31   C     C_3   0.638388 0.126800 0.155558 -0.439852
C32   C     C_3   0.748540 0.032289 0.173834 -0.884279
C33   C     C_R   0.498072 0.499522 0.672376 0.898272
C34   C     C_R   0.592484 0.071879 0.542245 0.449335
C35   C     C_R   0.406158 0.928301 0.459363 0.418664
C36   C     C_R   0.407247 0.072067 0.458086 0.450596
C37   C     C_R   0.593364 0.928069 0.541235 0.424154
C38   C     C_R   0.063855 0.375863 0.499683 -0.167915
F1    F     F_    0.683990 0.139629 0.586027 -0.597935
F2    F     F_    0.310732 0.860890 0.419938 -0.646388
F3    F     F_    0.315401 0.139960 0.414646 -0.598659
F4    F     F_    0.687477 0.860332 0.582173 -0.642257
H1    H     H_    0.547086 0.700005 0.055251 0.156654
H2    H     H_    0.345751 0.744668 0.267109 0.181094
H3    H     H_    0.426383 0.899562 0.098919 0.224082
H4    H     H_    0.311337 0.767748 0.108670 0.219161
H5    H     H_    0.178602 0.920952 0.200219 0.277635
H6    H     H_    0.210566 0.991840 0.092704 0.246794
H7    H     H_    0.292922 0.055253 0.188420 0.309616
H8    H     H_    0.411957 0.112001 0.699998 0.158635
H9    H     H_    0.330886 0.265773 0.723923 0.118205
H10   H     H_    0.412017 0.060264 0.868104 0.239257
H11   H     H_    0.304849 0.199509 0.879224 0.215233
H12   H     H_    0.531992 0.277892 0.938636 0.155730
H13   H     H_    0.157922 0.087486 0.772448 0.262848
H14   H     H_    0.191779 0.981126 0.866957 0.263182
H15   H     H_    0.264897 0.945683 0.762706 0.290839
H16   H     H_    0.562640 0.899829 0.731332 0.204277
H17   H     H_    0.644657 0.742159 0.740358 0.176012
H18   H     H_    0.547768 0.895298 0.904652 0.223380
H19   H     H_    0.662798 0.762773 0.900050 0.218916
H20   H     H_    0.805550 0.917126 0.816689 0.275963
H21   H     H_    0.762900 0.985849 0.922768 0.247981
H22   H     H_    0.690737 0.051864 0.823665 0.306731
H23   H     H_    0.417349 0.698913 0.940677 0.156598
H24   H     H_    0.581690 0.110352 0.292186 0.159589
H25   H     H_    0.658538 0.266181 0.266840 0.117954
H26   H     H_    0.562949 0.068485 0.122725 0.237264
H27   H     H_    0.669114 0.208130 0.109631 0.215230
H28   H     H_    0.826052 0.089391 0.205820 0.262106
H29   H     H_    0.782236 0.989058 0.110677 0.261887
H30   H     H_    0.719894 0.947203 0.217504 0.292442
H31   H     H_    0.430192 0.279999 0.064033 0.156051
H32   H     H_    0.112261 0.279106 0.499342 0.208667
H33   H     H_    0.887784 0.720816 0.501036 0.213460
H34   H     H_    0.887768 0.279105 0.499032 0.207479
H35   H     H_    0.112205 0.720816 0.501338 0.213882
H36   H     H_    0.430434 0.901250 0.272194 0.203537
N1    N     N_R   0.500000 0.857200 0.500000 -0.224790
N2    N     N_R   0.500000 0.142800 0.500000 -0.250854
O1    O     O_R   0.316770 0.614620 0.499990 -0.576752
O2    O     O_3   0.516231 0.247369 0.771549 -0.607485
O3    O     O_3   0.455756 0.743625 0.776736 -0.645746
O4    O     O_3   0.468837 0.248109 0.229475 -0.605894
O5    O     O_R   0.683230 0.385380 0.500010 -0.585503
O6    O     O_R   0.683230 0.614620 0.500010 -0.577397
O7    O     O_R   0.316770 0.385380 0.499990 -0.586591
O8    O     O_R   0.499990 0.614660 0.369060 -0.578917
O9    O     O_R   0.500010 0.385340 0.630940 -0.568683
O10   O     O_R   0.500010 0.614660 0.630940 -0.576477
O11   O     O_R   0.499990 0.385340 0.369060 -0.568823
O12   O     O_3   0.530108 0.744051 0.220903 -0.647579
Zn1   Zn    Zn3+2 0.500000 0.653120 0.500000 1.052557
Zn2   Zn    Zn3+2 0.500000 0.346880 0.500000 1.050911

loop_
_geom_bond_atom_site_label_1
_geom_bond_atom_site_label_2
_ccdc_geom_bond_type
C1    O7    A    
C22   H6    S    
C29   H21   S    
C8    C13   A    
C2    C18   A    
C34   C37   A    
C35   C36   A    
C26   H13   S    
C32   H30   S    
C7    C11   A    
C20   O12   S    
C13   O4    S    
C12   O5    A    
C28   C29   S    
C19   C38   A    
C25   H11   S    
N1    Zn1   S    
C10   C15   A    
C30   C31   S    
C1    O1    A    
O7    Zn2   S    
O9    Zn2   S    
C3    C18   A    
C37   F4    S    
C24   O2    S    
C5    C16   A    
C34   N2    A    
C29   H20   S    
C4    C19   A    
C11   C15   A    
C3    C38   A    
C16   C17   S    
C37   N1    A    
C30   H25   S    
C28   H19   S    
C24   H9    S    
C22   H5    S    
C5    H1    S    
C29   H22   S    
C8    C16   A    
C21   C22   S    
C36   F3    S    
C6    H12   S    
C9    O12   S    
C20   H2    S    
C32   H29   S    
C21   H3    S    
C28   H18   S    
C24   H8    S    
C31   H26   S    
C1    C19   S    
C34   F1    S    
C24   C25   S    
C36   N2    A    
C32   H28   S    
C11   O3    S    
C25   C26   S    
C10   O2    S    
C26   H14   S    
C14   C23   S    
C2    C4    A    
C9    C14   A    
C5    C9    A    
O6    Zn1   S    
C33   O9    A    
C7    H23   S    
O1    Zn1   S    
O5    Zn2   S    
C31   C32   S    
C3    H34   S    
C30   H24   S    
C22   H7    S    
C23   O8    A    
C23   O11   A    
N2    Zn2   S    
O10   Zn1   S    
C21   H4    S    
C38   H32   S    
C6    C17   A    
O8    Zn1   S    
C27   H16   S    
C7    C17   A    
C6    C10   A    
C20   H36   S    
C12   O6    A    
C27   O3    S    
C35   F2    S    
C25   H10   S    
C4    H35   S    
C27   H17   S    
C33   O10   A    
O11   Zn2   S    
C35   N1    A    
C8    H31   S    
C30   O4    S    
C26   H15   S    
C31   H27   S    
C20   C21   S    
C12   C18   S    
C27   C28   S    
C13   C14   A    
C15   C33   S    
C2    H33   S    
