data_mof_unit_63887.cif
_audit_creation_date              2012-10-26T19:16:49-0400
_audit_creation_method            fapswitch 2.2
_symmetry_space_group_name_H-M    P1
_symmetry_Int_Tables_number       1
_space_group_crystal_system       triclinic
_cell_length_a                    13.917819
_cell_length_b                    14.781777
_cell_length_c                    16.005537
_cell_angle_alpha                 90.041456
_cell_angle_beta                  89.98009
_cell_angle_gamma                 84.804844
_cell_volume                      3279.29281763

loop_
_atom_site_label
_atom_site_type_symbol
_atom_type_description
_atom_site_fract_x
_atom_site_fract_y
_atom_site_fract_z
_atom_type_partial_charge
C1    C     C_R   0.499972 0.500055 0.659118 0.546416
C2    C     C_R   0.449793 0.958071 0.436084 0.252769
C3    C     C_1   0.500451 0.197370 0.500526 0.132362
C4    C     C_1   0.499549 0.802630 0.499474 0.132362
C5    C     C_R   0.683378 0.485414 0.499968 0.549274
C6    C     C_R   0.316622 0.514586 0.500032 0.549274
C7    C     C_1   0.213766 0.523635 0.500100 -0.000426
C8    C     C_1   0.786233 0.476365 0.499900 -0.000426
C9    C     C_2   0.022992 0.538036 0.500259 0.289741
C10   C     C_2   0.977008 0.461964 0.499741 0.289741
C11   C     C_1   0.872847 0.469151 0.499829 0.014801
C12   C     C_R   0.500028 0.499945 0.340882 0.546416
C13   C     C_1   0.127152 0.530849 0.500171 0.014801
C14   C     C_R   0.499075 0.416922 0.043378 0.259251
C15   C     C_R   0.500925 0.583078 0.956622 0.259251
C16   C     C_R   0.499998 0.499067 0.087268 0.047321
C17   C     C_R   0.500002 0.500933 0.912732 0.047321
C18   C     C_R   0.500915 0.581453 0.044415 -0.150067
C19   C     C_R   0.499084 0.418547 0.955585 -0.150067
C20   C     C_1   0.500013 0.499533 0.176817 0.027296
C21   C     C_1   0.499987 0.500467 0.823183 0.027297
C22   C     C_1   0.499977 0.500185 0.748181 0.010901
C23   C     C_1   0.500023 0.499815 0.251819 0.010901
C24   C     C_R   0.451825 0.053523 0.438650 -0.065290
C25   C     C_R   0.548175 0.946477 0.561350 -0.065290
C26   C     C_R   0.501219 0.097111 0.501530 -0.053635
C27   C     C_R   0.498781 0.902889 0.498470 -0.053635
C28   C     C_R   0.550207 0.041929 0.563916 0.252769
Cu1   Cu    Cu3+1 0.499970 0.410780 0.500000 1.032922
Cu2   Cu    Cu3+1 0.500030 0.589220 0.500000 1.032922
H1    H     H_    0.498378 0.355754 0.920640 0.114600
H2    H     H_    0.597394 0.144245 0.623997 0.335828
H3    H     H_    0.501622 0.644246 0.079360 0.114600
H4    H     H_    0.414040 0.094182 0.390526 0.163728
H5    H     H_    0.585960 0.905818 0.609474 0.163728
H6    H     H_    0.982969 0.330479 0.498804 0.332848
H7    H     H_    0.017031 0.669521 0.501196 0.332848
H8    H     H_    0.497607 0.285558 0.047054 0.332498
H9    H     H_    0.502393 0.714442 0.952946 0.332498
H10   H     H_    0.402606 0.855755 0.376002 0.335828
N1    N     N_1   0.499970 0.723290 0.500020 -0.182580
N2    N     N_1   0.500030 0.276710 0.499980 -0.182580
O1    O     O_R   0.499950 0.424680 0.619690 -0.497098
O2    O     O_3   0.970767 0.622239 0.500878 -0.700980
O3    O     O_3   0.498176 0.336571 0.087281 -0.669849
O4    O     O_3   0.501824 0.663429 0.912719 -0.669849
O5    O     O_3   0.399025 0.922693 0.371452 -0.674654
O6    O     O_3   0.600975 0.077307 0.628548 -0.674654
O7    O     O_R   0.500050 0.575320 0.380310 -0.497098
O8    O     O_R   0.500000 0.575360 0.619690 -0.477123
O9    O     O_R   0.500000 0.424640 0.380310 -0.477123
O10   O     O_R   0.637820 0.414010 0.499980 -0.494876
O11   O     O_R   0.362180 0.585990 0.500020 -0.494877
O12   O     O_R   0.637870 0.564690 0.499980 -0.475977
O13   O     O_R   0.362130 0.435310 0.500020 -0.475977
O14   O     O_3   0.029233 0.377761 0.499122 -0.700980

loop_
_geom_bond_atom_site_label_1
_geom_bond_atom_site_label_2
_ccdc_geom_bond_type
H2    O6    S    
H10   O5    S    
Cu2   N1    S    
C2    C27   A    
H6    O14   S    
C1    O8    A    
Cu1   N2    S    
C25   C27   A    
C10   O14   S    
C9    C10   D    
C15   C18   A    
C26   C28   A    
C15   O4    S    
C20   C23   T    
C6    O13   A    
C16   C20   S    
C19   H1    S    
C4    C27   S    
H7    O2    S    
C12   O7    A    
Cu2   O8    S    
C4    N1    T    
C1    C22   S    
C3    N2    T    
C21   C22   T    
Cu1   O1    S    
C25   C28   A    
Cu2   O12   S    
C12   C23   S    
Cu1   Cu2   S    
C25   H5    S    
C8    C11   T    
C17   C19   A    
Cu2   O7    S    
C24   C26   A    
C6    C7    S    
H9    O4    S    
C2    C24   A    
C2    O5    S    
C18   H3    S    
C14   C16   A    
C5    C8    S    
C10   C11   S    
C6    O11   A    
C5    O12   A    
C7    C13   T    
C12   O9    A    
C16   C18   A    
Cu1   O9    S    
C15   C17   A    
C9    C13   S    
C28   O6    S    
H8    O3    S    
Cu1   O13   S    
C5    O10   A    
C14   O3    S    
C14   C19   A    
C1    O1    A    
C3    C26   S    
C24   H4    S    
C9    O2    S    
Cu2   O11   S    
Cu1   O10   S    
C17   C21   S    
