data_mof_unit_34310.cif
_audit_creation_date              2012-12-11T20:23:58-0500
_audit_creation_method            fapswitch 2.2
_symmetry_space_group_name_H-M    P1
_symmetry_Int_Tables_number       1
_space_group_crystal_system       triclinic
_cell_length_a                    8.245147
_cell_length_b                    17.294831
_cell_length_c                    19.043306
_cell_angle_alpha                 102.905545
_cell_angle_beta                  91.868094
_cell_angle_gamma                 98.220533
_cell_volume                      2613.88452421

loop_
_atom_site_label
_atom_site_type_symbol
_atom_type_description
_atom_site_fract_x
_atom_site_fract_y
_atom_site_fract_z
_atom_type_partial_charge
Ba1   Ba    Ba6+2 0.854170 0.535040 0.467640 1.676103
Ba2   Ba    Ba6+2 0.335670 0.465030 0.532370 1.651565
C1    C     C_3   0.712321 0.822835 0.289852 -0.353815
C2    C     C_3   0.654040 0.744483 0.311536 0.346999
C3    C     C_3   0.463609 0.337583 0.306855 0.331477
C4    C     C_3   0.408509 0.309730 0.226647 0.370150
C5    C     C_3   0.064740 0.298689 0.718394 0.341843
C6    C     C_3   0.102706 0.279569 0.790887 -0.301207
C7    C     C_3   0.529440 0.248322 0.661154 0.290733
C8    C     C_3   0.471681 0.162778 0.668797 0.325140
C9    C     C_R   0.052814 0.547359 0.804269 -0.154238
C10   C     C_R   0.018284 0.531297 0.728750 0.054688
C11   C     C_R   0.851409 0.433058 0.808292 -0.160659
C12   C     C_3   0.108771 0.709608 0.284290 0.374464
C13   C     C_R   0.783655 0.437001 0.741090 -0.000416
C14   C     C_R   0.335077 0.572764 0.195470 -0.164189
C15   C     C_R   0.404184 0.564098 0.260844 0.001612
C16   C     C_R   0.130297 0.458632 0.196247 -0.140018
C17   C     C_R   0.168773 0.470132 0.271334 0.039657
C18   C     C_R   0.980365 0.493115 0.845517 0.005316
C19   C     C_R   0.876845 0.479124 0.698655 -0.249351
C20   C     C_R   0.205665 0.514375 0.156680 0.001934
C21   C     C_R   0.312923 0.519201 0.301438 -0.239282
C22   C     C_R   0.754741 0.455193 0.959170 -0.090031
C23   C     C_3   0.087659 0.743451 0.217892 -0.368203
C24   C     C_R   0.650271 0.426291 0.006373 -0.037402
C25   C     C_R   0.701393 0.441166 0.078353 0.002985
C26   C     C_R   0.859744 0.479762 0.100877 -0.085349
C27   C     C_R   0.980506 0.489583 0.051788 0.010899
C28   C     C_R   0.925449 0.480466 0.977528 0.039632
C29   C     C_R   0.149655 0.512144 0.077175 -0.007448
C30   C     C_R   0.262112 0.531400 0.025265 0.043503
C31   C     C_R   0.207296 0.522872 0.950860 0.021048
C32   C     C_R   0.037893 0.498645 0.925340 -0.009795
C33   C     C_R   0.432227 0.557724 0.044198 -0.085544
C34   C     C_3   0.244452 0.711850 0.630417 0.293231
C35   C     C_R   0.536963 0.587585 0.997618 -0.074517
C36   C     C_R   0.486451 0.574229 0.925744 -0.061555
C37   C     C_R   0.328699 0.535668 0.902335 -0.079107
C38   C     C_2   0.443484 0.717662 0.479708 -0.254296
C39   C     C_3   0.367616 0.763220 0.431741 -0.053179
C40   C     C_2   0.421903 0.852059 0.453855 -0.105582
C41   C     C_2   0.555046 0.883123 0.500083 0.007480
C42   C     C_2   0.636636 0.828668 0.535345 -0.116352
C43   C     C_1   0.576033 0.751407 0.522888 0.048374
C44   C     C_R   0.805308 0.137143 0.528852 -0.076843
C45   C     C_3   0.275765 0.803153 0.650234 -0.330444
C46   C     C_R   0.862116 0.219171 0.540363 0.019343
C47   C     C_R   0.620223 0.236442 0.473296 0.021857
C48   C     C_R   0.563471 0.154381 0.460929 -0.123053
C49   C     C_R   0.654248 0.104491 0.489645 0.005010
C50   C     C_2   0.620745 0.970048 0.517407 -0.062429
C51   C     C_2   0.593795 0.017810 0.472714 -0.088718
C52   C     C_R   0.766981 0.269003 0.514739 -0.300383
C53   C     C_3   0.949340 0.285310 0.365501 0.328759
C54   C     C_3   0.924698 0.194127 0.342624 -0.352679
C55   C     C_3   0.724584 0.647890 0.689360 0.317628
C56   C     C_3   0.738471 0.671557 0.771406 -0.378159
H1    H     H_    0.692748 0.751570 0.369413 0.056523
H2    H     H_    0.372722 0.824891 0.694994 0.144419
H3    H     H_    0.316285 0.826473 0.602944 0.074782
H4    H     H_    0.161124 0.826537 0.667355 0.145238
H5    H     H_    0.830549 0.305176 0.379168 0.007488
H6    H     H_    0.037881 0.304880 0.413522 0.057594
H7    H     H_    0.830897 0.172700 0.296579 0.176153
H8    H     H_    0.883142 0.167549 0.387924 0.050469
H9    H     H_    0.042315 0.173603 0.326084 0.126031
H10   H     H_    0.841289 0.629733 0.670043 -0.001312
H11   H     H_    0.623665 0.596460 0.672212 0.074994
H12   H     H_    0.846782 0.840578 0.301384 0.152545
H13   H     H_    0.844130 0.720230 0.790617 0.136995
H14   H     H_    0.757238 0.619034 0.793345 0.052069
H15   H     H_    0.623861 0.692645 0.791637 0.132047
H16   H     H_    0.518186 0.733624 0.303777 -0.064468
H17   H     H_    0.650522 0.871222 0.321135 0.070496
H18   H     H_    0.363025 0.365322 0.334976 -0.100273
H19   H     H_    0.574766 0.383665 0.313861 0.070890
H20   H     H_    0.290903 0.267647 0.219524 0.032118
H21   H     H_    0.388171 0.362533 0.205385 -0.098577
H22   H     H_    0.681492 0.816160 0.231381 0.117888
H23   H     H_    0.136973 0.705483 0.170948 0.072295
H24   H     H_    0.129605 0.359960 0.719414 0.060193
H25   H     H_    0.930053 0.296530 0.710848 -0.027077
H26   H     H_    0.062152 0.324504 0.835279 0.055749
H27   H     H_    0.037916 0.219075 0.792100 0.180229
H28   H     H_    0.236741 0.280875 0.800059 0.169147
H29   H     H_    0.664014 0.256735 0.655702 -0.056341
H30   H     H_    0.466686 0.255809 0.611202 0.041648
H31   H     H_    0.468541 0.120458 0.615386 -0.034806
H32   H     H_    0.345627 0.157588 0.687769 0.092716
H33   H     H_    0.036560 0.648318 0.274385 0.074797
H34   H     H_    0.142178 0.599202 0.829051 0.068913
H35   H     H_    0.798303 0.384439 0.831305 0.069077
H36   H     H_    0.388193 0.623327 0.174838 0.068365
H37   H     H_    0.036794 0.409152 0.170558 0.095771
H38   H     H_    0.834366 0.474658 0.643329 0.065393
H39   H     H_    0.359042 0.519167 0.355282 0.066369
H40   H     H_    0.693611 0.461911 0.910970 0.082817
H41   H     H_    0.522931 0.402504 0.989124 0.102068
H42   H     H_    0.614345 0.428829 0.117264 0.137077
H43   H     H_    0.240980 0.705384 0.291044 -0.082178
H44   H     H_    0.887453 0.503198 0.157148 0.132474
H45   H     H_    0.493262 0.551141 0.092363 0.070035
H46   H     H_    0.664030 0.611549 0.015299 0.079567
H47   H     H_    0.573349 0.587955 0.887255 0.080982
H48   H     H_    0.304628 0.515228 0.845580 0.129737
H49   H     H_    0.522091 0.993688 0.421818 0.075716
H50   H     H_    0.744477 0.853194 0.572168 0.095365
H51   H     H_    0.882126 0.098955 0.547408 0.094681
H52   H     H_    0.694632 0.994695 0.567797 0.132736
H53   H     H_    0.354022 0.889386 0.429131 0.071486
H54   H     H_    0.956294 0.744136 0.204406 0.150801
H55   H     H_    0.450374 0.129303 0.428065 0.083532
H56   H     H_    0.399115 0.653867 0.470612 0.073852
H57   H     H_    0.812470 0.332426 0.522872 0.067810
H58   H     H_    0.155695 0.805523 0.227725 0.117713
H59   H     H_    0.360933 0.689487 0.616587 0.002221
H60   H     H_    0.154472 0.692062 0.582932 0.084107
O1    O     O_2   0.873520 0.443690 0.322540 -0.429906
O2    O     O_3   0.693151 0.713876 0.662741 -0.623293
O3    O     O_3   0.054838 0.759759 0.345153 -0.587893
O4    O     O_2   0.316180 0.556340 0.677510 -0.475245
O5    O     O_3   0.067690 0.549150 0.588340 -0.496331
O6    O     O_3   0.526120 0.408390 0.624220 -0.471867
O7    O     O_3   0.184094 0.684212 0.689685 -0.627301
O8    O     O_3   0.608980 0.401570 0.457310 -0.488894
O9    O     O_3   0.103650 0.364840 0.585560 -0.492136
O10   O     O_2   0.194655 0.223141 0.530307 -0.492880
O11   O     O_3   0.118819 0.241519 0.663492 -0.583806
O12   O     O_3   0.122020 0.450920 0.411670 -0.498894
O13   O     O_3   0.580730 0.598500 0.542710 -0.502364
O14   O     O_2   0.336360 0.303040 0.452600 -0.454427
O15   O     O_3   0.497113 0.271963 0.334035 -0.614725
O16   O     O_2   0.458134 0.456234 0.756508 -0.506540
O17   O     O_3   0.487970 0.303869 0.721135 -0.593178
O18   O     O_3   0.663590 0.591680 0.375790 -0.471255
O19   O     O_2   0.713820 0.524705 0.245967 -0.492347
O20   O     O_3   0.008528 0.316012 0.307749 -0.618272
O21   O     O_3   0.721631 0.681355 0.268539 -0.597130
O22   O     O_2   0.853350 0.696990 0.547450 -0.459339
O23   O     O_3   0.086060 0.635230 0.414460 -0.487526
O24   O     O_2   0.056010 0.782486 0.487087 -0.479023
P1    P     P_3+3 0.040700 0.421000 0.332140 1.012233
P2    P     P_3+3 0.677490 0.686860 0.568200 0.982272
P3    P     P_3+3 0.140122 0.737449 0.422199 0.958172
P4    P     P_3+3 0.149010 0.579070 0.667870 0.977342
P5    P     P_3+3 0.069372 0.261594 0.580002 0.961110
P6    P     P_3+3 0.624257 0.591784 0.286243 0.934697
P7    P     P_3+3 0.516597 0.300889 0.428425 0.964791
P8    P     P_3+3 0.566087 0.400378 0.712027 0.939857
S1    S     S_3+6 0.557870 0.261300 0.174996 -0.047862
O25   O     O_2   0.569381 0.182502 0.194273 -0.266534
O26   O     O_2   0.506375 0.246518 0.096111 -0.266142
O27   O     O_3   0.741714 0.320216 0.192037 -0.532981
H61   H     H_    0.818023 0.288374 0.163578 0.359894
S2    S     S_3+6 0.605361 0.133433 0.730313 -0.052116
O28   O     O_2   0.534851 0.051629 0.739747 -0.235670
O29   O     O_2   0.771474 0.129733 0.700601 -0.340423
O30   O     O_3   0.623464 0.199051 0.810984 -0.456500
H62   H     H_    0.713913 0.241907 0.807243 0.326098

loop_
_geom_bond_atom_site_label_1
_geom_bond_atom_site_label_2
_ccdc_geom_bond_type
C37   H48   S    
C5    H25   S    
C53   C54   S    
C16   H37   S    
O1    P1    D    
C39   C40   S    
O19   P6    D    
C34   O7    S    
O2    P2    S    
C41   C42   S    
C45   H4    S    
C4    H21   S    
C5    C6    S    
Ba2   O5    S    
C42   C43   D    
C3    O15   S    
C24   C25   A    
C31   C37   A    
C53   O20   S    
C22   H40   S    
S2    O28   D    
C33   C35   A    
C22   C24   A    
C6    H27   S    
C33   H45   S    
O20   P1    S    
C7    H30   S    
C36   C37   A    
O8    P7    S    
C41   C50   S    
C4    H20   S    
C47   C52   A    
O16   P8    D    
C46   P5    S    
C34   C45   S    
Ba1   Ba2   S    
Ba1   O1    S    
S1    O27   S    
C10   P4    S    
C23   H54   S    
C45   H2    S    
O4    P4    D    
C9    H34   S    
C38   H56   S    
O30   H62   S    
C8    H31   S    
C14   C15   A    
C53   H5    S    
C43   P2    S    
Ba2   O14   S    
S1    O25   D    
Ba1   O18   S    
C1    H17   S    
C7    C8    S    
C2    H16   S    
O23   P3    S    
C24   H41   S    
C18   C32   S    
Ba2   O9    S    
Ba2   O4    S    
C12   O3    S    
C16   C20   A    
C52   H57   S    
C23   H23   S    
O14   P7    D    
O24   P3    D    
C1    H22   S    
Ba2   O13   S    
C22   C28   A    
C42   H50   S    
C38   C43   D    
C9    C18   A    
C44   C46   A    
O21   P6    S    
O11   P5    S    
C20   C29   S    
C28   C32   A    
C30   C33   A    
C1    H12   S    
O15   P7    S    
Ba1   O8    S    
Ba1   O12   S    
C23   H58   S    
C8    S2    S    
C16   C17   A    
C12   H43   S    
C48   C49   A    
C44   C49   A    
C25   H42   S    
C11   H35   S    
C49   C51   S    
C46   C52   A    
C17   C21   A    
C40   H53   S    
Ba1   O5    S    
C35   C36   A    
O12   P1    S    
C51   H49   S    
C29   C30   A    
O5    P4    S    
C50   H52   S    
C53   H6    S    
C15   P6    S    
C31   C32   A    
C15   C21   A    
C34   H59   S    
O27   H61   S    
O18   P6    S    
Ba1   O22   S    
C55   O2    S    
C4    S1    S    
C7    O17   S    
C38   C39   S    
C21   H39   S    
C11   C13   A    
O3    P3    S    
C40   C41   D    
C55   H10   S    
C3    H19   S    
C1    C2    S    
C54   H9    S    
Ba2   O8    S    
C34   H60   S    
C50   C51   D    
O6    P8    S    
C26   C27   A    
C14   C20   A    
C11   C18   A    
C6    H26   S    
S2    O30   S    
O22   P2    D    
Ba1   O13   S    
C45   H3    S    
C35   H46   S    
C9    C10   A    
O10   P5    D    
C19   H38   S    
Ba2   O6    S    
Ba1   P1    S    
Ba2   P4    S    
O17   P8    S    
C14   H36   S    
C47   P7    S    
O7    P4    S    
C48   H55   S    
C30   C31   A    
C36   H47   S    
S2    O29   D    
C27   C29   A    
Ba1   P2    S    
C7    H29   S    
C2    O21   S    
C56   H14   S    
C55   C56   S    
C3    C4    S    
C3    H18   S    
C54   H8    S    
C10   C19   A    
C2    H1    S    
Ba2   O12   S    
C6    H28   S    
S1    O26   D    
C12   C23   S    
C56   H13   S    
C17   P1    S    
C12   H33   S    
C5    O11   S    
Ba1   O23   S    
C27   C28   A    
C26   H44   S    
C13   C19   A    
C5    H24   S    
C39   P3    S    
C8    H32   S    
C47   C48   A    
C44   H51   S    
C25   C26   A    
C55   H11   S    
C13   P8    S    
O13   P2    S    
C54   H7    S    
C56   H15   S    
O9    P5    S    
