data_mof_unit_49368.cif
_audit_creation_date              2012-12-10T16:54:52-0500
_audit_creation_method            fapswitch 2.2
_symmetry_space_group_name_H-M    P1
_symmetry_Int_Tables_number       1
_space_group_crystal_system       triclinic
_cell_length_a                    7.947567
_cell_length_b                    8.542394
_cell_length_c                    15.716483
_cell_angle_alpha                 92.233957
_cell_angle_beta                  84.577412
_cell_angle_gamma                 92.508215
_cell_volume                      1060.567399

loop_
_atom_site_label
_atom_site_type_symbol
_atom_type_description
_atom_site_fract_x
_atom_site_fract_y
_atom_site_fract_z
_atom_type_partial_charge
C1    C     C_R   0.543589 0.793695 0.502474 0.936612
C2    C     C_2   0.437255 0.048939 0.533885 -0.000320
C3    C     C_R   0.499485 0.499883 0.661254 0.875058
C4    C     C_R   0.456116 0.207197 0.508902 0.944495
C5    C     C_R   0.500615 0.502232 0.339003 0.898045
C6    C     C_3   0.308297 0.486838 0.963671 -0.253188
C7    C     C_3   0.573333 0.667069 0.947375 0.153599
C8    C     C_3   0.546745 0.687773 0.047983 0.410626
C9    C     C_1   0.503344 0.511300 0.250568 -0.187609
C10   C     C_3   0.493281 0.503826 0.917859 -0.001894
C11   C     C_3   0.171113 0.383333 0.920833 -0.291337
C12   C     C_3   0.315913 0.463045 0.061809 0.810369
C13   C     C_3   0.213074 0.215832 0.891150 -0.891036
C14   C     C_3   0.287784 0.998035 0.596870 -0.367797
C15   C     C_3   0.254906 0.114386 0.672030 -0.905447
C16   C     C_3   0.023906 0.379023 0.400089 -0.127011
C17   C     C_3   0.924812 0.228819 0.378111 -0.869258
C18   C     C_3   0.982005 0.613061 0.603023 -0.142373
C19   C     C_3   0.961290 0.494668 0.674646 -0.752642
C20   C     C_3   0.694869 0.785101 0.088308 -0.346775
C21   C     C_3   0.862136 0.709118 0.097807 -0.775335
C22   C     C_3   0.501729 0.517041 0.084083 -0.001907
C23   C     C_3   0.632678 0.397679 0.040277 0.045405
C24   C     C_3   0.601704 0.369861 0.945034 0.303016
C25   C     C_1   0.505332 0.517321 0.175461 0.054693
C26   C     C_1   0.492393 0.500418 0.825958 0.050165
C27   C     C_1   0.496497 0.499455 0.750358 -0.214597
C28   C     C_2   0.563493 0.957436 0.503035 -0.442518
H1    H     H_    0.762961 0.447013 0.041014 0.194477
H2    H     H_    0.054683 0.378112 0.965835 0.261438
H3    H     H_    0.137351 0.444093 0.863804 0.222208
H4    H     H_    0.344876 0.234255 0.050324 0.359388
H5    H     H_    0.375028 0.148056 0.699977 0.255496
H6    H     H_    0.195451 0.220380 0.652419 0.293602
H7    H     H_    0.165655 0.058026 0.721274 0.244943
H8    H     H_    0.171895 0.981132 0.562615 0.213217
H9    H     H_    0.312588 0.887232 0.627120 0.225358
H10   H     H_    0.913048 0.151931 0.433781 0.250338
H11   H     H_    0.799209 0.251746 0.357985 0.289541
H12   H     H_    0.675649 0.001644 0.465454 0.159242
H13   H     H_    0.995003 0.165365 0.323764 0.232883
H14   H     H_    0.032310 0.459324 0.345785 0.173321
H15   H     H_    0.147092 0.335962 0.409011 0.236272
H16   H     H_    0.915187 0.377904 0.650901 0.261543
H17   H     H_    0.081501 0.480036 0.702811 0.244597
H18   H     H_    0.870425 0.538380 0.727248 0.247926
H19   H     H_    0.073196 0.706834 0.621920 0.146821
H20   H     H_    0.865271 0.674072 0.596353 0.197880
H21   H     H_    0.753152 0.712733 0.857476 0.338383
H22   H     H_    0.426250 0.884974 0.043658 0.333174
H23   H     H_    0.256502 0.605333 0.959431 0.192010
H24   H     H_    0.844311 0.612830 0.143552 0.240218
H25   H     H_    0.924245 0.667999 0.035385 0.314560
H26   H     H_    0.949950 0.798342 0.124914 0.275208
H27   H     H_    0.724550 0.892210 0.050754 0.232678
H28   H     H_    0.646839 0.827772 0.153538 0.220662
H29   H     H_    0.802318 0.259758 0.901283 0.333250
H30   H     H_    0.697595 0.265812 0.129529 0.352566
H31   H     H_    0.506832 0.762088 0.918798 0.085950
H32   H     H_    0.532065 0.255687 0.936478 0.121253
H33   H     H_    0.176043 0.524642 0.166707 0.354441
H34   H     H_    0.329200 0.213717 0.846568 0.254534
H35   H     H_    0.223353 0.137953 0.944662 0.266449
H36   H     H_    0.106842 0.165386 0.856658 0.250559
N1    N     N_2   0.950340 0.457950 0.477370 -0.017304
N2    N     N_2   0.049660 0.542050 0.522630 -0.047280
O1    O     O_R   0.389240 0.738570 0.505550 -0.616896
O2    O     O_3   0.272770 0.307213 0.085286 -0.760070
O3    O     O_3   0.745945 0.680840 0.917818 -0.739851
O4    O     O_3   0.403653 0.779837 0.068297 -0.759831
O5    O     O_3   0.756758 0.364261 0.893898 -0.751461
O6    O     O_3   0.625232 0.253458 0.081336 -0.798701
O7    O     O_R   0.678400 0.711630 0.491050 -0.634679
O8    O     O_R   0.355360 0.513470 0.630110 -0.631693
O9    O     O_R   0.644510 0.486530 0.615610 -0.618718
O10   O     O_R   0.321600 0.288370 0.508950 -0.638644
O11   O     O_R   0.610760 0.261430 0.494450 -0.627010
O12   O     O_R   0.355490 0.513470 0.384390 -0.646534
O13   O     O_R   0.644640 0.486530 0.369890 -0.615464
O14   O     O_3   0.194542 0.558602 0.106716 -0.733980
Zn1   Zn    Zn3+2 0.306930 0.517990 0.509680 0.916818
Zn2   Zn    Zn3+2 0.693070 0.482010 0.490320 0.933876

loop_
_geom_bond_atom_site_label_1
_geom_bond_atom_site_label_2
_ccdc_geom_bond_type
C7    C10   S    
C20   H28   S    
C18   H19   S    
C19   H18   S    
C9    C25   T    
C7    C8    S    
C12   O2    S    
C26   C27   T    
C8    C20   S    
C23   H1    S    
C14   H8    S    
C21   H26   S    
C28   H12   S    
H33   O14   S    
C12   C22   S    
C18   C19   S    
C17   H11   S    
C7    H31   S    
C3    O8    A    
C13   H34   S    
C11   H2    S    
C16   C17   S    
C22   C25   S    
C1    C28   S    
C8    C22   S    
C23   C24   S    
C6    H23   S    
C5    O13   A    
C3    O9    A    
C15   H6    S    
H4    O2    S    
C10   C26   S    
C11   H3    S    
H21   O3    S    
C20   H27   S    
C6    C12   S    
C15   H7    S    
C6    C11   S    
C10   C24   S    
C2    C4    S    
C5    C9    S    
C13   H35   S    
C24   H32   S    
H29   O5    S    
C16   H15   S    
O1    Zn1   S    
O8    Zn1   S    
C16   H14   S    
O7    Zn2   S    
C19   H16   S    
C14   C15   S    
C23   O6    S    
C18   H20   S    
O10   Zn1   S    
C7    O3    S    
O13   Zn2   S    
C19   H17   S    
O9    Zn2   S    
C18   N2    S    
C8    O4    S    
C1    O7    A    
C3    C27   S    
H22   O4    S    
C4    O11   A    
C14   H9    S    
C21   H25   S    
C11   C13   S    
O12   Zn1   S    
H30   O6    S    
N1    Zn2   S    
C13   H36   S    
O11   Zn2   S    
C12   O14   S    
C1    O1    A    
C17   H10   S    
C2    C14   S    
C17   H13   S    
C4    O10   A    
C6    C10   S    
C20   C21   S    
N1    N2    D    
C22   C23   S    
C2    C28   D    
C16   N1    S    
C5    O12   A    
C15   H5    S    
C21   H24   S    
C24   O5    S    
N2    Zn1   S    
