data_mof_unit_22518.cif
_audit_creation_date              2012-10-26T18:28:24-0400
_audit_creation_method            fapswitch 2.2
_symmetry_space_group_name_H-M    P1
_symmetry_Int_Tables_number       1
_space_group_crystal_system       triclinic
_cell_length_a                    27.819114
_cell_length_b                    11.00311
_cell_length_c                    9.884787
_cell_angle_alpha                 110.809841
_cell_angle_beta                  97.353057
_cell_angle_gamma                 92.430005
_cell_volume                      2792.43234245

loop_
_atom_site_label
_atom_site_type_symbol
_atom_type_description
_atom_site_fract_x
_atom_site_fract_y
_atom_site_fract_z
_atom_type_partial_charge
C1    C     C_R   0.495105 0.253982 0.441862 0.543322
C2    C     C_R   0.870044 0.371731 0.411561 0.052971
C3    C     C_R   0.354658 0.498953 0.505157 0.029859
C4    C     C_R   0.645725 0.487013 0.492559 0.037031
C5    C     C_R   0.972046 0.375054 0.430098 0.011515
C6    C     C_R   0.030736 0.607683 0.588902 -0.007683
C7    C     C_R   0.981131 0.598784 0.607670 0.023077
C8    C     C_R   0.022990 0.371043 0.461509 0.027779
C9    C     C_R   0.951050 0.485669 0.515285 -0.005454
C10   C     C_R   0.052439 0.490646 0.527632 -0.011109
C11   C     C_R   0.941794 0.276731 0.313329 0.064031
C12   C     C_R   0.501545 0.745707 0.558474 0.575920
C13   C     C_R   0.058518 0.727622 0.620686 0.129008
C14   C     C_R   0.890902 0.270549 0.309242 0.114354
C15   C     C_R   0.109267 0.732107 0.627561 0.113260
C16   C     C_R   0.407636 0.499650 0.501574 0.571564
C17   C     C_R   0.592489 0.495704 0.497251 0.579434
C18   C     C_R   0.045329 0.253467 0.439906 0.123370
C19   C     C_R   0.961069 0.692410 0.721089 0.121292
C20   C     C_2   0.491839 0.113447 0.413407 0.080007
C21   C     C_2   0.499650 0.885563 0.586913 0.133920
C22   C     C_2   0.475657 0.065397 0.510513 0.145903
C23   C     C_R   0.103306 0.493027 0.531201 -0.078165
C24   C     C_2   0.474941 0.925755 0.485300 0.194701
C25   C     C_2   0.503666 0.518398 0.083898 0.288282
C26   C     C_2   0.488568 0.528552 0.935882 0.278714
C27   C     C_R   0.174720 0.380908 0.465998 0.411733
C28   C     C_R   0.828448 0.591741 0.575494 0.411435
C29   C     C_R   0.183311 0.611665 0.593557 0.394531
C30   C     C_R   0.819655 0.368199 0.417127 0.464167
C31   C     C_R   0.274848 0.561387 0.433161 0.188221
C32   C     C_R   0.714779 0.433410 0.356622 0.189829
C33   C     C_R   0.325049 0.563384 0.429122 0.086440
C34   C     C_R   0.900133 0.483079 0.508356 -0.089861
C35   C     C_R   0.664173 0.429515 0.358074 0.054110
C36   C     C_R   0.332846 0.431746 0.582900 0.062793
C37   C     C_R   0.679288 0.533743 0.624820 0.051252
C38   C     C_R   0.283184 0.435496 0.591441 -0.060235
C39   C     C_R   0.728945 0.523619 0.621513 -0.085770
C40   C     C_R   0.254070 0.500164 0.518227 0.194537
C41   C     C_R   0.747358 0.477887 0.489169 0.217699
C42   C     C_R   0.124866 0.374141 0.478086 0.009738
C43   C     C_R   0.879409 0.591377 0.599149 0.005494
C44   C     C_R   0.096009 0.254198 0.442644 0.179711
C45   C     C_R   0.910155 0.691774 0.713167 0.179335
C46   C     C_R   0.132404 0.614103 0.587425 0.014287
Cu1   Cu    Cu3+1 0.508480 0.521810 0.644910 1.001083
Cu2   Cu    Cu3+1 0.491520 0.478190 0.355090 0.985381
H1    H     H_    0.266789 0.384975 0.652833 0.153231
H2    H     H_    0.544545 0.060526 0.286450 0.244089
H3    H     H_    0.574109 0.685471 0.873823 0.290200
H4    H     H_    0.522315 0.748531 0.927474 0.261534
H5    H     H_    0.408338 0.391777 0.092034 0.262352
H6    H     H_    0.444374 0.269328 0.046725 0.253620
H7    H     H_    0.608662 0.291961 0.237080 0.250026
H8    H     H_    0.614040 0.424892 0.186477 0.279113
H9    H     H_    0.358424 0.570365 0.260489 0.265056
H10   H     H_    0.373839 0.700882 0.420736 0.250481
H11   H     H_    0.720091 0.297907 0.158134 0.283784
H12   H     H_    0.753781 0.556081 0.724036 0.158782
H13   H     H_    0.719774 0.453231 0.163030 0.242565
H14   H     H_    0.230176 0.697767 0.413549 0.270888
H15   H     H_    0.217014 0.547915 0.279537 0.243832
H16   H     H_    0.864037 0.171578 0.094681 0.274994
H17   H     H_    0.871479 0.077425 0.198869 0.276713
H18   H     H_    0.155863 0.856153 0.583461 0.280568
H19   H     H_    0.158429 0.880060 0.766041 0.290244
H20   H     H_    0.014052 0.066025 0.335630 0.285207
H21   H     H_    0.985053 0.156802 0.474369 0.256075
H22   H     H_    0.991759 0.870382 0.866559 0.293576
H23   H     H_    0.345595 0.256363 0.593158 0.235981
H24   H     H_    0.026479 0.745993 0.863954 0.249332
H25   H     H_    0.409978 0.871309 0.351110 0.238996
H26   H     H_    0.458696 0.828585 0.264847 0.288765
H27   H     H_    0.430817 0.200836 0.608394 0.255849
H28   H     H_    0.484714 0.205313 0.716423 0.279956
H29   H     H_    0.355297 0.380352 0.756060 0.265084
H30   H     H_    0.674714 0.539323 0.829528 0.243863
H31   H     H_    0.680953 0.687407 0.814361 0.249831
H32   H     H_    0.512247 0.964720 0.808146 0.239859
H33   H     H_    0.562420 0.958894 0.726924 0.237143
H34   H     H_    0.487506 0.036360 0.192970 0.241616
I1    I     I_    0.422720 0.620856 0.939081 -0.340374
I2    I     I_    0.564409 0.656109 0.218492 -0.293070
I3    I     I_    0.126277 0.071747 0.413964 -0.185098
I4    I     I_    0.882798 0.829259 0.894555 -0.216183
I5    I     I_    0.970548 0.164062 0.120637 -0.332873
I6    I     I_    0.024664 0.897339 0.614204 -0.249529
N1    N     N_R   0.202736 0.497763 0.525563 -0.400786
N2    N     N_3   0.439477 0.362424 0.045111 -0.536954
N3    N     N_3   0.632953 0.359678 0.222284 -0.631392
N4    N     N_3   0.345238 0.635230 0.350531 -0.560707
N5    N     N_3   0.733286 0.394900 0.219994 -0.549050
N6    N     N_3   0.245259 0.617726 0.345291 -0.549551
N7    N     N_3   0.860221 0.166104 0.196212 -0.522193
N8    N     N_3   0.135654 0.857556 0.666102 -0.539942
N9    N     N_3   0.018874 0.138106 0.440211 -0.552097
N10   N     N_3   0.990953 0.772661 0.856628 -0.568908
N11   N     N_3   0.443934 0.834950 0.358645 -0.606557
N12   N     N_R   0.799506 0.479343 0.491927 -0.390585
N13   N     N_3   0.456472 0.144892 0.638278 -0.604676
N14   N     N_2   0.478780 0.445430 0.137360 -0.175686
N15   N     N_2   0.521220 0.554570 0.862640 -0.176199
N16   N     N_3   0.360402 0.353308 0.646681 -0.607783
N17   N     N_3   0.663529 0.592789 0.764213 -0.594854
N18   N     N_3   0.525976 0.978942 0.720707 -0.632779
N19   N     N_3   0.508492 0.028012 0.284304 -0.642867
N20   N     N_3   0.546039 0.678378 0.931964 -0.497224
O1    O     O_R   0.504520 0.332330 0.577400 -0.505564
O2    O     O_2   0.807772 0.703893 0.631235 -0.443503
O3    O     O_2   0.791203 0.254604 0.351133 -0.427604
O4    O     O_2   0.213521 0.720944 0.666939 -0.503662
O5    O     O_R   0.495480 0.667670 0.422600 -0.447763
O6    O     O_R   0.490210 0.295500 0.332650 -0.504308
O7    O     O_R   0.509790 0.704500 0.667350 -0.529448
O8    O     O_R   0.437420 0.518430 0.622370 -0.445513
O9    O     O_R   0.562580 0.481570 0.377630 -0.499488
O10   O     O_R   0.423110 0.481600 0.377610 -0.521954
O11   O     O_R   0.576890 0.518400 0.622390 -0.459454
O12   O     O_2   0.195153 0.273188 0.391589 -0.449843

loop_
_geom_bond_atom_site_label_1
_geom_bond_atom_site_label_2
_ccdc_geom_bond_type
H23   N16   S    
C26   I1    S    
H9    N4    S    
H32   N18   S    
C24   N11   S    
C29   O4    S    
C29   N1    A    
C39   C41   A    
C38   H1    S    
H24   N10   S    
C27   O12   S    
Cu1   O7    S    
H15   N6    S    
C22   N13   S    
H30   N17   S    
Cu2   O6    S    
H6    N2    S    
C16   O10   A    
C11   C14   A    
H13   N5    S    
C25   N14   D    
C3    C33   A    
C30   N12   A    
C31   C40   A    
H31   N17   S    
H25   N11   S    
H20   N9    S    
N2    N14   S    
H7    N3    S    
C1    O1    A    
H8    N3    S    
C11   I5    S    
H3    N20   S    
C25   I2    S    
C32   C41   A    
C31   C33   A    
N15   N20   S    
C18   N9    S    
C40   N1    S    
C21   N18   S    
C17   O9    A    
C20   N19   S    
C2    C34   A    
Cu1   O11   S    
C32   N5    S    
C4    C35   A    
C23   C46   A    
C42   C44   A    
C16   O8    A    
C19   N10   S    
C6    C7    A    
Cu1   O8    S    
Cu1   N15   S    
C32   C35   A    
C33   N4    S    
C15   N8    S    
Cu2   O10   S    
C28   O2    S    
C37   N17   S    
Cu1   O1    S    
C12   C21   S    
C8    C18   A    
C5    C9    A    
C18   C44   A    
C26   N15   D    
C23   C42   A    
Cu1   Cu2   S    
Cu2   N14   S    
C41   N12   S    
H34   N19   S    
C43   C45   A    
Cu2   O9    S    
C4    C17   S    
C20   C22   D    
C7    C19   A    
H14   N6    S    
H2    N19   S    
C22   C24   S    
C1    O6    A    
C44   I3    S    
C14   N7    S    
H18   N8    S    
C12   O5    A    
H28   N13   S    
C7    C9    A    
H33   N18   S    
C1    C20   S    
C34   C43   A    
H16   N7    S    
C6    C10   A    
C5    C8    A    
C19   C45   A    
C5    C11   A    
H26   N11   S    
C10   C23   A    
C31   N6    S    
C30   O3    S    
C28   C43   A    
C36   N16   S    
C29   C46   A    
C2    C30   A    
C12   O7    A    
C13   C15   A    
C45   I4    S    
C25   C26   S    
C37   C39   A    
C6    C13   A    
C38   C40   A    
C27   C42   A    
C28   N12   A    
H19   N8    S    
C3    C36   A    
C39   H12   S    
C13   I6    S    
C36   C38   A    
C9    C34   A    
C27   N1    A    
C2    C14   A    
C17   O11   A    
H17   N7    S    
C4    C37   A    
H4    N20   S    
C8    C10   A    
C21   C24   D    
H5    N2    S    
H27   N13   S    
H29   N16   S    
H11   N5    S    
C15   C46   A    
H10   N4    S    
C3    C16   S    
H22   N10   S    
H21   N9    S    
Cu2   O5    S    
C35   N3    S    
