data_mof_unit_31456.cif
_audit_creation_date              2012-12-11T18:05:00-0500
_audit_creation_method            fapswitch 2.2
_symmetry_space_group_name_H-M    P1
_symmetry_Int_Tables_number       1
_space_group_crystal_system       triclinic
_cell_length_a                    8.336396
_cell_length_b                    12.796603
_cell_length_c                    22.928941
_cell_angle_alpha                 96.899387
_cell_angle_beta                  89.21535
_cell_angle_gamma                 99.385443
_cell_volume                      2395.74142325

loop_
_atom_site_label
_atom_site_type_symbol
_atom_type_description
_atom_site_fract_x
_atom_site_fract_y
_atom_site_fract_z
_atom_type_partial_charge
Ba1   Ba    Ba6+2 0.856210 0.551220 0.472190 1.629932
Ba2   Ba    Ba6+2 0.333620 0.448870 0.527810 1.648872
C1    C     C_3   0.678460 0.914394 0.288415 -0.393533
C2    C     C_R   0.093089 0.591310 0.940940 -0.027092
C3    C     C_R   0.050466 0.584673 0.880496 0.591068
C4    C     C_3   0.231659 0.861913 0.321352 0.319283
C5    C     C_R   0.982772 0.394212 0.875382 0.587225
C6    C     C_R   0.021279 0.398466 0.935697 -0.021545
C7    C     C_R   0.076807 0.497551 0.968661 -0.051222
C8    C     C_R   0.150567 0.689588 0.974590 -0.073567
C9    C     C_R   0.191194 0.694539 0.034167 -0.084190
C10   C     C_R   0.174914 0.601477 0.062471 -0.028118
C11   C     C_R   0.116807 0.502670 0.029517 -0.050315
C12   C     C_3   0.651878 0.816382 0.321057 0.369855
C13   C     C_R   0.005393 0.305320 0.963820 -0.076947
C14   C     C_R   0.043235 0.310401 0.023444 -0.076470
C15   C     C_R   0.099450 0.408740 0.057077 -0.025166
C16   C     C_3   0.212368 0.912784 0.265368 0.004752
C17   C     C_R   0.140344 0.414786 0.117376 0.583143
C18   C     C_R   0.216234 0.604868 0.122725 0.593070
C19   C     C_2   0.798292 0.423727 0.767685 -0.089647
C20   C     C_3   0.763186 0.393107 0.702672 -0.067469
C21   C     C_1   0.010036 0.518091 0.684440 0.055459
C22   C     C_2   0.056712 0.527578 0.740734 -0.077570
C23   C     C_3   0.482244 0.270190 0.349274 0.299707
C24   C     C_2   0.944634 0.479852 0.786331 0.214629
C25   C     C_R   0.408776 0.558914 0.229689 -0.113077
C26   C     C_R   0.462479 0.547832 0.286202 -0.018682
C27   C     C_R   0.192157 0.462591 0.310492 0.015325
C28   C     C_3   0.195630 0.789593 0.606528 0.259495
C29   C     C_R   0.137455 0.470985 0.253363 -0.057397
C30   C     C_R   0.247402 0.515285 0.211264 0.230034
C31   C     C_2   0.874105 0.458018 0.663561 -0.270070
C32   C     C_R   0.753341 0.181893 0.529481 -0.270682
C33   C     C_R   0.415218 0.815219 0.486144 -0.066392
C34   C     C_3   0.478903 0.231947 0.283830 -0.377925
C35   C     C_R   0.399729 0.991551 0.462673 -0.137618
C36   C     C_R   0.333005 0.884794 0.460391 -0.009384
C37   C     C_R   0.568623 0.850146 0.512549 0.046371
C38   C     C_R   0.633760 0.961122 0.518163 -0.074726
C39   C     C_R   0.547346 0.032124 0.492666 -0.054859
C40   C     C_3   0.151992 0.899313 0.624417 -0.338093
C41   C     C_R   0.610677 0.142251 0.497841 0.065848
C42   C     C_R   0.844235 0.113137 0.551203 -0.034514
C43   C     C_R   0.783208 0.003703 0.547172 -0.094189
C44   C     C_3   0.971165 0.227232 0.410025 0.291809
C45   C     C_3   0.960365 0.146955 0.683896 0.288829
C46   C     C_3   0.933629 0.106450 0.397311 -0.385241
C47   C     C_3   0.716932 0.684291 0.644368 0.297475
C48   C     C_3   0.742321 0.711442 0.710365 -0.359229
C49   C     C_3   0.377718 0.641256 0.432410 0.020649
C50   C     C_3   0.069104 0.887069 0.171497 -0.170518
C51   C     C_3   0.996994 0.121786 0.744903 -0.302419
C52   C     C_3   0.484865 0.177089 0.682977 0.388898
C53   C     C_3   0.469230 0.097721 0.727829 -0.381050
C54   C     C_R   0.357747 0.489783 0.322523 -0.284388
H1    H     H_    0.703588 0.838406 0.366172 0.058243
H2    H     H_    0.829579 0.661329 0.624449 0.007004
H3    H     H_    0.615690 0.616310 0.636255 0.091482
H4    H     H_    0.613016 0.976620 0.310832 0.084685
H5    H     H_    0.849009 0.775514 0.719623 0.127856
H6    H     H_    0.763693 0.640121 0.730237 0.072460
H7    H     H_    0.632599 0.738959 0.730794 0.137037
H8    H     H_    0.519632 0.788822 0.323275 -0.091309
H9    H     H_    0.631417 0.892886 0.242733 0.129610
H10   H     H_    0.358405 0.284916 0.362582 0.020871
H11   H     H_    0.572580 0.344606 0.357074 0.057730
H12   H     H_    0.225754 0.939534 0.662998 0.119191
H13   H     H_    0.389761 0.157392 0.274452 0.113024
H14   H     H_    0.443091 0.293725 0.258852 0.087244
H15   H     H_    0.601290 0.216383 0.269196 0.130965
H16   H     H_    0.810138 0.946922 0.287036 0.130081
H17   H     H_    0.332309 0.925772 0.243277 0.066908
H18   H     H_    0.927670 0.228112 0.687715 0.019539
H19   H     H_    0.855936 0.086731 0.665995 -0.024987
H20   H     H_    0.098964 0.181381 0.765118 0.168558
H21   H     H_    0.887523 0.123907 0.772866 0.115884
H22   H     H_    0.030445 0.040817 0.742225 0.095261
H23   H     H_    0.177069 0.947660 0.587387 0.106536
H24   H     H_    0.614688 0.190101 0.669436 -0.119442
H25   H     H_    0.410975 0.141328 0.643486 0.081674
H26   H     H_    0.547335 0.131466 0.766630 0.123459
H27   H     H_    0.508847 0.022570 0.708063 0.074735
H28   H     H_    0.248160 0.777424 0.309639 0.026421
H29   H     H_    0.341251 0.079818 0.742295 0.130055
H30   H     H_    0.028780 0.236599 0.043106 0.119637
H31   H     H_    0.962943 0.227760 0.939779 0.119681
H32   H     H_    0.235605 0.771889 0.058051 0.107281
H33   H     H_    0.492763 0.598808 0.199903 0.105859
H34   H     H_    0.021234 0.892439 0.635945 0.117670
H35   H     H_    0.164778 0.763331 0.954888 0.120170
H36   H     H_    0.177555 0.568457 0.753906 0.120647
H37   H     H_    0.713241 0.388355 0.798884 0.102389
H38   H     H_    0.011903 0.441400 0.241202 0.114121
H39   H     H_    0.404267 0.471282 0.362810 0.001520
H40   H     H_    0.340853 0.908939 0.344562 -0.087704
H41   H     H_    0.853270 0.438915 0.616597 0.077716
H42   H     H_    0.331899 0.041661 0.441692 0.113496
H43   H     H_    0.854943 0.953462 0.566074 0.098907
H44   H     H_    0.801490 0.266225 0.532681 0.053022
H45   H     H_    0.863810 0.258226 0.429425 0.006250
H46   H     H_    0.173144 0.991640 0.277214 0.068789
H47   H     H_    0.327736 0.799887 0.597744 -0.006833
H48   H     H_    0.122364 0.754125 0.566950 0.076398
H49   H     H_    0.319840 0.671996 0.521710 0.193688
H50   H     H_    0.270818 0.593942 0.413080 0.106425
H51   H     H_    0.445680 0.579619 0.443217 0.143007
H52   H     H_    0.424865 0.689835 0.397254 -0.028856
H53   H     H_    0.988087 0.815842 0.245268 0.260028
H54   H     H_    0.009761 0.958998 0.180660 0.090321
H55   H     H_    0.989042 0.825853 0.141923 0.117907
H56   H     H_    0.073832 0.248205 0.441519 0.090082
H57   H     H_    0.186494 0.908095 0.148810 0.128222
H58   H     H_    0.815143 0.083111 0.374241 0.114762
H59   H     H_    0.927365 0.069391 0.438551 0.099719
H60   H     H_    0.030476 0.076241 0.369631 0.140026
N1    N     N_R   0.994419 0.486751 0.848226 -0.422943
N2    N     N_R   0.198066 0.512155 0.149859 -0.425929
N3    N     N_2   0.341018 0.707466 0.483965 -0.430026
N4    N     N_2   0.095204 0.844716 0.225636 -0.383518
O1    O     O_2   0.890290 0.440320 0.360790 -0.446522
O2    O     O_2   0.176833 0.117528 0.538440 -0.489789
O3    O     O_3   0.098414 0.142169 0.648580 -0.584253
O4    O     O_3   0.130840 0.441440 0.431840 -0.524705
O5    O     O_3   0.574800 0.630800 0.528960 -0.509741
O6    O     O_2   0.344900 0.234690 0.472540 -0.473309
O7    O     O_3   0.527798 0.191418 0.379836 -0.651597
O8    O     O_2   0.468405 0.477863 0.706715 -0.483321
O9    O     O_3   0.427578 0.270577 0.707746 -0.563951
O10   O     O_2   0.061235 0.666286 0.857005 -0.594412
O11   O     O_2   0.939743 0.307435 0.846878 -0.623346
O12   O     O_3   0.679323 0.774050 0.621433 -0.640269
O13   O     O_2   0.127187 0.332781 0.140662 -0.600695
O14   O     O_2   0.268178 0.690527 0.150969 -0.593569
O15   O     O_3   0.672400 0.637930 0.395560 -0.497874
O16   O     O_2   0.795764 0.551523 0.294946 -0.465923
O17   O     O_3   0.010605 0.269013 0.357160 -0.624597
O18   O     O_3   0.728898 0.737361 0.290281 -0.586883
O19   O     O_2   0.844800 0.765340 0.527490 -0.465968
O20   O     O_3   0.090520 0.693800 0.424220 -0.460312
O21   O     O_2   0.000505 0.880125 0.463783 -0.476548
O22   O     O_3   0.092878 0.866224 0.356147 -0.598691
O23   O     O_2   0.299410 0.559720 0.639240 -0.451270
O24   O     O_3   0.058870 0.558650 0.568170 -0.515703
O25   O     O_3   0.517310 0.362160 0.604450 -0.470984
O26   O     O_3   0.164624 0.729521 0.653512 -0.625238
O27   O     O_3   0.614910 0.369290 0.471050 -0.486154
O28   O     O_3   0.099190 0.306290 0.575790 -0.463506
P1    P     P_3+3 0.057140 0.408270 0.369700 0.980097
P2    P     P_3+3 0.667360 0.749400 0.544670 0.972259
P3    P     P_3+3 0.131713 0.833199 0.425945 0.984496
P4    P     P_3+3 0.132580 0.591820 0.630310 0.974412
P5    P     P_3+3 0.052237 0.168348 0.578150 0.952511
P6    P     P_3+3 0.662035 0.616061 0.317530 0.975298
P7    P     P_3+3 0.527788 0.234224 0.455280 0.932755
P8    P     P_3+3 0.544987 0.380267 0.680782 0.976166

loop_
_geom_bond_atom_site_label_1
_geom_bond_atom_site_label_2
_ccdc_geom_bond_type
C54   H39   S    
C26   P6    S    
O4    P1    S    
Ba2   O23   S    
C44   H56   S    
O12   P2    S    
C5    N1    Am   
C33   N3    S    
C23   H11   S    
C24   N1    S    
C21   P4    S    
C18   N2    Am   
C26   C54   A    
C5    C6    A    
C20   P8    S    
C50   H57   S    
C42   C43   A    
Ba2   O25   S    
C30   N2    S    
C37   P2    S    
O15   P6    S    
C42   P5    S    
C46   H58   S    
Ba1   O5    S    
Ba2   O28   S    
C13   C14   A    
Ba2   O24   S    
Ba1   Ba2   S    
C16   H46   S    
C12   H1    S    
C7    C11   A    
O25   P8    S    
C45   O3    S    
C12   O18   S    
C17   N2    Am   
C6    C7    A    
C21   C31   D    
C28   H47   S    
C49   N3    S    
C21   C22   D    
Ba1   P1    S    
C4    O22   S    
O27   P7    S    
C5    O11   D    
Ba1   O19   S    
C34   H15   S    
C46   H60   S    
C1    H4    S    
O18   P6    S    
C40   H23   S    
C19   C20   S    
C40   H12   S    
C48   H7    S    
C39   C41   A    
O17   P1    S    
C1    H9    S    
C41   P7    S    
C22   H36   S    
C35   H42   S    
C44   H45   S    
C19   C24   D    
C34   H14   S    
C28   O26   S    
C52   H24   S    
Ba2   P4    S    
C38   C43   A    
C4    C16   S    
C47   O12   S    
C44   C46   S    
C4    H28   S    
C32   C41   A    
C33   C36   A    
C32   C42   A    
C43   H43   S    
O7    P7    S    
C37   C38   A    
C14   C15   A    
C50   H55   S    
Ba2   O27   S    
C47   H2    S    
C3    N1    Am   
C40   H34   S    
C25   H33   S    
O22   P3    S    
C53   H29   S    
C33   C37   A    
C35   C36   A    
O16   P6    D    
C32   H44   S    
C29   C30   A    
C50   H54   S    
C9    H32   S    
C12   H8    S    
C10   C18   A    
Ba1   P2    S    
C53   H26   S    
C1    C12   S    
O20   P3    S    
Ba1   O20   S    
C46   H59   S    
O26   P4    S    
C50   N4    S    
C49   H51   S    
C38   C39   A    
C8    H35   S    
C49   H52   S    
C6    C13   A    
C4    H40   S    
C8    C9    A    
C44   O17   S    
C51   H21   S    
C48   H6    S    
O2    P5    D    
Ba1   O27   S    
C51   H20   S    
C17   O13   D    
O28   P5    S    
C2    C8    A    
Ba2   O6    S    
C36   P3    S    
C34   H13   S    
O21   P3    D    
C13   H31   S    
O3    P5    S    
C20   C31   S    
C52   C53   S    
C3    O10   D    
C25   C30   A    
C52   O9    S    
H49   N3    S    
C23   H10   S    
C45   H18   S    
C22   C24   S    
C2    C3    A    
O9    P8    S    
C9    C10   A    
C27   C54   A    
Ba2   O4    S    
C16   H17   S    
C29   H38   S    
O19   P2    D    
C47   H3    S    
C11   C15   A    
C51   H22   S    
C23   O7    S    
Ba1   O4    S    
C45   H19   S    
C27   C29   A    
Ba1   O24   S    
O6    P7    D    
C19   H37   S    
C14   H30   S    
C49   H50   S    
C45   C51   S    
C15   C17   A    
O1    P1    D    
C1    H16   S    
C31   H41   S    
C35   C39   A    
Ba1   O1    S    
O5    P2    S    
O8    P8    D    
C23   C34   S    
C27   P1    S    
Ba2   O5    S    
C10   C11   A    
O24   P4    S    
C47   C48   S    
C28   H48   S    
C25   C26   A    
C48   H5    S    
C28   C40   S    
C18   O14   D    
C2    C7    A    
Ba1   O15   S    
C53   H27   S    
C52   H25   S    
O23   P4    D    
H53   N4    S    
C16   N4    S    
