data_mof_unit_21834.cif
_audit_creation_date              2012-12-10T17:48:49-0500
_audit_creation_method            fapswitch 2.2
_symmetry_space_group_name_H-M    P1
_symmetry_Int_Tables_number       1
_space_group_crystal_system       triclinic
_cell_length_a                    10.810219
_cell_length_b                    14.711485
_cell_length_c                    14.76578
_cell_angle_alpha                 64.919618
_cell_angle_beta                  104.451229
_cell_angle_gamma                 103.326529
_cell_volume                      2038.63604261

loop_
_atom_site_label
_atom_site_type_symbol
_atom_type_description
_atom_site_fract_x
_atom_site_fract_y
_atom_site_fract_z
_atom_type_partial_charge
C1    C     C_R   0.478960 0.119712 0.312235 0.830909
C2    C     C_3   0.879534 0.993896 0.514233 -0.195288
C3    C     C_3   0.973363 0.023953 0.604225 0.863905
C4    C     C_3   0.914059 0.075191 0.408294 -0.372315
C5    C     C_R   0.475631 0.187460 0.205015 -0.054509
C6    C     C_R   0.541518 0.813133 0.795771 -0.039763
C7    C     C_R   0.465668 0.216897 0.029532 -0.195807
C8    C     C_R   0.459986 0.149894 0.129588 -0.172323
C9    C     C_R   0.495920 0.292135 0.179348 -0.221138
C10   C     C_R   0.509290 0.361143 0.080342 0.099042
C11   C     C_R   0.489998 0.321964 0.004386 0.160724
C12   C     C_R   0.260242 0.000091 0.500194 0.893138
C13   C     C_R   0.538697 0.467740 0.054628 0.054369
C14   C     C_R   0.533024 0.534162 0.950968 0.069829
C15   C     C_R   0.515563 0.491953 0.877591 -0.195914
C16   C     C_R   0.495476 0.387899 0.904232 -0.200848
C17   C     C_R   0.577025 0.509623 0.129422 -0.258617
C18   C     C_R   0.600140 0.613921 0.103715 -0.040422
C19   C     C_R   0.583052 0.680550 0.001075 0.108530
C20   C     C_R   0.547458 0.640635 0.924199 0.077788
C21   C     C_R   0.600370 0.786437 0.973238 -0.175594
C22   C     C_R   0.580714 0.851938 0.871598 -0.191337
C23   C     C_R   0.522168 0.880328 0.687846 0.770513
C24   C     C_R   0.523438 0.708522 0.822495 -0.234901
C25   C     C_R   0.694399 0.272445 0.685349 -0.315365
C26   C     C_R   0.664818 0.194510 0.650522 0.112476
C27   C     C_R   0.535791 0.292706 0.501188 0.007531
C28   C     C_R   0.559641 0.374937 0.533346 -0.036502
C29   C     C_R   0.640045 0.362680 0.628629 0.105321
C30   C     C_R   0.502762 0.466407 0.476258 0.080102
C31   C     C_R   0.521798 0.542194 0.517344 0.125332
C32   C     C_R   0.602270 0.526192 0.612259 -0.249161
C33   C     C_R   0.662262 0.439513 0.666378 -0.026551
C34   C     C_R   0.740503 0.994214 0.509901 0.808271
C35   C     C_R   0.427333 0.484659 0.379220 -0.247516
C36   C     C_R   0.363582 0.568763 0.328129 -0.123309
C37   C     C_R   0.371842 0.639186 0.370775 -0.010592
C38   C     C_R   0.457710 0.630775 0.462742 -0.062385
C39   C     C_R   0.298790 0.720383 0.320057 0.303221
C40   C     C_R   0.324046 0.799810 0.354808 0.587876
C41   C     C_R   0.477839 0.713088 0.494077 -0.094778
C42   C     C_3   0.047770 0.886489 0.528634 -0.329649
C43   C     C_3   0.902414 0.888661 0.518702 0.264086
C44   C     C_3   0.117361 0.030574 0.593202 -0.284630
C45   C     C_3   0.054693 0.070660 0.402372 0.280268
C46   C     C_3   0.123993 0.997190 0.507112 -0.224634
Cu1   Cu    Cu3+1 0.465900 0.918260 0.475680 0.989294
Cu2   Cu    Cu3+1 0.534100 0.081740 0.524320 0.958913
H1    H     H_    0.164730 0.109277 0.572940 0.133447
H2    H     H_    0.482972 0.358904 0.845661 0.142439
H3    H     H_    0.486948 0.681524 0.762261 0.151629
H4    H     H_    0.595682 0.932892 0.852486 0.152427
H5    H     H_    0.452241 0.186593 0.971874 0.140120
H6    H     H_    0.444155 0.069066 0.147915 0.184450
H7    H     H_    0.498665 0.318096 0.237956 0.146613
H8    H     H_    0.056634 0.862683 0.468814 0.122566
H9    H     H_    0.521231 0.537266 0.798900 0.129377
H10   H     H_    0.594618 0.462811 0.209379 0.151088
H11   H     H_    0.628932 0.819425 0.029715 0.148156
H12   H     H_    0.548394 0.716148 0.558860 0.179116
H13   H     H_    0.308392 0.578792 0.253305 0.182479
H14   H     H_    0.756817 0.260089 0.758113 0.147705
H15   H     H_    0.703199 0.124531 0.697178 0.109329
H16   H     H_    0.475215 0.295698 0.430686 0.111138
H17   H     H_    0.863655 0.893318 0.439748 0.135184
H18   H     H_    0.618662 0.579599 0.647533 0.129494
H19   H     H_    0.415762 0.435451 0.339734 0.122716
H20   H     H_    0.039643 0.028721 0.352348 0.103066
H21   H     H_    0.848718 0.052528 0.347500 0.098959
N1    N     N_R   0.585360 0.204570 0.560800 -0.174049
N2    N     N_R   0.414550 0.795430 0.439160 -0.244249
O1    O     O_R   0.455060 0.022100 0.338110 -0.531344
O2    O     O_R   0.512640 0.160150 0.379180 -0.593982
O3    O     O_R   0.288900 0.930980 0.479450 -0.571547
O4    O     O_R   0.346480 0.069030 0.520520 -0.592363
O5    O     O_R   0.487360 0.839850 0.620820 -0.596685
O6    O     O_R   0.544940 0.977900 0.661890 -0.613739
O7    O     O_R   0.653520 0.930970 0.479480 -0.564390
O8    O     O_R   0.711100 0.069020 0.520550 -0.549070
C47   C     C_1   0.102124 0.808117 0.624073 0.374812
N3    N     N_1   0.145403 0.746386 0.698261 -0.276632
C48   C     C_1   0.882954 0.177757 0.379496 0.431741
N4    N     N_1   0.857202 0.257696 0.356468 -0.280577
O9    O     O_3   0.949162 0.120726 0.592661 -0.587403
C49   C     C_3   0.036443 0.164635 0.657383 -0.358939
H22   H     H_    0.095635 0.111166 0.722292 0.173744
H23   H     H_    0.980427 0.195503 0.688682 0.190159
H24   H     H_    0.101649 0.229217 0.612368 0.165266
C50   C     C_1   0.639734 0.650052 0.185285 0.220918
N5    N     N_1   0.671370 0.678780 0.250591 -0.280487
C51   C     C_1   0.744096 0.430647 0.762851 0.218719
N6    N     N_1   0.809408 0.423735 0.839979 -0.270399
O10   O     O_3   0.273260 0.889411 0.296241 -0.542135
C52   C     C_3   0.137990 0.874078 0.288181 -0.250284
H25   H     H_    0.108643 0.944539 0.280501 0.163542
H26   H     H_    0.102270 0.811312 0.355537 0.111194
H27   H     H_    0.090543 0.861826 0.217693 0.202640
O11   O     O_3   0.212684 0.728481 0.230849 -0.564462
C53   C     C_3   0.097056 0.661917 0.254358 -0.332409
H28   H     H_    0.020325 0.684383 0.186568 0.200835
H29   H     H_    0.062943 0.665218 0.317926 0.145236
H30   H     H_    0.107395 0.582412 0.272803 0.171493
O12   O     O_3   0.829468 0.794079 0.571489 -0.573209
C54   C     C_3   0.821351 0.773857 0.671832 -0.168296
H31   H     H_    0.917038 0.775982 0.720469 0.214882
H32   H     H_    0.758798 0.822381 0.673887 0.152746
H33   H     H_    0.772843 0.695081 0.705437 0.143377
C55   C     C_1   0.199306 0.977524 0.691203 0.306132
N7    N     N_1   0.263409 0.936731 0.767567 -0.260373
O13   O     O_3   0.954052 0.946512 0.701341 -0.632945
C56   C     C_3   0.870795 0.962520 0.751627 -0.332294
H34   H     H_    0.834092 0.887945 0.806895 0.169885
H35   H     H_    0.786622 0.996556 0.699813 0.196718
H36   H     H_    0.923536 0.007958 0.796657 0.182948
O14   O     O_3   0.127174 0.163970 0.346251 -0.567511
C57   C     C_3   0.169123 0.236330 0.390963 -0.254933
H37   H     H_    0.266859 0.227816 0.435416 0.170849
H38   H     H_    0.105631 0.236033 0.438973 0.163407
H39   H     H_    0.175484 0.312874 0.329149 0.174371

loop_
_geom_bond_atom_site_label_1
_geom_bond_atom_site_label_2
_ccdc_geom_bond_type
C44   H1    S    
C42   C47   S    
O10   C52   S    
C40   N2    A    
C12   O3    A    
C35   C36   A    
C40   O10   S    
C54   H32   S    
C7    C8    A    
C45   C46   S    
C57   H37   S    
C7    C11   A    
C30   C35   A    
C1    C5    S    
Cu2   O8    S    
C22   H4    S    
C28   C29   A    
C19   C21   A    
C16   H2    S    
Cu1   O5    S    
C21   H11   S    
C33   C51   S    
C30   C31   A    
C3    O13   S    
C15   C16   A    
C6    C22   A    
C29   C33   A    
C55   N7    T    
C18   C19   A    
C42   C46   S    
C20   C24   A    
O13   C56   S    
C4    H21   S    
C42   H8    S    
C19   C20   A    
C9    H7    S    
C9    C10   A    
C23   O5    A    
C17   H10   S    
C41   N2    A    
C2    C34   S    
C24   H3    S    
C49   H23   S    
C21   C22   A    
C15   H9    S    
Cu2   O4    S    
C54   H31   S    
C44   C46   S    
C4    C45   S    
C44   C55   S    
C25   C29   A    
C3    C44   S    
C1    O1    A    
Cu1   Cu2   S    
C14   C20   A    
O9    C49   S    
Cu1   O3    S    
C38   C41   A    
C12   C46   S    
C10   C11   A    
C8    H6    S    
C51   N6    T    
C39   O11   S    
C3    O9    S    
C52   H27   S    
C25   C26   A    
C49   H22   S    
Cu2   O6    S    
C2    C4    S    
C26   H15   S    
C5    C9    A    
C37   C38   A    
C34   O8    A    
C11   C16   A    
C45   O14   S    
C53   H28   S    
C35   H19   S    
C2    C43   S    
C43   H17   S    
C6    C24   A    
C45   H20   S    
C17   C18   A    
C56   H35   S    
C23   O6    A    
C52   H26   S    
Cu1   N2    S    
C27   N1    A    
C53   H29   S    
O11   C53   S    
C26   N1    A    
C42   C43   S    
C7    H5    S    
C36   H13   S    
C39   C40   A    
C32   H18   S    
C49   H24   S    
C36   C37   A    
C56   H34   S    
C18   C50   S    
Cu2   O2    S    
C31   C32   A    
C41   H12   S    
Cu2   N1    S    
C47   N3    T    
C10   C13   A    
C5    C8    A    
C57   H39   S    
C31   C38   A    
C13   C17   A    
C1    O2    A    
C32   C33   A    
C28   C30   A    
C2    C3    S    
C37   C39   A    
C34   O7    A    
C6    C23   S    
C57   H38   S    
C56   H36   S    
C25   H14   S    
C52   H25   S    
C43   O12   S    
Cu1   O1    S    
C27   H16   S    
C53   H30   S    
C4    C48   S    
C48   N4    T    
C12   O4    A    
O12   C54   S    
C14   C15   A    
Cu1   O7    S    
C50   N5    T    
C13   C14   A    
C54   H33   S    
O14   C57   S    
C27   C28   A    
