data_mof_unit_50513.cif
_audit_creation_date              2012-12-10T17:52:32-0500
_audit_creation_method            fapswitch 2.2
_symmetry_space_group_name_H-M    P1
_symmetry_Int_Tables_number       1
_space_group_crystal_system       triclinic
_cell_length_a                    14.682554
_cell_length_b                    14.877227
_cell_length_c                    23.494545
_cell_angle_alpha                 75.840237
_cell_angle_beta                  101.730003
_cell_angle_gamma                 115.59612
_cell_volume                      4459.7254564

loop_
_atom_site_label
_atom_site_type_symbol
_atom_type_description
_atom_site_fract_x
_atom_site_fract_y
_atom_site_fract_z
_atom_type_partial_charge
C1    C     C_R   0.879876 0.312492 0.511064 0.806589
C2    C     C_R   0.119715 0.687371 0.491972 0.792056
C3    C     C_R   0.958928 0.555682 0.747526 -0.136634
C4    C     C_R   0.934498 0.523206 0.225999 -0.139052
C5    C     C_R   0.958210 0.556402 0.688087 -0.243922
C6    C     C_R   0.933064 0.524459 0.284823 -0.212303
C7    C     C_R   0.998254 0.497915 0.671510 -0.118011
C8    C     C_R   0.002728 0.499208 0.328853 -0.123362
C9    C     C_R   0.040608 0.439464 0.715357 -0.188047
C10   C     C_R   0.073775 0.472479 0.312953 -0.208885
C11   C     C_R   0.042620 0.438478 0.775183 0.467323
C12   C     C_R   0.075503 0.470191 0.254103 0.466485
C13   C     C_R   0.000527 0.497010 0.791335 0.250952
C14   C     C_R   0.005080 0.496426 0.210121 0.250295
C15   C     C_R   0.810915 0.205231 0.523768 -0.056999
C16   C     C_R   0.186552 0.794404 0.492910 -0.056166
C17   C     C_R   0.779982 0.030145 0.564997 -0.186721
C18   C     C_R   0.214679 0.971171 0.474992 -0.181500
C19   C     C_R   0.847708 0.130168 0.549410 -0.183418
C20   C     C_R   0.149198 0.870264 0.473987 -0.187558
C21   C     C_R   0.706144 0.179188 0.513694 -0.238813
C22   C     C_R   0.288768 0.820148 0.514782 -0.249530
C23   C     C_R   0.999121 0.499488 0.608835 0.815901
C24   C     C_R   0.000924 0.500033 0.391170 0.822089
C25   C     C_R   0.636457 0.079880 0.531299 0.089157
C26   C     C_R   0.356860 0.921329 0.515361 0.093553
C27   C     C_R   0.674882 0.004441 0.556043 0.164408
C28   C     C_R   0.318388 0.997443 0.494249 0.159209
C29   C     C_R   0.529768 0.053121 0.523053 0.063290
C30   C     C_R   0.462714 0.949107 0.533168 0.069265
C31   C     C_R   0.503956 0.876621 0.560152 -0.213312
C32   C     C_R   0.487889 0.126755 0.505394 -0.205746
C33   C     C_R   0.608127 0.904172 0.571556 -0.219932
C34   C     C_R   0.383928 0.099020 0.491761 -0.207750
C35   C     C_R   0.673560 0.566126 0.376538 0.302445
C36   C     C_R   0.290380 0.352365 0.614675 0.299075
C37   C     C_R   0.773222 0.584243 0.402151 -0.064285
C38   C     C_R   0.205817 0.376384 0.591254 -0.058470
C39   C     C_R   0.723885 0.538626 0.498628 0.225605
C40   C     C_R   0.283073 0.473517 0.503591 0.203733
C41   C     C_R   0.618579 0.505548 0.475565 -0.111634
C42   C     C_R   0.361662 0.436065 0.521326 -0.096764
C43   C     C_R   0.595333 0.521908 0.413231 0.085070
C44   C     C_R   0.370741 0.386170 0.580189 0.084810
C45   C     C_R   0.075172 0.576841 0.117029 0.536115
C46   C     C_R   0.927719 0.418834 0.883734 0.535573
C47   C     C_R   0.535673 0.461132 0.511303 0.078882
C48   C     C_R   0.437689 0.455379 0.485005 0.094123
C49   C     C_R   0.416407 0.460696 0.423658 -0.256385
C50   C     C_R   0.544086 0.414190 0.570804 -0.280415
C51   C     C_R   0.493890 0.494352 0.388255 -0.120250
C52   C     C_R   0.461273 0.373015 0.603776 -0.118237
C53   C     C_R   0.932104 0.417288 0.123839 0.538992
C54   C     C_R   0.071862 0.577554 0.877164 0.538621
C55   C     C_R   0.929177 0.416247 0.063960 -0.017279
C56   C     C_R   0.073763 0.579408 0.936800 -0.017680
C57   C     C_R   0.001842 0.497775 0.030464 -0.016515
C58   C     C_R   0.000794 0.498116 0.970228 -0.016710
C59   C     C_R   0.075612 0.578911 0.057078 -0.018187
C60   C     C_R   0.926894 0.417075 0.943587 -0.018163
C61   C     C_R   0.855729 0.335927 0.036929 -0.153838
C62   C     C_R   0.146869 0.659992 0.963752 -0.152951
C63   C     C_R   0.854531 0.336390 0.977333 -0.151356
C64   C     C_R   0.147723 0.659793 0.023270 -0.151400
Cu1   Cu    Cu3+1 0.081740 0.475680 0.515360 0.931970
Cu2   Cu    Cu3+1 0.918260 0.524320 0.484640 0.933009
H1    H     H_    0.799006 0.272452 0.061714 0.192423
H2    H     H_    0.203706 0.723377 0.938993 0.192928
H3    H     H_    0.809768 0.972896 0.584368 0.139259
H4    H     H_    0.184682 0.028962 0.459426 0.139910
H5    H     H_    0.457699 0.797896 0.574426 0.143200
H6    H     H_    0.533389 0.206829 0.502663 0.151613
H7    H     H_    0.473840 0.499959 0.340916 0.210634
H8    H     H_    0.470285 0.335017 0.648838 0.203435
H9    H     H_    0.142444 0.348385 0.616772 0.136879
H10   H     H_    0.832647 0.614069 0.373732 0.138042
H11   H     H_    0.338972 0.434155 0.402901 0.157075
H12   H     H_    0.612948 0.404549 0.591398 0.156025
H13   H     H_    0.796958 0.273236 0.957876 0.192908
H14   H     H_    0.205163 0.723049 0.042697 0.192894
H15   H     H_    0.927650 0.601361 0.759706 0.156505
H16   H     H_    0.880562 0.543243 0.192433 0.161034
H17   H     H_    0.928761 0.604472 0.655121 0.168977
H18   H     H_    0.877415 0.545329 0.295703 0.162309
H19   H     H_    0.072424 0.394155 0.703207 0.165633
H20   H     H_    0.127827 0.452208 0.346318 0.167752
H21   H     H_    0.636580 0.846152 0.591789 0.143246
H22   H     H_    0.355026 0.157785 0.477483 0.152806
H23   H     H_    0.314028 0.759731 0.529380 0.160339
H24   H     H_    0.680512 0.237697 0.491010 0.157967
H25   H     H_    0.069767 0.851840 0.457935 0.155832
H26   H     H_    0.928576 0.148771 0.557857 0.158525
N1    N     N_R   0.004457 0.496628 0.149001 -0.479559
N2    N     N_R   0.999921 0.497878 0.852121 -0.480015
N3    N     N_R   0.795430 0.560810 0.461550 -0.200742
N4    N     N_R   0.204570 0.439190 0.538450 -0.203909
O1    O     O_R   0.977900 0.338110 0.520250 -0.581353
O2    O     O_R   0.022100 0.661890 0.479750 -0.591179
O3    O     O_R   0.839850 0.379180 0.494310 -0.573028
O4    O     O_R   0.160150 0.620820 0.505690 -0.593514
O5    O     O_R   0.069020 0.479430 0.595090 -0.583602
O6    O     O_R   0.930980 0.520570 0.404910 -0.586650
O7    O     O_R   0.930970 0.520500 0.569150 -0.589060
O8    O     O_R   0.069030 0.479500 0.430850 -0.603355
O9    O     O_2   0.144652 0.654163 0.143257 -0.520466
O10   O     O_2   0.857335 0.342213 0.857290 -0.520157
O11   O     O_2   0.863557 0.339643 0.156780 -0.524948
O12   O     O_2   0.141583 0.654264 0.844494 -0.523972
C65   C     C_3   0.297109 0.564184 0.453115 -0.349112
C66   C     C_3   0.394717 0.657315 0.465529 -0.385517
C67   C     C_3   0.400445 0.751044 0.419132 -0.805005
H27   H     H_    0.404098 0.738940 0.374979 0.267506
H28   H     H_    0.333021 0.767734 0.417186 0.253804
H29   H     H_    0.469777 0.817366 0.430620 0.253568
H30   H     H_    0.397134 0.672363 0.509865 0.214440
H31   H     H_    0.463342 0.644014 0.465452 0.236576
H32   H     H_    0.294692 0.546605 0.409857 0.168667
H33   H     H_    0.234647 0.587488 0.445308 0.256725
C68   C     C_3   0.758465 0.584141 0.554587 -0.400902
C69   C     C_3   0.839120 0.693906 0.543972 -0.311008
C70   C     C_3   0.841716 0.754998 0.588463 -0.884782
H34   H     H_    0.769770 0.765901 0.581648 0.250578
H35   H     H_    0.851839 0.715999 0.634470 0.257550
H36   H     H_    0.905693 0.830656 0.582021 0.250297
H37   H     H_    0.915368 0.693692 0.546833 0.248129
H38   H     H_    0.822343 0.733565 0.499051 0.216813
H39   H     H_    0.693461 0.587846 0.569610 0.200813
H40   H     H_    0.785854 0.535523 0.590829 0.200463
O13   O     O_3   0.650842 0.587229 0.315989 -0.729498
H41   H     H_    0.714479 0.617350 0.296965 0.320695
O14   O     O_3   0.295789 0.296613 0.670749 -0.724681
H42   H     H_    0.233596 0.279629 0.688816 0.329987
O15   O     O_3   0.086711 0.380372 0.815861 -0.710303
H43   H     H_    0.088362 0.390607 0.856163 0.335580
O16   O     O_3   0.146136 0.441399 0.241849 -0.720734
H44   H     H_    0.135572 0.437247 0.199466 0.336296

loop_
_geom_bond_atom_site_label_1
_geom_bond_atom_site_label_2
_ccdc_geom_bond_type
C18   H4    S    
C17   H3    S    
C64   H14   S    
Cu2   O6    S    
C67   H27   S    
Cu1   O5    S    
C45   N1    A    
C1    O3    A    
C65   H32   S    
O16   H44   S    
C39   C41   A    
C63   H13   S    
C27   C33   A    
C15   C19   A    
C59   C64   A    
C60   C63   A    
C35   C37   A    
C29   C32   A    
C52   H8    S    
C11   O15   S    
C30   C31   A    
C5    H17   S    
C69   H38   S    
C57   C59   A    
C58   C60   A    
C55   C61   A    
C37   N3    A    
C61   C63   A    
C61   H1    S    
C66   C67   S    
C70   H36   S    
C62   C64   A    
C19   H26   S    
C9    H19   S    
Cu1   N4    S    
C23   O7    A    
C56   C58   A    
C49   C51   A    
C12   O16   S    
C3    H15   S    
C50   C52   A    
C31   C33   A    
C1    C15   S    
C2    C16   S    
C35   O13   S    
C14   N1    S    
C18   C20   A    
C3    C13   A    
C38   H9    S    
C68   H40   S    
C44   C52   A    
C40   C42   A    
C28   C34   A    
C41   C43   A    
C42   C44   A    
C40   N4    A    
C50   H12   S    
C45   O9    S    
C65   H33   S    
C47   C50   A    
C21   H24   S    
C53   C55   A    
C25   C29   A    
C20   H25   S    
C54   C56   A    
C6    H18   S    
C53   N1    A    
C17   C27   A    
C18   C28   A    
C4    C6    A    
C36   O14   S    
C1    O1    A    
C5    C7    A    
C69   H37   S    
C17   C19   A    
C42   C48   A    
C24   O8    A    
C32   C34   A    
Cu2   O3    S    
C29   C30   A    
C53   O11   S    
C47   C48   A    
C46   N2    A    
C16   C20   A    
C41   C47   A    
C67   H28   S    
C34   H22   S    
C9    C11   A    
C39   N3    A    
C70   H34   S    
C10   C12   A    
C48   C49   A    
C37   H10   S    
C12   C14   A    
C26   C30   A    
C55   C57   A    
O15   H43   S    
C56   C62   A    
C36   C44   A    
O14   H42   S    
C39   C68   S    
C66   H31   S    
C70   H35   S    
C35   C43   A    
C69   C70   S    
O13   H41   S    
C7    C9    A    
C21   C25   A    
C45   C59   A    
C16   C22   A    
C46   C60   A    
Cu2   O7    S    
C51   H7    S    
Cu1   O4    S    
C3    C5    A    
C6    C8    A    
C68   C69   S    
C40   C65   S    
C54   O12   S    
C25   C27   A    
C26   C28   A    
C62   H2    S    
C13   N2    S    
Cu2   O2    S    
C36   C38   A    
C33   H21   S    
Cu1   O1    S    
C65   C66   S    
C11   C13   A    
C10   H20   S    
C57   C58   A    
C23   O5    A    
C43   C51   A    
C7    C23   S    
C46   O10   S    
C31   H5    S    
C8    C24   S    
C22   H23   S    
C49   H11   S    
C67   H29   S    
C24   O6    A    
C4    C14   A    
C54   N2    A    
C2    O4    A    
C15   C21   A    
C4    H16   S    
C2    O2    A    
C8    C10   A    
Cu1   Cu2   S    
C22   C26   A    
C38   N4    A    
Cu1   O8    S    
C66   H30   S    
Cu2   N3    S    
C32   H6    S    
C68   H39   S    
