data_mof_unit_50129.cif
_audit_creation_date              2012-12-10T17:16:12-0500
_audit_creation_method            fapswitch 2.2
_symmetry_space_group_name_H-M    P1
_symmetry_Int_Tables_number       1
_space_group_crystal_system       triclinic
_cell_length_a                    19.317681
_cell_length_b                    12.979848
_cell_length_c                    11.704186
_cell_angle_alpha                 100.655363
_cell_angle_beta                  94.103509
_cell_angle_gamma                 91.173728
_cell_volume                      2875.01553307

loop_
_atom_site_label
_atom_site_type_symbol
_atom_type_description
_atom_site_fract_x
_atom_site_fract_y
_atom_site_fract_z
_atom_type_partial_charge
C1    C     C_R   0.500737 0.299150 0.477912 0.844358
C2    C     C_R   0.498598 0.700875 0.522189 0.803205
C3    C     C_R   0.493783 0.814435 0.535399 -0.147341
C4    C     C_R   0.505253 0.185717 0.464748 -0.151670
C5    C     C_R   0.544908 0.017931 0.367153 0.222039
C6    C     C_R   0.453109 0.982535 0.630264 0.251526
C7    C     C_R   0.540652 0.126954 0.374886 0.208151
C8    C     C_R   0.459731 0.874354 0.626742 0.185085
C9    C     C_R   0.476426 0.137392 0.547865 -0.299639
C10   C     C_R   0.521462 0.862118 0.450466 -0.304372
C11   C     C_R   0.481770 0.030006 0.544158 0.044095
C12   C     C_R   0.516393 0.969539 0.453339 0.018478
C13   C     C_R   0.429732 0.407535 0.019938 -0.366193
C14   C     C_R   0.568537 0.592106 0.982090 -0.316872
C15   C     C_R   0.437897 0.413604 0.142293 0.470693
C16   C     C_R   0.564161 0.582869 0.859990 0.452630
C17   C     C_R   0.529738 0.540314 0.157960 -0.017229
C18   C     C_R   0.468383 0.461707 0.842206 -0.005815
C19   C     C_R   0.524108 0.533783 0.035456 0.004867
C20   C     C_R   0.473533 0.467151 0.965230 0.027363
C21   C     C_R   0.367296 0.498649 0.499798 0.809903
C22   C     C_R   0.632526 0.500354 0.499882 0.808592
C23   C     C_R   0.255699 0.460875 0.585407 0.268425
C24   C     C_R   0.744444 0.542207 0.418905 0.266065
C25   C     C_R   0.183392 0.463843 0.581756 -0.249585
C26   C     C_R   0.816427 0.533466 0.418718 -0.262918
C27   C     C_R   0.145063 0.499318 0.491247 -0.030090
C28   C     C_R   0.853196 0.481516 0.497470 -0.004270
C29   C     C_R   0.179825 0.536349 0.403193 0.162806
C30   C     C_R   0.816876 0.432875 0.575255 0.182291
C31   C     C_R   0.252799 0.533865 0.408271 -0.243851
C32   C     C_R   0.744827 0.443032 0.575947 -0.279094
C33   C     C_R   0.290937 0.497352 0.498493 -0.113059
C34   C     C_R   0.708382 0.497096 0.499041 -0.094861
C35   C     C_R   0.929077 0.482280 0.496677 0.410195
C36   C     C_R   0.068842 0.495738 0.492054 0.406515
Cu1   Cu    Cu3+1 0.505120 0.507730 0.615930 0.932488
Cu2   Cu    Cu3+1 0.494880 0.492270 0.384070 0.967649
H1    H     H_    0.389718 0.355920 0.968257 0.144813
H2    H     H_    0.607309 0.644942 0.035434 0.148429
H3    H     H_    0.156665 0.434466 0.648194 0.154833
H4    H     H_    0.844193 0.570190 0.358691 0.152447
H5    H     H_    0.280996 0.561325 0.342631 0.173792
H6    H     H_    0.716536 0.405233 0.634415 0.160020
H7    H     H_    0.546908 0.813672 0.381635 0.175386
H8    H     H_    0.450156 0.184952 0.616651 0.200241
H9    H     H_    0.429434 0.410405 0.788128 0.160052
H10   H     H_    0.568322 0.592839 0.211890 0.153761
N1    N     N_R   0.027986 0.460098 0.392849 -0.255265
N2    N     N_R   0.969803 0.518444 0.595844 -0.250700
N3    N     N_R   0.959274 0.454265 0.394914 -0.234964
N4    N     N_R   0.038512 0.524175 0.593736 -0.236940
N5    N     N_R   0.512830 0.519350 0.790130 -0.212187
N6    N     N_R   0.487170 0.480650 0.209870 -0.189063
O1    O     O_R   0.503640 0.354460 0.582000 -0.594346
O2    O     O_R   0.496360 0.645540 0.418000 -0.586122
O3    O     O_R   0.494980 0.341410 0.386200 -0.524494
O4    O     O_R   0.505020 0.658590 0.613800 -0.601612
O5    O     O_R   0.404470 0.506520 0.597930 -0.555342
O6    O     O_R   0.595530 0.493480 0.402070 -0.545535
O7    O     O_R   0.395820 0.493460 0.402130 -0.579092
O8    O     O_R   0.604180 0.506540 0.597870 -0.593932
N7    N     N_2   0.292089 0.417269 0.674265 -0.419805
H11   H     H_    0.269262 0.430059 0.752486 0.244512
C37   C     C_3   0.308585 0.308415 0.638158 -0.712196
H12   H     H_    0.260149 0.258986 0.614898 0.225007
H13   H     H_    0.338492 0.281163 0.710794 0.220838
H14   H     H_    0.340705 0.298673 0.562102 0.229950
N8    N     N_2   0.709021 0.597105 0.338895 -0.420999
H15   H     H_    0.732307 0.593477 0.261671 0.244823
C38   C     C_3   0.691900 0.703092 0.388790 -0.708508
H16   H     H_    0.740079 0.751719 0.418830 0.226074
H17   H     H_    0.659292 0.703764 0.463293 0.224599
H18   H     H_    0.662202 0.738001 0.321593 0.208310
C39   C     C_3   0.138689 0.579563 0.307306 -0.369200
C40   C     C_3   0.181038 0.639565 0.233612 -0.867481
H19   H     H_    0.212785 0.704184 0.290257 0.255877
H20   H     H_    0.214936 0.585774 0.179362 0.247261
H21   H     H_    0.145179 0.674379 0.173869 0.251619
H22   H     H_    0.109986 0.513641 0.247495 0.223721
H23   H     H_    0.100189 0.634497 0.348087 0.210500
C41   C     C_3   0.851560 0.365580 0.654212 -0.399548
C42   C     C_3   0.829745 0.250016 0.613686 -0.835638
H24   H     H_    0.773002 0.237749 0.617966 0.247291
H25   H     H_    0.843407 0.222516 0.522705 0.258394
H26   H     H_    0.857324 0.202277 0.670954 0.245730
H27   H     H_    0.908872 0.371148 0.657121 0.223352
H28   H     H_    0.836989 0.392432 0.744829 0.202165
N9    N     N_2   0.425985 0.825890 0.708594 -0.425310
H29   H     H_    0.398921 0.756149 0.675826 0.260849
C43   C     C_3   0.463229 0.830802 0.821567 -0.661710
H30   H     H_    0.477608 0.750964 0.833349 0.240253
H31   H     H_    0.429064 0.863002 0.890887 0.220179
H32   H     H_    0.511295 0.881424 0.831995 0.218529
N10   N     N_2   0.575894 0.178663 0.297289 -0.417003
H33   H     H_    0.574616 0.137905 0.212730 0.268701
C44   C     C_3   0.644976 0.218703 0.341710 -0.630498
H34   H     H_    0.679846 0.152773 0.348873 0.221006
H35   H     H_    0.643771 0.269834 0.428757 0.210397
H36   H     H_    0.666117 0.265983 0.281403 0.228848
N11   N     N_2   0.581376 0.959915 0.276074 -0.438669
H37   H     H_    0.618404 0.911647 0.302837 0.244489
C45   C     C_3   0.537941 0.911321 0.173611 -0.730398
H38   H     H_    0.571129 0.874533 0.104732 0.234175
H39   H     H_    0.506338 0.970974 0.139130 0.230452
H40   H     H_    0.502828 0.849690 0.194508 0.232626
N12   N     N_2   0.415300 0.043209 0.717721 -0.439078
H41   H     H_    0.426370 0.028662 0.800560 0.272137
C46   C     C_3   0.341493 0.044198 0.686968 -0.711881
H42   H     H_    0.316698 0.097999 0.756132 0.222007
H43   H     H_    0.317591 0.964295 0.678617 0.246470
H44   H     H_    0.331653 0.072246 0.603340 0.235119
N13   N     N_2   0.613940 0.642688 0.813129 -0.438146
H45   H     H_    0.601843 0.664125 0.734742 0.297855
C47   C     C_3   0.685898 0.616838 0.832550 -0.695039
H46   H     H_    0.719174 0.661025 0.783322 0.227406
H47   H     H_    0.692480 0.531614 0.802759 0.236464
H48   H     H_    0.703635 0.638728 0.926374 0.222285
N14   N     N_2   0.393217 0.351960 0.195886 -0.379883
H49   H     H_    0.342028 0.372284 0.187244 0.229949
C48   C     C_3   0.400899 0.239833 0.164262 -0.689927
H50   H     H_    0.371854 0.199723 0.222921 0.225619
H51   H     H_    0.456370 0.220021 0.173613 0.249825
H52   H     H_    0.379874 0.210543 0.072885 0.200516

loop_
_geom_bond_atom_site_label_1
_geom_bond_atom_site_label_2
_ccdc_geom_bond_type
N7    C37   S    
N11   H37   S    
C27   C29   A    
C47   H47   S    
N10   H33   S    
C17   H10   S    
C18   H9    S    
N1    N3    A    
C44   H34   S    
C31   H5    S    
C24   C26   A    
C21   O5    A    
C46   H43   S    
C22   O6    A    
C21   C33   S    
C41   H27   S    
N8    C38   S    
C16   N5    A    
C48   H52   S    
C18   N5    A    
C19   C20   A    
C28   C35   S    
C37   H13   S    
N2    N4    A    
C6    N12   S    
C31   C33   A    
N9    C43   S    
C39   H22   S    
C21   O7    A    
Cu1   O4    S    
C36   N4    A    
Cu2   O7    S    
Cu1   N5    S    
C37   H14   S    
C23   N7    S    
C9    H8    S    
N11   C45   S    
C16   N13   S    
N12   C46   S    
C10   H7    S    
C4    C7    A    
C44   H35   S    
C24   N8    S    
Cu1   O8    S    
N14   C48   S    
C22   C34   S    
C5    N11   S    
C48   H51   S    
C15   N6    A    
C40   H19   S    
C5    C12   A    
C3    C8    A    
C46   H44   S    
C25   H3    S    
C6    C11   A    
C38   H17   S    
C39   H23   S    
C6    C8    A    
C23   C33   A    
C43   H31   S    
C24   C34   A    
C32   C34   A    
C30   C41   S    
C39   C40   S    
Cu1   Cu2   S    
C1    O3    A    
C22   O8    A    
Cu2   O3    S    
C42   H24   S    
Cu2   N6    S    
C4    C9    A    
N12   H41   S    
C47   H48   S    
C35   N2    A    
N10   C44   S    
C32   H6    S    
C45   H39   S    
C9    C11   A    
C48   H50   S    
Cu1   O5    S    
C10   C12   A    
Cu2   O6    S    
C42   H25   S    
C37   H12   S    
C13   C15   A    
C35   N3    A    
C14   C16   A    
C43   H30   S    
C44   H36   S    
C26   H4    S    
C5    C7    A    
N13   H45   S    
C13   C20   A    
C14   C19   A    
C40   H20   S    
C38   H18   S    
N14   H49   S    
C2    O4    A    
C29   C39   S    
C27   C36   S    
C25   C27   A    
C7    N10   S    
C26   C28   A    
C1    C4    S    
C28   C30   A    
C2    C3    S    
C1    O1    A    
C38   H16   S    
C29   C31   A    
C3    C10   A    
C2    O2    A    
C46   H42   S    
C43   H32   S    
C30   C32   A    
C41   H28   S    
C17   C19   A    
C15   N14   S    
C45   H40   S    
C18   C20   A    
C23   C25   A    
N8    H15   S    
C13   H1    S    
C14   H2    S    
N7    H11   S    
Cu1   O1    S    
C42   H26   S    
Cu2   O2    S    
C41   C42   S    
C40   H21   S    
C45   H38   S    
C8    N9    S    
N9    H29   S    
C17   N6    A    
C36   N1    A    
C47   H46   S    
C11   C12   A    
N13   C47   S    
