data_mof_unit_27397.cif
_audit_creation_date              2012-12-10T18:23:12-0500
_audit_creation_method            fapswitch 2.2
_symmetry_space_group_name_H-M    P1
_symmetry_Int_Tables_number       1
_space_group_crystal_system       triclinic
_cell_length_a                    15.079449
_cell_length_b                    14.176526
_cell_length_c                    10.787746
_cell_angle_alpha                 89.727711
_cell_angle_beta                  87.127013
_cell_angle_gamma                 91.672729
_cell_volume                      2302.21708004

loop_
_atom_site_label
_atom_site_type_symbol
_atom_type_description
_atom_site_fract_x
_atom_site_fract_y
_atom_site_fract_z
_atom_type_partial_charge
C1    C     C_R   0.326057 0.498722 0.498774 0.872021
C2    C     C_R   0.959211 0.539341 0.277045 -0.154557
C3    C     C_R   0.550379 0.800923 0.411631 0.016729
C4    C     C_R   0.448741 0.199739 0.587556 0.041375
C5    C     C_R   0.445278 0.796982 0.583588 0.072258
C6    C     C_R   0.551814 0.203365 0.412626 0.081887
C7    C     C_R   0.445978 0.897544 0.587279 0.005149
C8    C     C_R   0.555495 0.103021 0.414502 0.011949
C9    C     C_R   0.554690 0.901483 0.413880 0.020379
C10   C     C_R   0.447808 0.099253 0.589653 0.002079
C11   C     C_R   0.501107 0.949857 0.501535 0.068821
C12   C     C_R   0.673951 0.501691 0.499772 0.963674
C13   C     C_R   0.501622 0.050824 0.502125 0.070027
C14   C     C_R   0.393397 0.947269 0.675328 -0.140408
C15   C     C_R   0.613219 0.053393 0.333187 -0.137111
C16   C     C_R   0.612918 0.955045 0.333028 -0.136661
C17   C     C_R   0.393818 0.045745 0.675930 -0.144983
C18   C     C_R   0.501279 0.499800 0.257385 0.968583
C19   C     C_R   0.503764 0.499553 0.742078 1.095965
C20   C     C_3   0.456264 0.568372 0.041375 -0.265034
C21   C     C_3   0.555097 0.425670 0.956570 -0.183923
C22   C     C_3   0.541029 0.579357 0.955914 -0.194226
C23   C     C_R   0.952296 0.473896 0.486358 0.040963
C24   C     C_3   0.471034 0.414672 0.043292 -0.207203
C25   C     C_3   0.423844 0.485004 0.962441 0.338604
C26   C     C_3   0.588415 0.508067 0.036601 0.459377
C27   C     C_3   0.507383 0.497113 0.876595 -0.173919
C28   C     C_3   0.503929 0.498007 0.122524 -0.182059
C29   C     C_R   0.825056 0.552987 0.416261 -0.121119
C30   C     C_R   0.173112 0.491085 0.598929 -0.068597
C31   C     C_R   0.771199 0.504938 0.507395 -0.166529
C32   C     C_R   0.228719 0.494931 0.490733 -0.220088
C33   C     C_R   0.811467 0.460296 0.606564 -0.051997
C34   C     C_R   0.044784 0.470680 0.481140 -0.005839
C35   C     C_R   0.189124 0.486205 0.375681 -0.073903
C36   C     C_R   0.902676 0.439754 0.593301 -0.061964
C37   C     C_R   0.096004 0.496516 0.372520 -0.000951
C38   C     C_2   0.401434 0.651600 0.077964 0.605867
C39   C     C_2   0.608324 0.341941 0.916232 0.576763
C40   C     C_2   0.578767 0.673104 0.909899 0.563387
C41   C     C_2   0.433610 0.319573 0.084757 0.581658
C42   C     C_2   0.808652 0.655234 0.395915 0.491880
C43   C     C_2   0.189403 0.559323 0.698217 0.676953
C44   C     C_2   0.767199 0.463909 0.732823 0.602572
C45   C     C_R   0.911142 0.520645 0.390836 0.016727
C46   C     C_2   0.239233 0.443067 0.271503 0.642100
C47   C     C_2   0.088828 0.358562 0.788900 0.672024
C48   C     C_2   0.911068 0.557683 0.163388 0.649873
C49   C     C_2   0.594887 0.749976 0.309061 0.490726
C50   C     C_2   0.392516 0.251106 0.677744 0.525011
C51   C     C_2   0.378317 0.743458 0.661477 0.433017
C52   C     C_2   0.601096 0.257850 0.312941 0.459159
C53   C     C_R   0.087038 0.452426 0.590652 0.058177
C54   C     C_R   0.947749 0.388416 0.683310 0.274451
C55   C     C_R   0.052492 0.532138 0.269102 0.288847
C56   C     C_R   0.040368 0.403425 0.689099 -0.107989
H1    H     H_    0.351570 0.910748 0.745610 0.185244
H2    H     H_    0.443525 0.258879 0.025558 0.111505
H3    H     H_    0.749406 0.686701 0.434768 0.079343
H4    H     H_    0.254207 0.592889 0.703243 0.112275
H5    H     H_    0.800837 0.443048 0.813931 0.166236
H6    H     H_    0.306728 0.466741 0.245984 0.083442
H7    H     H_    0.932573 0.145314 0.797559 0.404048
H8    H     H_    0.096346 0.445572 0.060066 0.367346
H9    H     H_    0.056853 0.347159 0.880162 0.118007
H10   H     H_    0.862875 0.612240 0.160974 0.168411
H11   H     H_    0.628319 0.686726 0.328153 0.132609
H12   H     H_    0.660598 0.089697 0.269859 0.196705
H13   H     H_    0.337864 0.291136 0.646707 0.146311
H14   H     H_    0.397243 0.695852 0.733164 0.062578
H15   H     H_    0.643478 0.317505 0.333452 0.101087
H16   H     H_    0.660350 0.921895 0.270026 0.199052
H17   H     H_    0.350800 0.079169 0.744749 0.188093
H18   H     H_    0.280424 0.320709 0.948097 0.397591
H19   H     H_    0.756680 0.409628 0.191836 0.362127
H20   H     H_    0.377163 0.696439 0.006107 0.063922
H21   H     H_    0.641411 0.301499 0.984515 0.153127
H22   H     H_    0.553416 0.737806 0.949186 0.058673
N1    N     N_R   0.500000 0.750030 0.500000 -0.173434
N2    N     N_R   0.500000 0.249970 0.500000 -0.173065
O1    O     O_R   0.367850 0.580280 0.500030 -0.596923
O2    O     O_2   0.322043 0.442120 0.774973 -0.400649
O3    O     O_3   0.260288 0.379712 0.987709 -0.460252
O4    O     O_2   0.754583 0.574291 0.986873 -0.214470
O5    O     O_2   0.698784 0.572232 0.203328 -0.452412
O6    O     O_3   0.742363 0.412846 0.103344 -0.547439
O7    O     O_2   0.384261 0.670160 0.186554 -0.496614
O8    O     O_2   0.613354 0.317173 0.808138 -0.496965
O9    O     O_2   0.638819 0.677374 0.829875 -0.475981
O10   O     O_2   0.390329 0.309778 0.182663 -0.525006
O11   O     O_2   0.865189 0.708411 0.346551 -0.550037
O12   O     O_R   0.632150 0.419720 0.499970 -0.630607
O13   O     O_2   0.129591 0.582752 0.771216 -0.465101
O14   O     O_2   0.694804 0.498479 0.749915 -0.560921
O15   O     O_2   0.206066 0.376058 0.218489 -0.504323
O16   O     O_2   0.882437 0.310157 0.898720 -0.285041
O17   O     O_2   0.807907 0.263302 0.710089 -0.272803
O18   O     O_3   0.962334 0.196158 0.746124 -0.528632
O19   O     O_2   0.064233 0.671946 0.098748 -0.200014
O20   O     O_2   0.204334 0.615061 0.165883 -0.256694
O21   O     O_3   0.111127 0.507767 0.021136 -0.396891
O22   O     O_2   0.163437 0.329591 0.768023 -0.544989
O23   O     O_R   0.632150 0.580280 0.499970 -0.655809
O24   O     O_2   0.925193 0.510662 0.070339 -0.486126
O25   O     O_2   0.590432 0.775774 0.201460 -0.571820
O26   O     O_2   0.406023 0.247127 0.788167 -0.597514
O27   O     O_2   0.299569 0.756112 0.648582 -0.551278
O28   O     O_2   0.593969 0.236251 0.204496 -0.621149
O29   O     O_R   0.367850 0.419720 0.500030 -0.626239
O30   O     O_R   0.499970 0.580260 0.313950 -0.595116
O31   O     O_R   0.500030 0.419740 0.686050 -0.555290
O32   O     O_R   0.500030 0.580260 0.686050 -0.668060
O33   O     O_R   0.499970 0.419740 0.313950 -0.625274
O34   O     O_2   0.269036 0.557908 0.927416 -0.239780
S1    S     S_3+6 0.316008 0.467059 0.909718 0.022045
S2    S     S_3+6 0.699163 0.519655 0.083561 -0.004739
S3    S     S_3+6 0.895801 0.288924 0.762743 0.009608
S4    S     S_3+6 0.111161 0.585489 0.138226 0.137941
Zn1   Zn    Zn3+2 0.500000 0.607200 0.500000 1.007658
Zn2   Zn    Zn3+2 0.500000 0.392800 0.500000 1.032500

loop_
_geom_bond_atom_site_label_1
_geom_bond_atom_site_label_2
_ccdc_geom_bond_type
C21   C26   S    
N2    Zn2   S    
C8    C13   A    
C23   C45   A    
C29   C42   S    
C34   C37   A    
C16   H16   S    
H18   O3    S    
C3    N1    A    
O34   S1    D    
C3    C49   S    
C38   H20   S    
C19   O32   A    
C7    C11   A    
C36   C54   A    
C46   H6    S    
O21   S4    S    
C39   H21   S    
C35   C37   A    
C50   H13   S    
O2    S1    D    
C4    N2    A    
H7    O18   S    
C2    C55   A    
C25   S1    S    
C20   C25   S    
C10   C17   A    
C1    O1    A    
C15   C16   A    
C48   O24   D    
C33   C36   A    
O6    S2    S    
C42   O11   D    
C1    O29   A    
C7    C14   A    
C46   O15   D    
N1    Zn1   S    
C31   C33   A    
C51   H14   S    
C40   O9    D    
C5    N1    A    
C19   C27   S    
C41   O10   D    
C21   C27   S    
O4    S2    D    
C47   O22   D    
C17   H17   S    
C24   C41   S    
C14   C17   A    
C39   O8    D    
C18   O33   A    
C2    C45   A    
H8    O21   S    
C30   C53   A    
C54   C56   A    
C32   C35   A    
O3    S1    S    
O16   S3    D    
C18   C28   S    
C24   C25   S    
C12   O23   A    
C5    C7    A    
C49   O25   D    
C20   C28   S    
C2    C48   S    
C1    C32   S    
C4    C50   S    
O31   Zn2   S    
C42   H3    S    
C3    C9    A    
O33   Zn2   S    
C20   C38   S    
H19   O6    S    
C6    N2    A    
C21   C39   S    
C23   C34   A    
C22   C40   S    
C9    C11   A    
C43   H4    S    
C51   O27   D    
C20   C22   S    
C8    C15   A    
C22   C27   S    
C12   C31   S    
C40   H22   S    
C30   C43   S    
C21   C24   S    
O20   S4    D    
C4    C10   A    
O18   S3    S    
C53   C56   A    
C14   H1    S    
C49   H11   S    
C33   C44   S    
C12   O12   A    
O5    S2    D    
O23   Zn1   S    
C24   C28   S    
C10   C13   A    
O30   Zn1   S    
C41   H2    S    
O32   Zn1   S    
C6    C8    A    
C19   O31   A    
C44   H5    S    
C25   C27   S    
O1    Zn1   S    
C26   C28   S    
C38   O7    D    
C48   H10   S    
O12   Zn2   S    
C29   C31   A    
C52   H15   S    
O19   S4    D    
C30   C32   A    
C11   C13   A    
C15   H12   S    
C43   O13   D    
O17   S3    D    
C26   S2    S    
C44   O14   D    
C37   C55   A    
C52   O28   D    
C34   C53   A    
C18   O30   A    
C23   C36   A    
C22   C26   S    
C54   S3    S    
C29   C45   A    
C50   O26   D    
C5    C51   S    
C6    C52   S    
C35   C46   S    
C47   H9    S    
O29   Zn2   S    
C9    C16   A    
C47   C56   S    
C55   S4    S    
