data_mof_unit_13551.cif
_audit_creation_date              2012-10-26T19:03:26-0400
_audit_creation_method            fapswitch 2.2
_symmetry_space_group_name_H-M    P1
_symmetry_Int_Tables_number       1
_space_group_crystal_system       triclinic
_cell_length_a                    10.913849
_cell_length_b                    13.031866
_cell_length_c                    11.796201
_cell_angle_alpha                 102.040917
_cell_angle_beta                  94.889894
_cell_angle_gamma                 94.214163
_cell_volume                      1627.67689889

loop_
_atom_site_label
_atom_site_type_symbol
_atom_type_description
_atom_site_fract_x
_atom_site_fract_y
_atom_site_fract_z
_atom_type_partial_charge
C1    C     C_R   0.496051 0.298181 0.475924 0.557359
C2    C     C_R   0.483115 0.113300 0.348502 0.243231
C3    C     C_R   0.462866 0.139938 0.555566 -0.148863
C4    C     C_R   0.261251 0.491738 0.497208 0.552920
C5    C     C_R   0.451150 0.031564 0.546362 -0.042960
C6    C     C_R   0.446395 0.962537 0.437207 0.015423
C7    C     C_R   0.435871 0.853257 0.430686 0.218532
C8    C     C_R   0.466208 0.886767 0.643081 0.196777
C9    C     C_R   0.450892 0.992435 0.646834 -0.097648
C10   C     C_R   0.403370 0.387219 0.013893 -0.067239
C11   C     C_R   0.402722 0.401380 0.135238 0.424241
C12   C     C_R   0.068075 0.479941 0.594736 -0.086886
C13   C     C_R   0.549810 0.549920 0.163508 0.392616
C14   C     C_R   0.542198 0.546251 0.039200 0.006650
C15   C     C_R   0.469367 0.460188 0.964439 -0.083161
C16   C     C_R   0.489744 0.700986 0.522571 0.606309
C17   C     C_R   0.461463 0.448416 0.840897 0.056781
C18   C     C_R   0.593199 0.603210 0.860607 0.127699
C19   C     C_R   0.602995 0.621951 0.984206 0.253310
C20   C     C_R   0.738633 0.508034 0.502112 0.588047
C21   C     C_R   0.120982 0.440669 0.687991 -0.104662
C22   C     C_R   0.077471 0.467271 0.797029 0.232991
C23   C     C_R   0.125069 0.482957 0.492217 0.018000
C24   C     C_R   0.995780 0.546048 0.816806 0.281275
C25   C     C_R   0.929992 0.571245 0.718858 0.209384
C26   C     C_R   0.953558 0.520624 0.606098 -0.027141
C27   C     C_R   0.050177 0.493923 0.391665 0.238113
C28   C     C_R   0.924785 0.502635 0.397034 -0.070158
C29   C     C_R   0.874262 0.515811 0.503676 -0.000902
C30   C     C_R   0.463361 0.814241 0.533720 0.004269
C31   C     C_R   0.481501 0.182470 0.458205 0.018451
C32   C     C_R   0.459789 0.004713 0.338134 -0.010580
Cl1   Cl    Cl    0.103392 0.495513 0.255063 -0.392662
Cl2   Cl    Cl    0.524636 0.155473 0.223284 -0.476077
Cl3   Cl    Cl    0.304051 0.313524 0.187455 -0.390756
Cl4   Cl    Cl    0.664384 0.632098 0.260281 -0.420706
Cl5   Cl    Cl    0.127564 0.402070 0.905952 -0.475649
Cl6   Cl    Cl    0.850481 0.685072 0.731470 -0.450703
Cl7   Cl    Cl    0.376784 0.769514 0.295035 -0.469922
Cu1   Cu    Cu3+1 0.509250 0.507730 0.615930 1.054442
Cu2   Cu    Cu3+1 0.490750 0.492270 0.384070 1.209863
H1    H     H_    0.453390 0.047297 0.729944 0.166354
H2    H     H_    0.112767 0.668783 0.116911 0.410907
H3    H     H_    0.601462 0.003114 0.888594 0.360820
H4    H     H_    0.462527 0.191287 0.640694 0.138403
H5    H     H_    0.404456 0.382500 0.785350 0.129059
H6    H     H_    0.638640 0.658968 0.819941 0.247663
H7    H     H_    0.349036 0.319880 0.957890 0.183825
H8    H     H_    0.193484 0.388219 0.675930 0.154999
H9    H     H_    0.867413 0.501634 0.317165 0.216728
H10   H     H_    0.461573 0.953724 0.253379 0.240725
H11   H     H_    0.745420 0.895476 0.023766 0.389647
N1    N     N_R   0.523180 0.519350 0.790130 -0.272767
N2    N     N_R   0.476820 0.480650 0.209890 -0.228073
O1    O     O_R   0.506570 0.354460 0.582000 -0.547473
O2    O     O_2   0.795475 0.737783 0.128978 -0.151608
O3    O     O_3   0.712144 0.827517 0.971681 -0.411303
O4    O     O_2   0.955945 0.725547 0.965382 -0.167928
O5    O     O_2   0.885972 0.556323 0.011329 -0.221960
O6    O     O_3   0.120497 0.618368 0.042981 -0.397896
O7    O     O_2   0.432231 0.769714 0.801570 -0.211760
O8    O     O_2   0.643189 0.825138 0.762982 -0.225625
O9    O     O_3   0.520914 0.962684 0.888405 -0.450809
O10   O     O_R   0.490940 0.341410 0.386200 -0.428563
O11   O     O_R   0.327470 0.506530 0.597920 -0.523284
O12   O     O_R   0.311840 0.493480 0.402120 -0.421826
O13   O     O_R   0.509060 0.658590 0.613800 -0.444399
O14   O     O_R   0.493430 0.645540 0.418000 -0.418811
O15   O     O_R   0.688160 0.506520 0.597880 -0.485974
O16   O     O_R   0.672530 0.493470 0.402080 -0.482105
O17   O     O_2   0.590344 0.801615 0.142059 -0.208782
S1    S     S_3+6 0.676231 0.748214 0.060702 0.146560
S2    S     S_3+6 0.985168 0.614161 0.961617 0.153931
S3    S     S_3+6 0.515493 0.857639 0.776652 0.071318

loop_
_geom_bond_atom_site_label_1
_geom_bond_atom_site_label_2
_ccdc_geom_bond_type
C6    C32   A    
C18   H6    S    
C21   H8    S    
C27   Cl1   S    
C12   C23   A    
C9    H1    S    
C28   C29   A    
C10   C15   A    
C5    C6    A    
C24   S2    S    
C16   C30   S    
O6    S2    S    
C1    C31   S    
C2    C32   A    
C18   C19   A    
C18   N1    A    
C28   H9    S    
C8    C9    A    
O2    S1    D    
Cu1   O13   S    
C16   O14   A    
C23   C27   A    
O5    S2    D    
C2    Cl2   S    
C7    C30   A    
C21   C22   A    
C20   O16   A    
C19   S1    S    
Cu2   O14   S    
C20   C29   S    
H3    O9    S    
Cu1   O15   S    
C17   H5    S    
C13   Cl4   S    
H11   O3    S    
C4    C23   S    
C25   C26   A    
C22   Cl5   S    
C12   C21   A    
C3    H4    S    
C12   C26   A    
C2    C31   A    
C32   H10   S    
C5    C9    A    
C25   Cl6   S    
Cu1   O1    S    
C8    S3    S    
C16   O13   A    
C24   C25   A    
C3    C31   A    
C6    C7    A    
C11   N2    A    
H2    O6    S    
Cu1   Cu2   S    
Cu1   O11   S    
C10   H7    S    
C22   C24   A    
C20   O15   A    
C1    O10   A    
C17   N1    A    
C13   N2    A    
C15   C17   A    
C14   C19   A    
C3    C5    A    
Cu2   O12   S    
O9    S3    S    
O7    S3    D    
C8    C30   A    
C11   Cl3   S    
C1    O1    A    
O17   S1    D    
C4    O12   A    
C4    O11   A    
O3    S1    S    
Cu2   N2    S    
C10   C11   A    
C26   C29   A    
Cu1   N1    S    
C27   C28   A    
C7    Cl7   S    
C14   C15   A    
O8    S3    D    
Cu2   O10   S    
C13   C14   A    
O4    S2    D    
Cu2   O16   S    
