data_mof_unit_51126.cif
_audit_creation_date              2012-12-10T17:28:38-0500
_audit_creation_method            fapswitch 2.2
_symmetry_space_group_name_H-M    P1
_symmetry_Int_Tables_number       1
_space_group_crystal_system       triclinic
_cell_length_a                    10.45738
_cell_length_b                    11.98095
_cell_length_c                    12.908618
_cell_angle_alpha                 93.268717
_cell_angle_beta                  89.885131
_cell_angle_gamma                 85.403894
_cell_volume                      1609.45370544

loop_
_atom_site_label
_atom_site_type_symbol
_atom_type_description
_atom_site_fract_x
_atom_site_fract_y
_atom_site_fract_z
_atom_type_partial_charge
C1    C     C_R   0.498324 0.522018 0.700488 0.904333
C2    C     C_R   0.476926 0.560533 0.132972 -0.284992
C3    C     C_R   0.505818 0.446182 0.974030 0.132007
C4    C     C_R   0.480363 0.553909 0.025788 0.106103
C5    C     C_R   0.371120 0.957506 0.411787 -0.293491
C6    C     C_R   0.629240 0.042425 0.587798 -0.305941
C7    C     C_R   0.384932 0.840673 0.419140 0.053330
C8    C     C_R   0.615251 0.159280 0.580681 0.053005
C9    C     C_R   0.557572 0.856570 0.536499 -0.004522
C10   C     C_R   0.442458 0.143434 0.463452 -0.000759
C11   C     C_R   0.547378 0.974495 0.531539 0.114538
C12   C     C_R   0.500475 0.478009 0.299559 0.905114
C13   C     C_R   0.452728 0.025490 0.468303 0.111501
C14   C     C_R   0.740044 0.496594 0.482244 0.908645
C15   C     C_R   0.259950 0.503408 0.517745 0.908367
C16   C     C_R   0.918858 0.282882 0.460825 0.189438
C17   C     C_R   0.081045 0.717166 0.539249 0.190877
C18   C     C_R   0.979385 0.192374 0.510593 -0.219771
C19   C     C_R   0.020209 0.807749 0.489814 -0.220559
C20   C     C_R   0.077228 0.210254 0.581480 0.163075
C21   C     C_R   0.922275 0.789931 0.419030 0.163118
C22   C     C_R   0.123084 0.315984 0.594688 -0.161399
C23   C     C_R   0.499127 0.464816 0.188353 -0.075915
C24   C     C_R   0.876721 0.684124 0.405508 -0.161108
C25   C     C_R   0.065883 0.406622 0.541918 0.013123
C26   C     C_R   0.934088 0.593414 0.458088 0.012799
C27   C     C_R   0.952779 0.393238 0.486799 0.024006
C28   C     C_R   0.047215 0.606793 0.513181 0.025240
C29   C     C_R   0.122027 0.509117 0.538971 -0.184219
C30   C     C_R   0.877969 0.490906 0.461008 -0.185359
C31   C     C_3   0.427156 0.767588 0.025480 -0.446632
C32   C     C_3   0.399532 0.867033 0.956342 -0.328449
C33   C     C_3   0.361018 0.974660 0.021733 -0.845033
C34   C     C_R   0.494071 0.535263 0.811778 -0.092535
C35   C     C_3   0.547424 0.230141 0.980255 -0.448116
C36   C     C_3   0.687085 0.204853 0.943986 -0.318736
C37   C     C_3   0.707378 0.087658 0.890824 -0.849174
C38   C     C_R   0.459788 0.652611 0.969630 0.109823
C39   C     C_R   0.524565 0.347834 0.030507 0.107396
C40   C     C_R   0.469410 0.640950 0.861717 -0.183035
C41   C     C_R   0.520982 0.359165 0.138084 -0.210385
C42   C     C_R   0.511383 0.439337 0.867222 -0.288908
H1    H     H_    0.297088 0.994247 0.362712 0.156462
H2    H     H_    0.456615 0.713101 0.815272 0.175584
H3    H     H_    0.370544 0.184005 0.414925 0.131998
H4    H     H_    0.629469 0.816016 0.585054 0.132369
H5    H     H_    0.678855 0.211385 0.623816 0.138632
H6    H     H_    0.321407 0.788519 0.375985 0.135623
H7    H     H_    0.271024 0.966048 0.065395 0.270488
H8    H     H_    0.438148 0.993534 0.077529 0.255674
H9    H     H_    0.344566 0.045530 0.970292 0.260719
H10   H     H_    0.486713 0.880089 0.910538 0.223896
H11   H     H_    0.319500 0.850159 0.902615 0.259464
H12   H     H_    0.703695 0.005576 0.636410 0.156302
H13   H     H_    0.340340 0.761957 0.074239 0.212747
H14   H     H_    0.508433 0.786906 0.077144 0.213304
H15   H     H_    0.686944 0.023244 0.945868 0.271279
H16   H     H_    0.643183 0.080236 0.822781 0.255502
H17   H     H_    0.808408 0.071896 0.863744 0.266694
H18   H     H_    0.714091 0.266963 0.888897 0.220914
H19   H     H_    0.751722 0.210100 0.012089 0.249537
H20   H     H_    0.526537 0.167505 0.036931 0.210696
H21   H     H_    0.479342 0.217444 0.915503 0.207118
H22   H     H_    0.951900 0.108288 0.493096 0.195016
H23   H     H_    0.047490 0.891863 0.507534 0.195350
H24   H     H_    0.203316 0.327315 0.646159 0.173294
H25   H     H_    0.796462 0.672830 0.354060 0.173455
H26   H     H_    0.458339 0.640854 0.174806 0.167403
H27   H     H_    0.530034 0.358877 0.825818 0.179663
H28   H     H_    0.536972 0.285480 0.182784 0.182516
I1    I     I_    0.834317 0.922560 0.338260 -0.404990
I2    I     I_    0.164456 0.077886 0.663083 -0.421933
I3    I     I_    0.803657 0.245544 0.329564 -0.355338
I4    I     I_    0.196368 0.754583 0.670310 -0.369436
N1    N     N_R   0.523130 0.207800 0.519340 -0.097833
N2    N     N_R   0.476870 0.792200 0.480660 -0.098088
O1    O     O_R   0.506170 0.421700 0.658830 -0.637676
O2    O     O_R   0.493830 0.578300 0.341170 -0.637988
O3    O     O_R   0.491330 0.609310 0.646410 -0.608528
O4    O     O_R   0.508670 0.390690 0.353590 -0.607474
O5    O     O_R   0.690650 0.406190 0.506220 -0.601223
O6    O     O_R   0.309350 0.593810 0.493780 -0.601059
O7    O     O_R   0.675800 0.593810 0.493800 -0.621553
O8    O     O_R   0.324200 0.406190 0.506200 -0.622089
Zn1   Zn    Zn3+2 0.509910 0.374730 0.508290 0.963834
Zn2   Zn    Zn3+2 0.490090 0.625270 0.491710 0.962874

loop_
_geom_bond_atom_site_label_1
_geom_bond_atom_site_label_2
_ccdc_geom_bond_type
C3    C42   A    
C1    O1    A    
C35   C39   S    
C35   C36   S    
C34   C42   A    
C39   C41   A    
C12   C23   S    
C21   I1    S    
C34   C40   A    
C28   C29   A    
C19   C21   A    
C24   C26   A    
C2    H26   S    
C33   H7    S    
C32   H10   S    
C24   H25   S    
N1    Zn1   S    
C6    H12   S    
C22   H24   S    
C22   C25   A    
C12   O2    A    
C9    N2    A    
C31   H14   S    
C5    C13   A    
C37   H16   S    
O2    Zn2   S    
C16   C27   A    
C5    H1    S    
C3    C39   A    
C9    H4    S    
C27   C30   A    
C14   O7    A    
C14   C30   S    
C1    C34   S    
C15   C29   S    
C15   O6    A    
C25   C29   A    
C16   I3    S    
O8    Zn1   S    
C6    C11   A    
C5    C7    A    
C6    C8    A    
C33   H8    S    
O6    Zn2   S    
C42   H27   S    
C2    C4    A    
O4    Zn1   S    
C10   N1    A    
C31   C32   S    
C10   H3    S    
C37   H17   S    
C9    C11   A    
C7    N2    A    
C20   C22   A    
C26   C30   A    
C17   I4    S    
C1    O3    A    
C33   H9    S    
C36   H19   S    
N2    Zn2   S    
C32   H11   S    
C36   C37   S    
C17   C28   A    
C4    C38   A    
C36   H18   S    
C10   C13   A    
C15   O8    A    
C25   C27   A    
C26   C28   A    
C23   C41   A    
C31   C38   S    
C32   C33   S    
C8    H5    S    
C7    H6    S    
C38   C40   A    
C11   C13   A    
C18   H22   S    
C12   O4    A    
C17   C19   A    
C19   H23   S    
C35   H20   S    
C18   C20   A    
C8    N1    A    
O5    Zn1   S    
O1    Zn1   S    
C40   H2    S    
O7    Zn2   S    
C16   C18   A    
C21   C24   A    
C2    C23   A    
C20   I2    S    
C35   H21   S    
C14   O5    A    
C31   H13   S    
O3    Zn2   S    
C37   H15   S    
C3    C4    A    
C41   H28   S    
