data_mof_unit_28575.cif
_audit_creation_date              2012-12-11T16:23:27-0500
_audit_creation_method            fapswitch 2.2
_symmetry_space_group_name_H-M    P1
_symmetry_Int_Tables_number       1
_space_group_crystal_system       triclinic
_cell_length_a                    20.146304
_cell_length_b                    7.251875
_cell_length_c                    19.803614
_cell_angle_alpha                 89.962793
_cell_angle_beta                  98.076587
_cell_angle_gamma                 89.945578
_cell_volume                      2864.57769981

loop_
_atom_site_label
_atom_site_type_symbol
_atom_type_description
_atom_site_fract_x
_atom_site_fract_y
_atom_site_fract_z
_atom_type_partial_charge
O1    O     O_R   0.188410 0.619490 0.310050 -0.538774
O2    O     O_R   0.811590 0.380510 0.689950 -0.538247
O3    O     O_R   0.311590 0.119490 0.189950 -0.539099
O4    O     O_R   0.688410 0.880510 0.810050 -0.537832
O5    O     O_R   0.327280 0.288800 0.321740 -0.539639
O6    O     O_R   0.672720 0.711200 0.678260 -0.540410
O7    O     O_R   0.172720 0.788800 0.178260 -0.538884
O8    O     O_R   0.827280 0.211200 0.821740 -0.540328
C1    C     C_R   0.350820 0.457452 0.338321 0.682781
C2    C     C_R   0.651226 0.541437 0.658358 0.686317
C3    C     C_R   0.149311 0.957737 0.161570 0.682865
C4    C     C_R   0.849112 0.041376 0.841303 0.685889
O9    O     O_R   0.189900 0.289710 0.318190 -0.539898
O10   O     O_R   0.810100 0.710290 0.681810 -0.533799
O11   O     O_R   0.310100 0.789710 0.181810 -0.539986
O12   O     O_R   0.689900 0.210290 0.818190 -0.533327
O13   O     O_R   0.173230 0.120350 0.186370 -0.536158
O14   O     O_R   0.826770 0.879650 0.813630 -0.542070
O15   O     O_R   0.326770 0.620350 0.313630 -0.536239
O16   O     O_R   0.673230 0.379650 0.686370 -0.542615
C5    C     C_R   0.170070 0.458348 0.334371 0.687443
C6    C     C_R   0.830916 0.542619 0.666985 0.663740
C7    C     C_R   0.329908 0.958355 0.165599 0.687871
C8    C     C_R   0.668816 0.042625 0.832779 0.664223
O17   O     O_3   0.244690 0.453290 0.206760 -0.377201
O18   O     O_3   0.755310 0.546710 0.793240 -0.384477
O19   O     O_3   0.255310 0.953290 0.293240 -0.377898
O20   O     O_3   0.744690 0.046710 0.706760 -0.384678
V1    V     V_3+5 0.250980 0.178070 0.258020 1.348853
V2    V     V_3+5 0.749020 0.821930 0.741980 1.352624
V3    V     V_3+5 0.249020 0.678070 0.241980 1.349271
V4    V     V_3+5 0.750980 0.321930 0.758020 1.353237
C9    C     C_R   0.451048 0.151218 0.053391 -0.188182
C10   C     C_R   0.510312 0.953741 0.909714 -0.168961
C11   C     C_R   0.049165 0.651042 0.446819 -0.213707
C12   C     C_R   0.987741 0.448107 0.588128 -0.166055
H1    H     H_    0.468904 0.281585 0.040447 0.133483
H2    H     H_    0.461056 0.897846 0.892782 0.133636
H3    H     H_    0.031162 0.781322 0.459816 0.140442
H4    H     H_    0.036508 0.388416 0.604418 0.134907
C13   C     C_R   0.403332 0.140693 0.097790 -0.184355
C14   C     C_R   0.556995 0.956528 0.863978 -0.186675
C15   C     C_R   0.097468 0.640695 0.403072 -0.182551
C16   C     C_R   0.941281 0.449959 0.634039 -0.187004
H5    H     H_    0.386469 0.267784 0.118530 0.129234
H6    H     H_    0.543098 0.898736 0.813850 0.107484
H7    H     H_    0.115376 0.768023 0.383489 0.129971
H8    H     H_    0.954679 0.386681 0.683359 0.108366
C17   C     C_R   0.378590 0.969187 0.115533 -0.069465
C18   C     C_R   0.620005 0.036566 0.882230 -0.039262
C19   C     C_R   0.121182 0.469019 0.384213 -0.067399
C20   C     C_R   0.879304 0.536853 0.617189 -0.046877
C21   C     C_R   0.402503 0.809809 0.086305 -0.192149
C22   C     C_R   0.635795 0.112717 0.947730 -0.180835
C23   C     C_R   0.095893 0.309339 0.411944 -0.190556
C24   C     C_R   0.864477 0.621849 0.553064 -0.169188
H9    H     H_    0.384339 0.675268 0.098928 0.126785
H10   H     H_    0.684259 0.177350 0.961516 0.105350
H11   H     H_    0.113617 0.174689 0.398805 0.124986
H12   H     H_    0.817334 0.694610 0.540689 0.108167
C25   C     C_R   0.450839 0.821774 0.041187 0.103883
C26   C     C_R   0.591225 0.097908 0.996654 0.100361
C27   C     C_R   0.046981 0.321138 0.456456 0.121350
C28   C     C_R   0.908521 0.607537 0.503637 0.105038
C29   C     C_R   0.476152 0.995161 0.024974 0.066657
C30   C     C_R   0.526994 0.016844 0.977088 0.042957
C31   C     C_R   0.022101 0.494768 0.473208 0.068619
C32   C     C_R   0.971509 0.517310 0.521479 0.033331
C33   C     C_R   0.088446 0.960905 0.109509 -0.098974
C34   C     C_R   0.908986 0.036731 0.896354 -0.108200
C35   C     C_R   0.411749 0.459819 0.390383 -0.099107
C36   C     C_R   0.591522 0.537013 0.603140 -0.108698
C37   C     C_R   0.023409 0.145754 0.934937 -0.215386
C38   C     C_R   0.977078 0.842469 0.070659 -0.222640
C39   C     C_R   0.477162 0.646775 0.564303 -0.215608
C40   C     C_R   0.522924 0.339273 0.429642 -0.222490
C41   C     C_R   0.965836 0.145374 0.886372 0.087188
C42   C     C_R   0.032324 0.855710 0.121290 0.057855
C43   C     C_R   0.534711 0.646493 0.612841 0.086542
C44   C     C_R   0.467637 0.352631 0.378989 0.056700
C45   C     C_R   0.911454 0.934808 0.959548 0.021398
C46   C     C_R   0.087279 0.054998 0.046087 0.009442
C47   C     C_R   0.589004 0.433788 0.540226 0.020686
C48   C     C_R   0.413063 0.554594 0.453627 0.010374
C49   C     C_R   0.971965 0.940632 0.008399 0.064489
C50   C     C_R   0.027921 0.047624 0.996334 0.074812
C51   C     C_R   0.528397 0.439431 0.491432 0.064653
C52   C     C_R   0.472541 0.547538 0.503228 0.074673
H13   H     H_    0.064855 0.228689 0.923642 0.143553
H14   H     H_    0.937519 0.753564 0.082777 0.127615
H15   H     H_    0.435772 0.730440 0.575383 0.144030
H16   H     H_    0.562144 0.248251 0.418025 0.128079
C53   C     C_3   0.475457 0.647323 0.012601 -0.385341
C54   C     C_3   0.420822 0.564643 0.958719 -0.305774
C55   C     C_3   0.450979 0.455988 0.904329 -0.759217
H17   H     H_    0.475314 0.551369 0.871426 0.222980
H18   H     H_    0.489144 0.357152 0.928057 0.242901
H19   H     H_    0.410871 0.378973 0.871914 0.215491
H20   H     H_    0.387236 0.474344 0.984029 0.189307
H21   H     H_    0.388766 0.675224 0.932327 0.192705
H22   H     H_    0.522685 0.668142 0.990847 0.195042
H23   H     H_    0.490010 0.555182 0.056495 0.138959
C56   C     C_3   0.614274 0.169005 0.068294 -0.369418
C57   C     C_3   0.622765 0.013645 0.121638 -0.290181
C58   C     C_3   0.652662 0.086653 0.191598 -0.788326
H24   H     H_    0.702530 0.149633 0.189263 0.228673
H25   H     H_    0.618810 0.191297 0.209534 0.229822
H26   H     H_    0.659079 0.971235 0.228824 0.216519
H27   H     H_    0.573825 0.949095 0.126489 0.203562
H28   H     H_    0.656280 0.905076 0.106050 0.189087
H29   H     H_    0.663277 0.240624 0.069893 0.171020
H30   H     H_    0.578979 0.274553 0.082510 0.165849
C59   C     C_3   0.022587 0.146370 0.485017 -0.386047
C60   C     C_3   0.077415 0.064778 0.539214 -0.309562
C61   C     C_3   0.047599 0.956543 0.593970 -0.757839
H31   H     H_    0.023134 0.051916 0.626750 0.221849
H32   H     H_    0.009606 0.857070 0.570648 0.243222
H33   H     H_    0.087937 0.880281 0.626481 0.215821
H34   H     H_    0.111333 0.974745 0.514206 0.189792
H35   H     H_    0.109374 0.175728 0.565284 0.192083
H36   H     H_    0.975177 0.166710 0.506498 0.194128
H37   H     H_    0.008469 0.053728 0.441200 0.142097
C62   C     C_3   0.886495 0.691955 0.433821 -0.387979
C63   C     C_3   0.824849 0.594120 0.395838 -0.303626
C64   C     C_3   0.804664 0.676646 0.324968 -0.778540
H38   H     H_    0.792291 0.825220 0.328960 0.229363
H39   H     H_    0.846038 0.661143 0.293735 0.228095
H40   H     H_    0.759783 0.603758 0.298920 0.215974
H41   H     H_    0.836453 0.445450 0.390287 0.196352
H42   H     H_    0.781708 0.607366 0.424813 0.193304
H43   H     H_    0.874879 0.840241 0.440490 0.172178
H44   H     H_    0.926222 0.685559 0.400724 0.186588
C65   C     C_3   0.150155 0.155994 0.031023 -0.365932
C66   C     C_3   0.146081 0.363435 0.045672 -0.270063
C67   C     C_3   0.208847 0.464187 0.030568 -0.731130
H45   H     H_    0.254149 0.407218 0.062218 0.227850
H46   H     H_    0.214357 0.450078 0.975787 0.208211
H47   H     H_    0.204739 0.612996 0.042620 0.212682
H48   H     H_    0.101642 0.425646 0.014507 0.177753
H49   H     H_    0.140618 0.384964 0.100026 0.213208
H50   H     H_    0.196003 0.098771 0.061457 0.164370
H51   H     H_    0.158820 0.131143 0.977666 0.159332
C68   C     C_3   0.853063 0.825498 0.982984 -0.413829
C69   C     C_3   0.782764 0.824158 0.943469 -0.272380
C70   C     C_3   0.732881 0.738939 0.986012 -0.806006
H52   H     H_    0.749136 0.597919 0.003067 0.222218
H53   H     H_    0.729007 0.825814 0.031297 0.226642
H54   H     H_    0.682647 0.728512 0.955067 0.236907
H55   H     H_    0.767327 0.967270 0.930037 0.173581
H56   H     H_    0.781885 0.734051 0.898717 0.251613
H57   H     H_    0.868962 0.678702 0.989201 0.177954
H58   H     H_    0.846314 0.882885 0.033698 0.190131
C71   C     C_3   0.349979 0.654343 0.469019 -0.365438
C72   C     C_3   0.353140 0.861914 0.454257 -0.271696
C73   C     C_3   0.290363 0.961292 0.470220 -0.732211
H59   H     H_    0.285620 0.946754 0.525173 0.208927
H60   H     H_    0.293814 0.110248 0.458069 0.212657
H61   H     H_    0.244937 0.903602 0.439112 0.227215
H62   H     H_    0.397716 0.925025 0.484754 0.177378
H63   H     H_    0.357685 0.883664 0.399735 0.213829
H64   H     H_    0.304187 0.596203 0.438887 0.163983
H65   H     H_    0.341769 0.629108 0.522503 0.159799
C74   C     C_3   0.647209 0.322043 0.517226 -0.412036
C75   C     C_3   0.717881 0.322005 0.556048 -0.280097
C76   C     C_3   0.766909 0.226222 0.514979 -0.802145
H66   H     H_    0.751637 0.080627 0.504534 0.223550
H67   H     H_    0.768396 0.297632 0.465801 0.221160
H68   H     H_    0.818055 0.226275 0.544334 0.236481
H69   H     H_    0.734106 0.465941 0.566774 0.171363
H70   H     H_    0.718940 0.238166 0.602331 0.254903
H71   H     H_    0.631159 0.175267 0.512244 0.179722
H72   H     H_    0.653703 0.376375 0.465990 0.187647
C77   C     C_3   0.026866 0.759188 0.188565 -0.345117
C78   C     C_3   0.034783 0.548723 0.182668 -0.278816
C79   C     C_3   0.997033 0.445909 0.232765 -0.789036
H73   H     H_    0.010486 0.500838 0.285093 0.241022
H74   H     H_    0.942113 0.461603 0.217552 0.224072
H75   H     H_    0.009849 0.296903 0.232686 0.217305
H76   H     H_    0.015600 0.499660 0.130370 0.187823
H77   H     H_    0.088758 0.512235 0.193322 0.205843
H78   H     H_    0.063766 0.811726 0.231096 0.157147
H79   H     H_    0.976959 0.793066 0.203357 0.169526
C80   C     C_3   0.968678 0.263920 0.823372 -0.348947
C81   C     C_3   0.950135 0.467123 0.834840 -0.231255
C82   C     C_3   0.005060 0.572470 0.880097 -0.765405
H80   H     H_    0.006197 0.531336 0.934214 0.226393
H81   H     H_    0.054838 0.547640 0.863782 0.219278
H82   H     H_    0.994425 0.722433 0.876118 0.222124
H83   H     H_    0.941200 0.538062 0.784741 0.161587
H84   H     H_    0.902996 0.476637 0.857717 0.211445
H85   H     H_    0.019563 0.256944 0.807770 0.151597
H86   H     H_    0.935502 0.207735 0.778772 0.142004
C83   C     C_3   0.472544 0.252423 0.312349 -0.344153
C84   C     C_3   0.462110 0.043201 0.319366 -0.276287
C85   C     C_3   0.499323 0.933557 0.270641 -0.791924
H87   H     H_    0.487733 0.987820 0.217965 0.241986
H88   H     H_    0.554208 0.942784 0.287103 0.229413
H89   H     H_    0.484217 0.786326 0.271027 0.216570
H90   H     H_    0.479992 0.995227 0.372155 0.187290
H91   H     H_    0.407826 0.011563 0.308021 0.208046
H92   H     H_    0.436522 0.306749 0.269348 0.156432
H93   H     H_    0.522956 0.280467 0.297735 0.168780
C86   C     C_3   0.531875 0.766487 0.675432 -0.348601
C87   C     C_3   0.550569 0.969069 0.663111 -0.229762
C88   C     C_3   0.495137 0.074709 0.618480 -0.766706
H94   H     H_    0.493235 0.033441 0.564311 0.226274
H95   H     H_    0.445678 0.050343 0.635545 0.219247
H96   H     H_    0.505796 0.224582 0.622226 0.222724
H97   H     H_    0.560550 0.040790 0.712942 0.161604
H98   H     H_    0.597202 0.977088 0.639292 0.210440
H99   H     H_    0.480960 0.760596 0.690998 0.151270
H100  H     H_    0.564865 0.710953 0.720349 0.143415

loop_
_geom_bond_atom_site_label_1
_geom_bond_atom_site_label_2
_ccdc_geom_bond_type
O17   V3    S    
C67   H47   S    
C47   C51   A    
C51   C52   A    
O1    C5    A    
C53   C54   S    
C85   H88   S    
C23   H11   S    
C62   H44   S    
C73   H60   S    
O13   V1    S    
O3    C7    A    
C55   H17   S    
C10   C14   A    
C86   C87   S    
O15   V3    S    
C80   H86   S    
C10   C30   A    
C70   H52   S    
C33   C42   A    
C55   H19   S    
C9    C29   A    
C62   C63   S    
C79   H74   S    
C49   C50   A    
O7    C3    A    
C44   C83   S    
C58   H25   S    
C65   H51   S    
C76   H66   S    
C67   H45   S    
C28   C32   A    
O9    V1    S    
C75   C76   S    
C35   C48   A    
C36   C43   A    
C66   H49   S    
C57   H27   S    
O4    C8    A    
C25   C53   S    
C7    C17   S    
O19   V1    S    
C75   H70   S    
C68   C69   S    
O1    V3    S    
C83   H92   S    
C81   C82   S    
O2    V4    S    
C14   H6    S    
O3    V1    S    
C34   C45   A    
C78   C79   S    
C57   C58   S    
C69   H56   S    
C33   C46   A    
C56   C57   S    
C21   C25   A    
C1    O15   A    
C84   H91   S    
C59   H37   S    
C74   C75   S    
C2    O16   A    
C61   H32   S    
C23   C27   A    
C87   H97   S    
O2    C6    A    
C42   C77   S    
C24   C28   A    
O14   V2    S    
C11   C31   A    
C11   C15   A    
C60   H34   S    
C39   H15   S    
C85   H89   S    
C16   C20   A    
O11   C7    A    
C84   C85   S    
C77   H78   S    
O12   C8    A    
C34   C41   A    
C86   H99   S    
C75   H69   S    
C4    C34   S    
O10   V2    S    
C60   H35   S    
C13   C17   A    
C35   C44   A    
C70   H53   S    
O16   V4    S    
C60   C61   S    
C79   H75   S    
O5    V1    S    
C88   H95   S    
C8    C18   S    
C58   H26   S    
C27   C31   A    
O7    V3    S    
C26   C30   A    
O9    C5    A    
C31   C32   S    
O8    V4    S    
C1    C35   S    
C12   H4    S    
C53   H22   S    
C66   H48   S    
C21   H9    S    
O18   V4    S    
C82   H82   S    
C22   C26   A    
C77   C78   S    
C9    H1    S    
C83   H93   S    
C24   H12   S    
C71   H64   S    
C56   H30   S    
C48   C52   A    
C11   H3    S    
C80   C81   S    
C72   H63   S    
C69   H55   S    
C79   H73   S    
C25   C29   A    
C64   H40   S    
C48   C71   S    
C84   H90   S    
C54   H21   S    
O8    C4    A    
C61   H33   S    
C55   H18   S    
C63   H42   S    
C18   C22   A    
C74   H72   S    
C40   C51   A    
C72   C73   S    
C14   C18   A    
C88   H94   S    
C68   H58   S    
O6    V2    S    
C40   H16   S    
C77   H79   S    
C83   C84   S    
C76   H68   S    
C43   C86   S    
C65   C66   S    
C81   H84   S    
C86   H100  S    
C12   C16   A    
C4    O14   A    
C78   H77   S    
C5    C19   S    
C70   H54   S    
C74   H71   S    
C6    C20   S    
C59   C60   S    
C22   H10   S    
C88   H96   S    
C67   H46   S    
C47   C74   S    
C3    O13   A    
C13   H5    S    
C62   H43   S    
C10   H2    S    
C40   C44   A    
O5    C1    A    
C69   C70   S    
C80   H85   S    
C53   H23   S    
C26   C56   S    
C12   C32   A    
O11   V3    S    
C66   C67   S    
C56   H29   S    
O12   V4    S    
C28   C62   S    
C58   H24   S    
C65   H50   S    
C71   H65   S    
C9    C13   A    
O10   C6    A    
C46   C65   S    
O20   V2    S    
C37   H13   S    
C72   H62   S    
C3    C33   S    
C46   C50   A    
C57   H28   S    
C15   C19   A    
C82   H80   S    
C64   H38   S    
C39   C43   A    
C54   H20   S    
C17   C21   A    
C38   H14   S    
C68   H57   S    
C41   C80   S    
C63   H41   S    
C19   C23   A    
C38   C49   A    
C54   C55   S    
O4    V2    S    
C37   C50   A    
C36   C47   A    
C82   H81   S    
O6    C2    A    
C85   H87   S    
C27   C59   S    
C16   H8    S    
C39   C52   A    
C45   C68   S    
C59   H36   S    
C87   C88   S    
C76   H67   S    
C29   C30   S    
C38   C42   A    
C87   H98   S    
C73   H59   S    
C64   H39   S    
C37   C41   A    
C81   H83   S    
C61   H31   S    
C71   C72   S    
C15   H7    S    
C78   H76   S    
C45   C49   A    
C20   C24   A    
C63   C64   S    
C73   H61   S    
C2    C36   S    
