data_mof_unit_37535.cif
_audit_creation_date              2012-12-11T14:33:59-0500
_audit_creation_method            fapswitch 2.2
_symmetry_space_group_name_H-M    P1
_symmetry_Int_Tables_number       1
_space_group_crystal_system       triclinic
_cell_length_a                    13.825545
_cell_length_b                    13.956113
_cell_length_c                    27.289357
_cell_angle_alpha                 90.059226
_cell_angle_beta                  89.916575
_cell_angle_gamma                 119.633734
_cell_volume                      4576.7927647

loop_
_atom_site_label
_atom_site_type_symbol
_atom_type_description
_atom_site_fract_x
_atom_site_fract_y
_atom_site_fract_z
_atom_type_partial_charge
C1    C     C_R   0.233503 0.787352 0.568627 0.527252
C2    C     C_R   0.212376 0.446065 0.568654 0.529312
C3    C     C_R   0.553393 0.765786 0.568825 0.526629
C4    C     C_3   0.666168 0.735812 0.789367 -0.157987
C5    C     C_3   0.241778 0.954299 0.782846 -0.163492
C6    C     C_3   0.052449 0.307169 0.785416 -0.158371
C7    C     C_3   0.644631 0.721825 0.733175 0.184211
C8    C     C_3   0.257131 0.942557 0.727205 0.196955
C9    C     C_3   0.067954 0.340607 0.730409 0.185493
C10   C     C_1   0.708318 0.862262 0.859830 -0.079233
C11   C     C_1   0.112815 0.879787 0.852605 -0.079820
C12   C     C_1   0.114970 0.230300 0.852040 -0.080537
C13   C     C_1   0.630706 0.816614 0.658494 -0.063857
C14   C     C_1   0.175240 0.818933 0.656026 -0.057375
C15   C     C_1   0.178830 0.357395 0.656051 -0.063111
C16   C     C_1   0.602593 0.797934 0.616273 -0.032855
C17   C     C_1   0.197906 0.806314 0.614895 -0.024231
C18   C     C_1   0.192896 0.392342 0.614930 -0.030788
C19   C     C_R   0.064358 0.149991 0.095971 0.579843
C20   C     C_R   0.776969 0.883965 0.088270 0.547736
C21   C     C_R   0.116305 0.893406 0.088149 0.560069
C22   C     C_R   0.069345 0.160138 0.943193 0.540092
C23   C     C_R   0.779580 0.887023 0.950744 0.541617
C24   C     C_R   0.090659 0.929766 0.943359 0.536716
C25   C     C_R   0.641649 0.907363 0.364621 0.257755
C26   C     C_R   0.088822 0.742303 0.365517 0.256245
C27   C     C_R   0.253939 0.335774 0.368299 0.256983
C28   C     C_R   0.660742 0.919162 0.313748 0.019716
C29   C     C_R   0.074240 0.751475 0.314865 0.017331
C30   C     C_R   0.232023 0.289545 0.320605 0.015299
C31   C     C_R   0.688305 0.933783 0.211273 0.020361
C32   C     C_R   0.055775 0.764137 0.212535 0.017523
C33   C     C_R   0.193013 0.213887 0.222595 0.017824
C34   C     C_R   0.231924 0.788954 0.432088 0.556323
C35   C     C_R   0.211072 0.443023 0.431771 0.560999
C36   C     C_R   0.557293 0.767927 0.432240 0.556323
C37   C     C_R   0.672581 0.012156 0.236697 -0.148481
C38   C     C_R   0.968553 0.680429 0.239397 -0.140209
C39   C     C_R   0.290763 0.233904 0.246627 -0.137567
C40   C     C_R   0.659335 0.005301 0.287535 -0.121922
C41   C     C_R   0.978114 0.673291 0.290043 -0.121333
C42   C     C_R   0.310207 0.271377 0.295098 -0.124731
C43   C     C_R   0.709655 0.943900 0.160805 -0.145087
C44   C     C_R   0.046295 0.774116 0.162025 -0.132714
C45   C     C_R   0.176468 0.184631 0.172852 -0.130304
C46   C     C_R   0.725156 0.864058 0.136508 -0.005022
C47   C     C_R   0.134201 0.860026 0.136217 -0.006535
C48   C     C_R   0.081077 0.171884 0.148709 -0.010055
C49   C     C_R   0.653033 0.738633 0.363151 -0.184958
C50   C     C_R   0.269509 0.909769 0.361363 -0.182474
C51   C     C_R   0.077328 0.334945 0.366846 -0.187699
C52   C     C_R   0.675252 0.750987 0.313426 -0.001445
C53   C     C_R   0.257292 0.918603 0.311699 -0.001185
C54   C     C_R   0.052854 0.285422 0.321058 -0.005923
C55   C     C_R   0.674934 0.839021 0.288162 0.020965
C56   C     C_R   0.161010 0.837731 0.287899 0.021200
C57   C     C_R   0.131798 0.266160 0.296927 0.020618
C58   C     C_R   0.688423 0.671059 0.288004 -0.117404
C59   C     C_R   0.344546 0.002566 0.285000 -0.117160
C60   C     C_R   0.953900 0.263051 0.297534 -0.125735
C61   C     C_R   0.697659 0.676099 0.237334 -0.125569
C62   C     C_R   0.338159 0.004708 0.234351 -0.130152
C63   C     C_R   0.935338 0.226678 0.249266 -0.119607
C64   C     C_R   0.696707 0.762653 0.211897 0.016771
C65   C     C_R   0.242918 0.925181 0.210227 0.019087
C66   C     C_R   0.014196 0.209987 0.224310 0.021497
C67   C     C_3   0.563965 0.849256 0.737362 -0.263031
C68   C     C_3   0.146935 0.735810 0.738644 -0.268169
C69   C     C_3   0.270722 0.393874 0.737025 -0.267514
C70   C     C_R   0.686738 0.845339 0.237121 0.068727
C71   C     C_R   0.153094 0.842202 0.236891 0.068358
C72   C     C_R   0.112295 0.228250 0.248190 0.065740
C73   C     C_R   0.710415 0.770029 0.161667 -0.125397
C74   C     C_R   0.234369 0.930585 0.159944 -0.135390
C75   C     C_R   0.998655 0.180356 0.175120 -0.127860
C76   C     C_R   0.624552 0.809383 0.387612 -0.004358
C77   C     C_R   0.192221 0.815944 0.387139 -0.001919
C78   C     C_R   0.180498 0.367919 0.389196 -0.000711
C79   C     C_3   0.769024 0.928265 0.722750 -0.196527
C80   C     C_3   0.048328 0.839116 0.714720 -0.186309
C81   C     C_3   0.129806 0.200939 0.712601 -0.191583
C82   C     C_3   0.788682 0.940207 0.778883 -0.217504
C83   C     C_3   0.033765 0.859030 0.769417 -0.210358
C84   C     C_3   0.110234 0.166429 0.767158 -0.218306
C85   C     C_1   0.735057 0.872995 0.902312 -0.026811
C86   C     C_1   0.102512 0.901062 0.894328 -0.022012
C87   C     C_1   0.096304 0.199312 0.893897 -0.026379
C88   C     C_3   0.652575 0.829037 0.711466 0.090410
C89   C     C_3   0.156872 0.833954 0.707732 0.088503
C90   C     C_3   0.161869 0.323492 0.707611 0.088396
C91   C     C_3   0.583530 0.860905 0.793539 -0.236648
C92   C     C_3   0.125973 0.749826 0.793463 -0.233431
C93   C     C_3   0.253909 0.358551 0.791666 -0.233538
C94   C     C_3   0.686411 0.850064 0.806833 0.036358
C95   C     C_3   0.127801 0.860649 0.800975 0.036656
C96   C     C_3   0.132915 0.265117 0.800476 0.033865
Cr1   Cr    Cr6+3 0.164410 0.584450 0.499910 1.025601
Cr2   Cr    Cr6+3 0.415550 0.579960 0.499910 1.018381
Cr3   Cr    Cr6+3 0.420040 0.835590 0.499910 1.028737
Cr4   Cr    Cr6+3 0.155170 0.075460 0.019960 1.016102
Cr5   Cr    Cr6+3 0.924540 0.079710 0.019960 1.005005
Cr6   Cr    Cr6+3 0.920290 0.844830 0.019960 1.007753
H1    H     H_    0.596110 0.942361 0.805820 0.123550
H2    H     H_    0.044038 0.680244 0.805088 0.126184
H3    H     H_    0.313401 0.329953 0.801871 0.120091
H4    H     H_    0.478926 0.779711 0.729710 0.098365
H5    H     H_    0.224628 0.730910 0.735222 0.098869
H6    H     H_    0.296068 0.482835 0.734341 0.097995
H7    H     H_    0.508564 0.796162 0.812747 0.114989
H8    H     H_    0.190965 0.747073 0.816465 0.119611
H9    H     H_    0.272458 0.430810 0.815202 0.120910
H10   H     H_    0.739313 0.726401 0.798924 0.144520
H11   H     H_    0.249936 0.035830 0.790939 0.129549
H12   H     H_    0.964942 0.242019 0.792590 0.143211
H13   H     H_    0.719522 0.015631 0.141119 0.104600
H14   H     H_    0.968884 0.719592 0.143480 0.117313
H15   H     H_    0.238970 0.175358 0.152680 0.123252
H16   H     H_    0.670833 0.078940 0.217270 0.095408
H17   H     H_    0.893498 0.619749 0.221157 0.101006
H18   H     H_    0.353812 0.223835 0.227455 0.105032
H19   H     H_    0.646470 0.066751 0.306067 0.136734
H20   H     H_    0.910482 0.605779 0.309484 0.136371
H21   H     H_    0.388306 0.289387 0.311895 0.137528
H22   H     H_    0.719930 0.706647 0.142839 0.127387
H23   H     H_    0.302615 0.996463 0.139848 0.122157
H24   H     H_    0.923682 0.167693 0.156771 0.118291
H25   H     H_    0.706160 0.612738 0.218053 0.095723
H26   H     H_    0.407086 0.069197 0.214102 0.093791
H27   H     H_    0.861488 0.215984 0.230813 0.102528
H28   H     H_    0.688366 0.603015 0.307157 0.102093
H29   H     H_    0.419164 0.064497 0.303145 0.103318
H30   H     H_    0.892982 0.278142 0.315763 0.099227
H31   H     H_    0.567675 0.925446 0.722722 0.116627
H32   H     H_    0.077452 0.656689 0.724629 0.110298
H33   H     H_    0.339627 0.384006 0.721274 0.114126
H34   H     H_    0.646707 0.666859 0.381539 0.144578
H35   H     H_    0.346339 0.970629 0.378491 0.153790
H36   H     H_    0.017723 0.354034 0.383649 0.149324
H37   H     H_    0.835043 0.916983 0.704793 0.148061
H38   H     H_    0.049791 0.905959 0.691975 0.151924
H39   H     H_    0.053333 0.147496 0.691124 0.151605
H40   H     H_    0.775532 0.005420 0.707780 0.123428
H41   H     H_    0.975732 0.760350 0.702494 0.120528
H42   H     H_    0.197479 0.188352 0.697546 0.145153
H43   H     H_    0.806088 0.023582 0.790746 0.121225
H44   H     H_    0.951096 0.793352 0.782564 0.128906
H45   H     H_    0.165747 0.133887 0.777780 0.125657
H46   H     H_    0.862903 0.932710 0.787953 0.104011
H47   H     H_    0.035128 0.938607 0.773224 0.106170
H48   H     H_    0.022984 0.099847 0.772122 0.107704
H49   H     H_    0.557483 0.652401 0.728248 0.072362
H50   H     H_    0.333761 0.935503 0.722546 0.079618
H51   H     H_    0.095569 0.430756 0.728898 0.069275
H52   H     H_    0.593355 0.669361 0.809110 0.075717
H53   H     H_    0.309811 0.951498 0.803449 0.071222
H54   H     H_    0.068239 0.379475 0.808374 0.077852
O1    O     O_R   0.137150 0.468200 0.553200 -0.522176
O2    O     O_R   0.531800 0.668950 0.553200 -0.530153
O3    O     O_R   0.331050 0.862850 0.553200 -0.516268
O4    O     O_R   0.179100 0.982980 0.967000 -0.504811
O5    O     O_R   0.017020 0.196120 0.967000 -0.483235
O6    O     O_R   0.803880 0.820900 0.967000 -0.511723
O7    O     O_R   0.173970 0.688730 0.549930 -0.512753
O8    O     O_R   0.311270 0.485240 0.549930 -0.512911
O9    O     O_R   0.514760 0.826030 0.549930 -0.506358
O10   O     O_R   0.140110 0.470540 0.446010 -0.521213
O11   O     O_R   0.529460 0.669570 0.446010 -0.520196
O12   O     O_R   0.330430 0.859890 0.446010 -0.520320
O13   O     O_R   0.176710 0.690910 0.450560 -0.446882
O14   O     O_R   0.309090 0.485800 0.450560 -0.448117
O15   O     O_R   0.514200 0.823290 0.450560 -0.444126
O16   O     O_3   0.333333 0.666667 0.499990 -0.269221
O17   O     O_R   0.176750 0.985260 0.074180 -0.529552
O18   O     O_R   0.014740 0.191490 0.074180 -0.495975
O19   O     O_R   0.808510 0.823250 0.074180 -0.516448
O20   O     O_R   0.146100 0.172630 0.068980 -0.476971
O21   O     O_R   0.827370 0.973470 0.068980 -0.517709
O22   O     O_R   0.026530 0.853900 0.068980 -0.488665
O23   O     O_3   1.000000 0.000000 0.020040 -0.285439
O24   O     O_R   0.148270 0.170520 0.969620 -0.490107
O25   O     O_R   0.829480 0.977750 0.969620 -0.519698
O26   O     O_R   0.022250 0.851730 0.969620 -0.481221
O27   O     O_3   0.628362 0.985284 0.390739 -0.559755
C97   C     C_3   0.734396 0.074082 0.403500 -0.009452
H55   H     H_    0.726638 0.149421 0.406294 0.139468
H56   H     H_    0.799574 0.092126 0.375147 0.121646
C98   C     C_3   0.772020 0.053563 0.453327 -0.257622
H57   H     H_    0.708740 0.040708 0.481592 0.178394
H58   H     H_    0.779947 0.978221 0.451491 0.147564
C99   C     C_3   0.884155 0.150582 0.468404 -0.481924
H59   H     H_    0.949506 0.161775 0.441617 0.148859
H60   H     H_    0.907926 0.134292 0.505013 0.146248
H61   H     H_    0.879229 0.227561 0.470450 0.154206
O28   O     O_3   0.007992 0.655382 0.392463 -0.559682
C100  C     C_3   0.924414 0.680231 0.407131 -0.009343
H62   H     H_    0.844573 0.601169 0.409136 0.141961
H63   H     H_    0.910812 0.733043 0.380419 0.117316
C101  C     C_3   0.950174 0.733888 0.457980 -0.257616
H64   H     H_    0.962172 0.680049 0.484382 0.179299
H65   H     H_    0.028207 0.814708 0.456419 0.147367
C102  C     C_3   0.855937 0.752092 0.476147 -0.482653
H66   H     H_    0.843755 0.807377 0.450727 0.145003
H67   H     H_    0.876916 0.790899 0.512999 0.145360
H68   H     H_    0.777145 0.672202 0.478925 0.154132
O29   O     O_3   0.350703 0.358004 0.392698 -0.558406
C103  C     C_3   0.338438 0.259458 0.413479 -0.007842
H69   H     H_    0.422844 0.268939 0.416613 0.142198
H70   H     H_    0.289138 0.185195 0.390118 0.116976
C104  C     C_3   0.287132 0.240202 0.464873 -0.258572
H71   H     H_    0.339119 0.312800 0.488403 0.184343
H72   H     H_    0.202206 0.229734 0.462627 0.148011
C105  C     C_3   0.279129 0.137293 0.488387 -0.481033
H73   H     H_    0.225836 0.063264 0.465869 0.148221
H74   H     H_    0.241718 0.125492 0.525467 0.147746
H75   H     H_    0.363192 0.146140 0.491995 0.151082
O30   O     O_3   0.725253 0.700689 0.710804 -0.591017
C106  C     C_3   0.675599 0.611809 0.677304 -0.000904
H76   H     H_    0.609985 0.614744 0.654821 0.145070
H77   H     H_    0.637192 0.532607 0.697778 0.123404
C107  C     C_3   0.765204 0.616677 0.642797 -0.253061
H78   H     H_    0.818165 0.702618 0.629558 0.175713
H79   H     H_    0.818858 0.591637 0.663039 0.145831
C108  C     C_3   0.714207 0.541489 0.598445 -0.487756
H80   H     H_    0.656158 0.455727 0.610331 0.138618
H81   H     H_    0.781268 0.541938 0.575828 0.142153
H82   H     H_    0.668132 0.571283 0.575523 0.172911
O31   O     O_3   0.261963 0.033694 0.701674 -0.594768
C109  C     C_3   0.370928 0.109832 0.685822 -0.004663
H83   H     H_    0.362964 0.159363 0.655876 0.151623
H84   H     H_    0.415057 0.068819 0.669518 0.125045
C110  C     C_3   0.438641 0.188247 0.727420 -0.279570
H85   H     H_    0.391808 0.226877 0.743043 0.160454
H86   H     H_    0.452483 0.141525 0.756886 0.145751
C111  C     C_3   0.551406 0.278447 0.709101 -0.491921
H87   H     H_    0.600540 0.241226 0.694800 0.149902
H88   H     H_    0.598008 0.334880 0.739738 0.144238
H89   H     H_    0.540278 0.326900 0.679614 0.134509
O32   O     O_3   0.966229 0.273769 0.705307 -0.587545
C112  C     C_3   0.929673 0.338787 0.680537 -0.001491
H90   H     H_    0.995881 0.399356 0.655814 0.146681
H91   H     H_    0.906093 0.383513 0.707596 0.120881
C113  C     C_3   0.828228 0.263546 0.649542 -0.248128
H92   H     H_    0.850412 0.216195 0.623456 0.173940
H93   H     H_    0.760428 0.204065 0.673801 0.157089
C114  C     C_3   0.787126 0.330023 0.620760 -0.495550
H94   H     H_    0.767239 0.379964 0.646211 0.145698
H95   H     H_    0.710821 0.273275 0.600093 0.142101
H96   H     H_    0.851780 0.385763 0.594374 0.158091

loop_
_geom_bond_atom_site_label_1
_geom_bond_atom_site_label_2
_ccdc_geom_bond_type
C15   C18   T    
C4    H52   S    
C10   C85   T    
C99   H59   S    
C82   C94   S    
Cr3   O3    S    
C2    C18   S    
C33   C45   A    
C102  H66   S    
C79   H37   S    
C108  H80   S    
C48   C75   A    
C84   H48   S    
Cr2   O14   S    
C27   C78   A    
C92   H8    S    
C35   O10   A    
C6    C9    S    
C107  H79   S    
C53   C59   A    
C50   H35   S    
C54   C60   A    
O29   C103  S    
C106  C107  S    
C40   H19   S    
C59   H29   S    
C67   C88   S    
C33   C39   A    
Cr1   O16   S    
C31   C43   A    
C60   C63   A    
C108  H81   S    
C82   H46   S    
C67   H31   S    
C112  H90   S    
C28   C55   A    
C23   O25   A    
C37   C40   A    
C69   C93   S    
C80   C83   S    
C34   C77   S    
C64   C70   A    
C103  H70   S    
C53   C56   A    
C20   O19   A    
Cr3   O15   S    
C28   C40   A    
C11   C86   T    
C11   C95   S    
Cr1   O10   S    
C30   C57   A    
C104  C105  S    
Cr1   O13   S    
C97   H55   S    
C84   C96   S    
C80   C89   S    
C7    C88   S    
C19   O20   A    
C6    H12   S    
C98   C99   S    
C36   C76   S    
C33   C72   A    
C43   H13   S    
C69   H6    S    
C81   H42   S    
C66   C72   A    
C37   H16   S    
Cr2   O2    S    
Cr1   O7    S    
Cr4   O20   S    
C3    O2    A    
C113  H93   S    
C64   C73   A    
C101  H64   S    
C68   H5    S    
C32   C38   A    
C39   C42   A    
Cr2   O11   S    
C99   H61   S    
C44   C47   A    
C100  C101  S    
C93   H3    S    
C56   C71   A    
C58   C61   A    
C81   H39   S    
O28   C100  S    
C4    H10   S    
C63   C66   A    
C9    H51   S    
C69   H33   S    
C114  H94   S    
C27   C30   A    
Cr6   O23   S    
C102  H67   S    
C14   C17   T    
C60   H30   S    
Cr5   O18   S    
C111  H88   S    
C4    C7    S    
C34   O12   A    
C109  H84   S    
C107  H78   S    
C5    C95   S    
C8    O31   S    
C68   C92   S    
C42   H21   S    
C104  H71   S    
C32   C71   A    
C21   C47   S    
C31   C70   A    
C108  H82   S    
C50   C53   A    
C98   H58   S    
C24   O26   A    
C113  C114  S    
C1    O3    A    
O30   C106  S    
C38   C41   A    
C22   O24   A    
C2    O8    A    
C22   O5    A    
C103  H69   S    
C109  C110  S    
Cr3   O16   S    
C109  H83   S    
Cr6   O19   S    
C65   C71   A    
C112  H91   S    
C36   O11   A    
C65   C74   A    
C31   C37   A    
C27   O29   S    
C111  H89   S    
Cr6   O26   S    
C41   H20   S    
C61   C64   A    
O27   C97   S    
C14   C89   S    
Cr5   O23   S    
C80   H41   S    
C5    C8    S    
C83   H44   S    
Cr4   O4    S    
C5    H11   S    
O31   C109  S    
C105  H75   S    
Cr6   O6    S    
C73   H22   S    
C83   C95   S    
C101  C102  S    
C67   C91   S    
C113  H92   S    
C32   C44   A    
C49   C76   A    
C61   H25   S    
C22   C87   S    
C105  H73   S    
C1    O7    A    
C34   O13   A    
C52   C58   A    
C93   H9    S    
C7    H49   S    
C81   C90   S    
Cr3   O9    S    
C21   O22   A    
C106  H76   S    
C49   H34   S    
C105  H74   S    
C93   C96   S    
C21   O17   A    
C114  H95   S    
Cr6   O22   S    
C102  H68   S    
C4    C94   S    
C114  H96   S    
C106  H77   S    
C111  H87   S    
C92   C95   S    
C69   C90   S    
Cr4   O24   S    
C50   C77   A    
Cr4   O17   S    
C81   C84   S    
Cr5   O25   S    
C9    O32   S    
C3    O9    A    
C23   O6    A    
C38   H17   S    
Cr3   O12   S    
C45   C48   A    
C45   H15   S    
O32   C112  S    
C59   C62   A    
C99   H60   S    
C62   C65   A    
C29   C41   A    
C19   C48   S    
C1    C17   S    
C30   C42   A    
C7    O30   S    
C47   C74   A    
C91   H1    S    
C8    H50   S    
C9    C90   S    
C79   C82   S    
Cr2   O8    S    
C24   O4    A    
C67   H4    S    
C20   O21   A    
C29   C56   A    
C84   H45   S    
C35   C78   S    
C6    C96   S    
C97   C98   S    
C15   C90   S    
C51   C54   A    
C49   C52   A    
C25   C76   A    
C75   H24   S    
Cr5   O5    S    
C26   C77   A    
C19   O18   A    
Cr2   O16   S    
C98   H57   S    
C12   C87   T    
C80   H38   S    
C91   C94   S    
C62   H26   S    
C52   C55   A    
C36   O15   A    
C103  C104  S    
C91   H7    S    
C58   H28   S    
C2    O1    A    
C66   C75   A    
C46   C73   A    
C13   C88   S    
C68   H32   S    
C104  H72   S    
C97   H56   S    
C112  C113  S    
C63   H27   S    
C57   C72   A    
C5    H53   S    
C43   C46   A    
C20   C46   S    
C74   H23   S    
C51   C78   A    
C55   C70   A    
Cr5   O21   S    
C110  C111  S    
C92   H2    S    
C25   C28   A    
C100  H62   S    
C79   H40   S    
C51   H36   S    
C25   O27   S    
C79   C88   S    
C82   H43   S    
C44   H14   S    
C26   C29   A    
C110  H86   S    
C23   C85   S    
C13   C16   T    
C110  H85   S    
C35   O14   A    
C10   C94   S    
C12   C96   S    
C83   H47   S    
C101  H65   S    
C8    C89   S    
C68   C89   S    
Cr4   O23   S    
C24   C86   S    
C107  C108  S    
C6    H54   S    
C3    C16   S    
C39   H18   S    
Cr1   O1    S    
C100  H63   S    
C54   C57   A    
C26   O28   S    
