data_mof_unit_46048.cif
_audit_creation_date              2012-12-10T17:40:31-0500
_audit_creation_method            fapswitch 2.2
_symmetry_space_group_name_H-M    P1
_symmetry_Int_Tables_number       1
_space_group_crystal_system       triclinic
_cell_length_a                    13.727729
_cell_length_b                    15.001497
_cell_length_c                    15.850091
_cell_angle_alpha                 90.093468
_cell_angle_beta                  70.112042
_cell_angle_gamma                 89.740916
_cell_volume                      3069.39041555

loop_
_atom_site_label
_atom_site_type_symbol
_atom_type_description
_atom_site_fract_x
_atom_site_fract_y
_atom_site_fract_z
_atom_type_partial_charge
C1    C     C_R   0.499927 0.671151 0.500039 0.806221
C2    C     C_R   0.500036 0.328898 0.500391 0.807213
C3    C     C_R   0.374635 0.536184 0.094854 -0.227020
C4    C     C_R   0.625558 0.532452 0.905049 -0.227255
C5    C     C_R   0.303531 0.537065 0.050154 -0.235194
C6    C     C_R   0.696659 0.533089 0.949742 -0.236081
C7    C     C_R   0.523425 0.187481 0.567711 -0.237566
C8    C     C_R   0.485012 0.813474 0.429927 -0.233834
C9    C     C_R   0.500536 0.232533 0.500565 -0.064323
C10   C     C_R   0.500906 0.767581 0.499873 -0.057970
C11   C     C_R   0.479679 0.186788 0.432821 -0.235589
C12   C     C_R   0.522881 0.812590 0.567645 -0.234178
C13   C     C_R   0.484571 0.093382 0.428718 0.072360
C14   C     C_R   0.522526 0.906177 0.570518 0.065084
C15   C     C_R   0.506231 0.046699 0.498610 -0.024340
C16   C     C_R   0.508029 0.953333 0.497819 -0.020336
C17   C     C_R   0.524261 0.093896 0.569891 0.062654
C18   C     C_R   0.495456 0.906460 0.424051 0.062566
C19   C     C_R   0.472613 0.046583 0.354664 0.138341
C20   C     C_R   0.536378 0.952741 0.643934 0.117772
C21   C     C_R   0.491904 0.953366 0.347348 0.109538
C22   C     C_R   0.542003 0.047353 0.641628 0.110407
C23   C     C_R   0.437287 0.500859 0.672317 0.796262
C24   C     C_R   0.562687 0.501138 0.327709 0.797856
C25   C     C_R   0.222091 0.568294 0.460902 0.007693
C26   C     C_R   0.779898 0.429393 0.534586 0.005910
C27   C     C_R   0.192067 0.431761 0.538875 0.010306
C28   C     C_R   0.806929 0.569517 0.463420 0.007233
C29   C     C_R   0.088516 0.428431 0.539169 -0.043369
C30   C     C_R   0.910130 0.573336 0.463838 -0.029753
C31   C     C_R   0.052040 0.499650 0.498987 0.009536
C32   C     C_R   0.948777 0.499621 0.498908 0.005163
C33   C     C_R   0.119298 0.570886 0.458973 -0.043679
C34   C     C_R   0.883821 0.425471 0.533170 -0.045932
C35   C     C_R   0.022287 0.355025 0.576465 0.130292
C36   C     C_R   0.975010 0.648159 0.429067 0.130417
C37   C     C_R   0.923530 0.349596 0.565085 0.060840
C38   C     C_R   0.082404 0.643128 0.419441 0.051669
C39   C     C_R   0.400485 0.507306 0.770650 -0.056465
C40   C     C_R   0.599397 0.507762 0.229452 -0.056601
C41   C     C_R   0.263230 0.525648 0.913582 -0.203020
C42   C     C_R   0.736811 0.523087 0.086436 -0.202744
C43   C     C_R   0.295013 0.516004 0.820692 -0.197648
C44   C     C_R   0.704945 0.514568 0.179369 -0.197169
C45   C     C_R   0.473514 0.508458 0.814349 -0.255562
C46   C     C_R   0.526300 0.510436 0.185834 -0.261590
C47   C     C_R   0.443916 0.521796 0.907407 0.087317
C48   C     C_R   0.556077 0.522362 0.092664 0.087281
C49   C     C_R   0.336620 0.528197 0.957264 0.168200
C50   C     C_R   0.663449 0.526290 0.042741 0.168344
C51   C     C_R   0.517738 0.526765 0.952297 0.065092
C52   C     C_R   0.482333 0.527887 0.047704 0.066380
Cu1   Cu    Cu3+1 0.402580 0.500010 0.499990 0.928047
Cu2   Cu    Cu3+1 0.597420 0.499990 0.500010 0.926778
H1    H     H_    0.221788 0.543659 0.088846 0.139482
H2    H     H_    0.778497 0.537648 0.910960 0.140989
H3    H     H_    0.276155 0.621089 0.432917 0.143043
H4    H     H_    0.726143 0.376633 0.563648 0.141767
H5    H     H_    0.224092 0.379433 0.567911 0.150733
H6    H     H_    0.775487 0.621447 0.433379 0.151323
H7    H     H_    0.446313 0.500849 0.225930 0.155097
H8    H     H_    0.553301 0.496941 0.774330 0.153439
H9    H     H_    0.762738 0.513045 0.211857 0.152947
H10   H     H_    0.237240 0.515429 0.788172 0.153836
H11   H     H_    0.181174 0.531390 0.951340 0.128959
H12   H     H_    0.818933 0.527084 0.048617 0.128824
H13   H     H_    0.342565 0.545000 0.166537 0.139304
H14   H     H_    0.657818 0.539326 0.833233 0.145267
H15   H     H_    0.537349 0.227791 0.618859 0.143170
H16   H     H_    0.463245 0.774798 0.381731 0.121857
H17   H     H_    0.463989 0.226371 0.382035 0.148914
H18   H     H_    0.537945 0.772404 0.618326 0.148230
N1    N     N_R   0.256170 0.500070 0.500040 -0.188835
N2    N     N_R   0.743830 0.499930 0.499960 -0.189615
O1    O     O_R   0.417730 0.629750 0.499970 -0.589238
O2    O     O_R   0.582270 0.370250 0.500030 -0.588920
O3    O     O_R   0.582270 0.629730 0.499980 -0.589802
O4    O     O_R   0.417730 0.370270 0.500020 -0.589121
O5    O     O_R   0.371590 0.500020 0.629830 -0.582375
O6    O     O_R   0.628410 0.499980 0.370170 -0.581785
O7    O     O_R   0.536130 0.499990 0.629840 -0.585629
O8    O     O_R   0.463870 0.500010 0.370160 -0.586492
C53   C     C_3   0.055442 0.284606 0.630807 -0.417647
C54   C     C_3   0.119433 0.210117 0.571049 -0.832189
H19   H     H_    0.191226 0.237142 0.521549 0.247472
H20   H     H_    0.141484 0.160236 0.613093 0.244073
H21   H     H_    0.074477 0.176043 0.534189 0.254358
H22   H     H_    0.099740 0.315037 0.670273 0.184650
H23   H     H_    0.987943 0.256463 0.684439 0.190516
C55   C     C_3   0.927864 0.734022 0.406544 -0.422173
C56   C     C_3   0.855164 0.779605 0.491218 -0.837916
H24   H     H_    0.789089 0.736477 0.527848 0.251136
H25   H     H_    0.898195 0.796977 0.536919 0.247791
H26   H     H_    0.823524 0.841922 0.472610 0.247415
H27   H     H_    0.985306 0.785029 0.372741 0.212296
H28   H     H_    0.886933 0.720019 0.358528 0.183576
C57   C     C_3   0.865386 0.260847 0.577572 -0.424244
C58   C     C_3   0.870013 0.222519 0.486146 -0.335826
C59   C     C_3   0.822853 0.129606 0.495274 -0.853521
H29   H     H_    0.864890 0.082872 0.525233 0.248838
H30   H     H_    0.740211 0.132314 0.537977 0.260294
H31   H     H_    0.828175 0.104051 0.428056 0.246189
H32   H     H_    0.827954 0.266577 0.453803 0.224590
H33   H     H_    0.952164 0.218131 0.441154 0.223820
H34   H     H_    0.897828 0.209247 0.609962 0.214981
H35   H     H_    0.784183 0.268836 0.623200 0.170326
C60   C     C_3   0.158105 0.713071 0.365165 -0.420934
C61   C     C_3   0.168805 0.790006 0.425360 -0.328817
C62   C     C_3   0.242883 0.860620 0.370861 -0.864490
H36   H     H_    0.318855 0.829631 0.333643 0.250664
H37   H     H_    0.211083 0.892370 0.322441 0.249959
H38   H     H_    0.254176 0.912617 0.416561 0.251077
H39   H     H_    0.092216 0.821605 0.459845 0.226339
H40   H     H_    0.198628 0.764332 0.477685 0.219135
H41   H     H_    0.234920 0.682836 0.328933 0.176660
H42   H     H_    0.135725 0.737870 0.308476 0.187397
C63   C     C_3   0.438490 0.095776 0.284591 -0.401887
C64   C     C_3   0.324192 0.122778 0.322648 -0.852625
H43   H     H_    0.275018 0.062480 0.341132 0.253368
H44   H     H_    0.307781 0.165758 0.382827 0.255095
H45   H     H_    0.302680 0.160120 0.271092 0.243507
H46   H     H_    0.488155 0.154614 0.258380 0.188937
H47   H     H_    0.446931 0.055850 0.224023 0.216611
C65   C     C_3   0.540058 0.901805 0.726402 -0.396537
C66   C     C_3   0.649441 0.868426 0.714133 -0.851895
H48   H     H_    0.676538 0.820494 0.657636 0.254928
H49   H     H_    0.704746 0.924744 0.700440 0.246643
H50   H     H_    0.649580 0.834255 0.776174 0.245310
H51   H     H_    0.511369 0.942505 0.788333 0.209086
H52   H     H_    0.484809 0.845437 0.742533 0.191506
C67   C     C_3   0.519644 0.906767 0.255904 -0.419344
C68   C     C_3   0.622244 0.941208 0.190314 -0.837883
H53   H     H_    0.619576 0.013846 0.178601 0.245054
H54   H     H_    0.685862 0.927438 0.217013 0.254847
H55   H     H_    0.640167 0.906411 0.124837 0.241438
H56   H     H_    0.531540 0.834233 0.258505 0.202528
H57   H     H_    0.456493 0.913928 0.227588 0.197297
C69   C     C_3   0.567192 0.098524 0.715311 -0.408570
C70   C     C_3   0.469033 0.133494 0.787331 -0.840843
H58   H     H_    0.425592 0.179557 0.758226 0.252193
H59   H     H_    0.417389 0.077537 0.819885 0.245999
H60   H     H_    0.490347 0.170125 0.839394 0.242588
H61   H     H_    0.611684 0.057681 0.747720 0.211564
H62   H     H_    0.621232 0.154145 0.687071 0.184370

loop_
_geom_bond_atom_site_label_1
_geom_bond_atom_site_label_2
_ccdc_geom_bond_type
C27   C29   A    
C34   C37   A    
C1    O3    A    
C54   H21   S    
C28   N2    A    
C37   C57   S    
C57   C58   S    
C55   H27   S    
C47   C49   A    
Cu1   Cu2   S    
C40   C46   A    
C25   H3    S    
C67   H57   S    
C35   C37   A    
C54   H20   S    
C69   H61   S    
C62   H37   S    
C70   H60   S    
C11   H17   S    
C58   H32   S    
C18   C21   A    
C45   H8    S    
C61   C62   S    
C15   C17   A    
C61   H40   S    
C38   C60   S    
C24   O8    A    
C64   H43   S    
C21   C67   S    
C24   C40   S    
Cu2   N2    S    
C24   O6    A    
C53   C54   S    
C68   H53   S    
C7    C17   A    
C66   H50   S    
C60   C61   S    
C31   C33   A    
C27   N1    A    
C39   C45   A    
Cu2   O3    S    
C57   H34   S    
C70   H59   S    
C48   C50   A    
C53   H22   S    
C12   H18   S    
C41   C43   A    
C5    C49   A    
Cu1   O1    S    
C42   C44   A    
C41   C49   A    
C26   C34   A    
C43   H10   S    
Cu2   O6    S    
C45   C47   A    
C44   H9    S    
C53   H23   S    
C46   C48   A    
C13   C19   A    
C46   H7    S    
C51   C52   A    
C1    O1    A    
C14   C20   A    
C54   H19   S    
C4    C6    A    
C67   H56   S    
C62   H38   S    
C56   H24   S    
C4    H14   S    
C35   C53   S    
C39   C43   A    
C4    C51   A    
C8    C18   A    
Cu1   O8    S    
C64   H45   S    
C32   C34   A    
C61   H39   S    
C63   H46   S    
C2    O4    A    
C56   H25   S    
C9    C11   A    
C31   C32   A    
C40   C44   A    
C70   H58   S    
C65   H52   S    
C16   C18   A    
C6    C50   A    
C26   H4    S    
C60   H41   S    
C28   H6    S    
C10   C12   A    
C42   C50   A    
Cu2   O2    S    
C57   H35   S    
C8    C10   A    
C59   H30   S    
C12   C14   A    
C13   C15   A    
C66   H48   S    
C14   C16   A    
C20   C22   A    
C67   C68   S    
C2    O2    A    
C42   H12   S    
C36   C55   S    
C7    C9    A    
C22   C69   S    
C23   O7    A    
Cu1   O5    S    
C5    H1    S    
Cu1   N1    S    
C1    C10   S    
C33   C38   A    
C6    H2    S    
C3    C5    A    
C7    H15   S    
C47   C51   A    
C3    C52   A    
C55   H28   S    
C29   C35   A    
C8    H16   S    
C17   C22   A    
C59   H29   S    
C30   C36   A    
C28   C30   A    
Cu1   O4    S    
C63   H47   S    
C29   C31   A    
C27   H5    S    
C63   C64   S    
C56   H26   S    
C30   C32   A    
C11   C13   A    
C55   C56   S    
C3    H13   S    
C68   H55   S    
C58   H33   S    
C36   C38   A    
C26   N2    A    
C65   H51   S    
C25   N1    A    
C41   H11   S    
C64   H44   S    
C60   H42   S    
C20   C65   S    
C69   C70   S    
C48   C52   A    
C59   H31   S    
C19   C63   S    
C68   H54   S    
C58   C59   S    
C66   H49   S    
C69   H62   S    
C23   O5    A    
C62   H36   S    
C2    C9    S    
C23   C39   S    
Cu2   O7    S    
C15   C16   A    
C25   C33   A    
C65   C66   S    
C19   C21   A    
