data_mof_unit_11813.cif
_audit_creation_date              2012-12-10T19:00:11-0500
_audit_creation_method            fapswitch 2.2
_symmetry_space_group_name_H-M    P1
_symmetry_Int_Tables_number       1
_space_group_crystal_system       triclinic
_cell_length_a                    9.578102
_cell_length_b                    10.856427
_cell_length_c                    13.488131
_cell_angle_alpha                 91.063033
_cell_angle_beta                  71.991297
_cell_angle_gamma                 89.780154
_cell_volume                      1333.54069129

loop_
_atom_site_label
_atom_site_type_symbol
_atom_type_description
_atom_site_fract_x
_atom_site_fract_y
_atom_site_fract_z
_atom_type_partial_charge
C1    C     C_R   0.498779 0.737397 0.502714 0.868604
C2    C     C_R   0.439658 0.522949 0.976242 -0.053738
C3    C     C_R   0.465973 0.471918 0.873831 0.007825
C4    C     C_R   0.545782 0.499621 0.027968 0.047917
C5    C     C_R   0.686452 0.454030 0.970534 -0.069619
C6    C     C_R   0.703097 0.392845 0.875472 -0.305808
C7    C     C_R   0.587912 0.391427 0.832077 0.437068
C8    C     C_R   0.513637 0.509705 0.136117 -0.174927
C9    C     C_R   0.771553 0.496595 0.119741 0.361568
C10   C     C_R   0.372473 0.505866 0.814831 -0.080259
C11   C     C_R   0.374505 0.936790 0.504676 0.131120
C12   C     C_R   0.420871 0.496684 0.700091 0.859319
C13   C     C_R   0.494333 0.870363 0.513590 -0.158973
C14   C     C_R   0.607855 0.933948 0.537203 -0.292485
C15   C     C_R   0.610407 0.063582 0.537672 0.429089
C16   C     C_R   0.495682 0.129044 0.515191 -0.099632
C17   C     C_R   0.374350 0.063729 0.506860 -0.062185
C18   C     C_3   0.297350 0.071512 0.426424 -0.544472
C19   C     C_3   0.300637 0.931713 0.421895 0.715416
C20   C     C_R   0.941821 0.398375 0.465812 0.260531
C21   C     C_R   0.903685 0.592641 0.546448 -0.037372
C22   C     C_R   0.049975 0.591449 0.549951 0.497623
C23   C     C_R   0.499264 0.262321 0.503207 0.858323
C24   C     C_R   0.090689 0.401012 0.461345 0.168973
C25   C     C_3   0.137989 0.351495 0.351921 -0.454785
C26   C     C_3   0.977061 0.337504 0.361401 -0.416681
C27   C     C_R   0.579178 0.503768 0.299470 0.881510
C28   C     C_R   0.803014 0.462531 0.014270 0.387269
C29   C     C_R   0.624310 0.504637 0.183943 -0.214815
C30   C     C_R   0.244281 0.573816 0.862445 -0.256042
C31   C     C_R   0.216023 0.620861 0.962692 -0.034683
C32   C     C_R   0.314633 0.602012 0.018247 0.393698
Cu1   Cu    Cu3+1 0.359330 0.500020 0.500010 0.991695
Cu2   Cu    Cu3+1 0.640670 0.499980 0.499990 1.014751
H1    H     H_    0.184941 0.110939 0.460225 0.203298
H2    H     H_    0.366426 0.114588 0.353708 0.200526
H3    H     H_    0.830886 0.668035 0.583380 0.157240
H4    H     H_    0.192639 0.422203 0.294845 0.236804
H5    H     H_    0.197266 0.262617 0.341573 0.195010
H6    H     H_    0.941633 0.391634 0.305475 0.270763
H7    H     H_    0.801125 0.338823 0.838114 0.154305
H8    H     H_    0.940884 0.239976 0.366888 0.210639
H9    H     H_    0.400629 0.513957 0.183952 0.217690
H10   H     H_    0.171647 0.600724 0.818839 0.165899
H11   H     H_    0.121883 0.681397 0.994073 0.210025
H12   H     H_    0.697793 0.883295 0.550627 0.169566
N1    N     N_R   0.852320 0.499070 0.499340 -0.220514
N2    N     N_R   0.148230 0.499110 0.499340 -0.236700
O1    O     O_R   0.381190 0.680360 0.500000 -0.538204
O2    O     O_R   0.618780 0.680320 0.499990 -0.594408
O3    O     O_R   0.323230 0.500000 0.650990 -0.635331
O4    O     O_R   0.560820 0.499960 0.650980 -0.554886
O5    O     O_R   0.381220 0.319680 0.500010 -0.593401
O6    O     O_R   0.618810 0.319640 0.500000 -0.520803
O7    O     O_R   0.439180 0.500040 0.349020 -0.574529
O8    O     O_R   0.676770 0.500000 0.349010 -0.544412
Cl1   Cl    Cl    0.918451 0.539551 0.164795 -0.574966
O9    O     O_3   0.725987 0.126286 0.555409 -0.724277
H13   H     H_    0.796411 0.066376 0.568509 0.323137
O10   O     O_3   0.160775 0.879796 0.457741 -0.671059
H14   H     H_    0.114532 0.892944 0.402290 0.349350
Cl2   Cl    Cl    0.412849 0.867272 0.299897 -0.539814
O11   O     O_3   0.088040 0.685547 0.605588 -0.696686
H15   H     H_    0.160912 0.652764 0.636123 0.348168
O12   O     O_3   0.947734 0.440087 0.956926 -0.688129
H16   H     H_    0.960081 0.452705 0.882246 0.317397
Cl3   Cl    Cl    0.285389 0.699911 0.128816 -0.522890
O13   O     O_3   0.590626 0.310019 0.751409 -0.701802
H17   H     H_    0.682340 0.260154 0.733074 0.347172

loop_
_geom_bond_atom_site_label_1
_geom_bond_atom_site_label_2
_ccdc_geom_bond_type
Cu1   O7    S    
C1    C13   S    
C2    C4    A    
C26   H6    S    
Cu2   O8    S    
C6    C7    A    
C19   O10   S    
Cu1   O3    S    
C5    C28   A    
C18   C19   S    
C1    O2    A    
C10   C30   A    
C22   N2    A    
C31   C32   A    
C14   C15   A    
C8    H9    S    
C9    C29   A    
C4    C8    A    
C11   C19   S    
C17   C18   S    
O9    H13   S    
C14   H12   S    
C3    C10   A    
C13   C14   A    
C25   H5    S    
C11   C13   A    
Cu2   O6    S    
C30   H10   S    
C30   C31   A    
C20   C26   S    
C32   Cl3   S    
C8    C29   A    
C10   C12   S    
C18   H1    S    
C1    O1    A    
C7    O13   S    
C12   O4    A    
Cu1   Cu2   S    
C23   O5    A    
C16   C23   S    
C2    C3    A    
Cu1   O5    S    
C5    C6    A    
C25   H4    S    
C15   O9    S    
C27   O7    A    
Cu2   O2    S    
C20   N1    A    
C27   C29   S    
C28   O12   S    
C19   Cl2   S    
Cu1   O1    S    
O11   H15   S    
C24   N2    A    
Cu2   O4    S    
C20   C24   A    
C4    C5    A    
C12   O3    A    
C21   H3    S    
C24   C25   S    
C26   H8    S    
C23   O6    A    
C2    C32   A    
O12   H16   S    
C31   H11   S    
C22   O11   S    
Cu1   N2    S    
C27   O8    A    
C16   C17   A    
Cu2   N1    S    
C3    C7    A    
C25   C26   S    
C21   C22   A    
C18   H2    S    
O13   H17   S    
C11   C17   A    
C15   C16   A    
C9    C28   A    
O10   H14   S    
C21   N1    A    
C6    H7    S    
C9    Cl1   S    
