data_mof_unit_68259.cif
_audit_creation_date              2012-12-10T16:47:31-0500
_audit_creation_method            fapswitch 2.2
_symmetry_space_group_name_H-M    P1
_symmetry_Int_Tables_number       1
_space_group_crystal_system       triclinic
_cell_length_a                    10.660295
_cell_length_b                    8.737832
_cell_length_c                    7.556112
_cell_angle_alpha                 102.928732
_cell_angle_beta                  95.726673
_cell_angle_gamma                 94.451622
_cell_volume                      678.934884653

loop_
_atom_site_label
_atom_site_type_symbol
_atom_type_description
_atom_site_fract_x
_atom_site_fract_y
_atom_site_fract_z
_atom_type_partial_charge
Br1   Br    Br    0.889252 0.195230 0.643622 -0.236976
Br2   Br    Br    0.110748 0.804770 0.356378 -0.236976
Br3   Br    Br    0.134505 0.554979 0.921019 -0.231034
Br4   Br    Br    0.865495 0.445023 0.078982 -0.231034
Br5   Br    Br    0.928639 0.824931 0.763239 -0.194625
Br6   Br    Br    0.071361 0.175070 0.236760 -0.194625
Br7   Br    Br    0.353508 0.283838 0.900226 -0.150502
Br8   Br    Br    0.646491 0.716163 0.099774 -0.150501
C1    C     C_R   0.494865 0.200261 0.453729 0.791857
C2    C     C_3   0.123547 0.503380 0.501733 -0.334118
C3    C     C_3   0.972445 0.634324 0.605481 0.176456
C4    C     C_3   0.027555 0.365677 0.394519 0.176456
C5    C     C_2   0.484564 0.032334 0.429194 0.358091
C6    C     C_2   0.515436 0.967665 0.570805 0.358090
C7    C     C_R   0.505135 0.799739 0.546271 0.791858
C8    C     C_R   0.260025 0.501721 0.500470 0.887010
C9    C     C_R   0.739974 0.498279 0.499530 0.887010
C10   C     C_3   0.053599 0.515231 0.671983 0.234992
C11   C     C_3   0.946401 0.484769 0.328017 0.234992
C12   C     C_3   0.956624 0.377208 0.564453 0.182871
C13   C     C_3   0.043376 0.622792 0.435547 0.182872
C14   C     C_3   0.876452 0.496620 0.498267 -0.334117
Cu1   Cu    Cu3+1 0.514140 0.517380 0.684380 1.193768
Cu2   Cu    Cu3+1 0.485860 0.482620 0.315620 1.193768
F1    F     F_    0.437478 0.943735 0.259809 -0.578349
F2    F     F_    0.562522 0.056265 0.740191 -0.578349
N1    N     N_2   0.464560 0.456420 0.038510 0.074865
N2    N     N_2   0.535440 0.543580 0.961490 0.074865
O1    O     O_R   0.509190 0.286130 0.619780 -0.550932
O2    O     O_R   0.490810 0.713870 0.380220 -0.550932
O3    O     O_R   0.485310 0.256770 0.308360 -0.519531
O4    O     O_R   0.514690 0.743230 0.691640 -0.519531
O5    O     O_R   0.328790 0.514640 0.655680 -0.564699
O6    O     O_R   0.671210 0.485360 0.344320 -0.564699
O7    O     O_R   0.304910 0.485280 0.344260 -0.539146
O8    O     O_R   0.695090 0.514720 0.655740 -0.539146

loop_
_geom_bond_atom_site_label_1
_geom_bond_atom_site_label_2
_ccdc_geom_bond_type
Cu1   Cu2   S    
C3    C10   S    
C9    O8    A    
C8    O5    A    
C3    C14   S    
C9    C14   S    
Cu2   N1    S    
C1    O1    A    
Cu1   O4    S    
C4    C12   S    
Br2   C13   S    
Cu2   O3    S    
C7    O4    A    
C2    C13   S    
C2    C8    S    
C5    C6    D    
C6    F2    S    
C5    F1    S    
C2    C4    S    
C2    C10   S    
Cu1   O1    S    
C4    C11   S    
C11   C13   S    
C12   C14   S    
Br5   C3    S    
C10   C12   S    
C8    O7    A    
Br6   C4    S    
Br8   N2    S    
Cu2   O2    S    
Cu2   O7    S    
C9    O6    A    
C1    O3    A    
C11   C14   S    
Br7   N1    S    
Br3   C10   S    
Cu1   O8    S    
C7    O2    A    
N1    N2    D    
C1    C5    S    
C6    C7    S    
Br1   C12   S    
Cu1   N2    S    
Br4   C11   S    
C3    C13   S    
Cu2   O6    S    
Cu1   O5    S    
