data_mof_unit_26088.cif
_audit_creation_date              2013-03-05T15:49:32-0500
_audit_creation_method            fapswitch 2.2
_symmetry_space_group_name_H-M    P1
_symmetry_Int_Tables_number       1
_space_group_crystal_system       triclinic
_cell_length_a                    10.68462
_cell_length_b                    12.087448
_cell_length_c                    12.84616
_cell_angle_alpha                 92.715135
_cell_angle_beta                  90.180578
_cell_angle_gamma                 84.462126
_cell_volume                      1649.47982848

loop_
_atom_site_label
_atom_site_type_symbol
_atom_site_description
_atom_site_fract_x
_atom_site_fract_y
_atom_site_fract_z
_atom_type_partial_charge
O1    O     O_R   0.506170 0.421700 0.658830 -0.580466
O2    O     O_R   0.493830 0.578300 0.341170 -0.580481
O3    O     O_R   0.491330 0.609310 0.646410 -0.584773
O4    O     O_R   0.508670 0.390690 0.353590 -0.584795
C1    C     C_R   0.497843 0.521567 0.699827 0.941155
C2    C     C_R   0.502160 0.478434 0.300173 0.940679
O5    O     O_R   0.690650 0.406190 0.506220 -0.606822
O6    O     O_R   0.309350 0.593810 0.493780 -0.606823
O7    O     O_R   0.675800 0.593810 0.493800 -0.607829
O8    O     O_R   0.324200 0.406190 0.506200 -0.607860
C3    C     C_R   0.740106 0.496527 0.487109 0.900410
C4    C     C_R   0.259888 0.503469 0.512874 0.900739
Zn1   Zn    Zn3+2 0.509910 0.374730 0.508290 1.075244
Zn2   Zn    Zn3+2 0.490090 0.625270 0.491710 1.075267
C5    C     C_R   0.913254 0.286393 0.497719 -0.177523
C6    C     C_R   0.086728 0.713592 0.502216 -0.177475
C7    C     C_R   0.973961 0.200551 0.554649 0.319945
C8    C     C_R   0.026015 0.799427 0.445280 0.319887
C9    C     C_R   0.084288 0.221082 0.609275 0.370845
C10   C     C_R   0.915689 0.778888 0.390656 0.370901
C11   C     C_R   0.132604 0.323464 0.602104 -0.162839
C12   C     C_R   0.867381 0.676504 0.397833 -0.162887
C13   C     C_R   0.070302 0.409767 0.545331 0.022316
C14   C     C_R   0.929689 0.590211 0.454611 0.022298
C15   C     C_R   0.952030 0.395285 0.503961 0.011396
C16   C     C_R   0.047960 0.604697 0.495981 0.011347
C17   C     C_R   0.123906 0.509710 0.528296 -0.086689
C18   C     C_R   0.876084 0.490275 0.471657 -0.086878
H1    H     H_    0.834665 0.267230 0.449318 0.222603
H2    H     H_    0.165310 0.732767 0.550620 0.222641
H3    H     H_    0.218672 0.335389 0.643182 0.241068
H4    H     H_    0.781312 0.664563 0.356761 0.240971
C19   C     C_R   0.494775 0.465818 0.189612 -0.128374
C20   C     C_R   0.505203 0.534194 0.810389 -0.128286
C21   C     C_R   0.630974 0.579279 0.958165 -0.065191
C22   C     C_R   0.368976 0.420752 0.041845 -0.065337
C23   C     C_R   0.606696 0.584420 0.853019 -0.146776
C24   C     C_R   0.393283 0.415585 0.146987 -0.146566
C25   C     C_R   0.423868 0.480869 0.871703 0.301935
C26   C     C_R   0.576067 0.519182 0.128299 0.301906
C27   C     C_R   0.447611 0.475050 0.978161 0.014364
C28   C     C_R   0.552334 0.524981 0.021841 0.014551
H5    H     H_    0.328994 0.377424 0.196144 0.217089
H6    H     H_    0.671002 0.622566 0.803864 0.217092
H7    H     H_    0.713172 0.615721 0.988018 0.220120
H8    H     H_    0.286766 0.384323 0.012006 0.220104
N1    N     N_R   0.523130 0.207800 0.519340 -0.217346
N2    N     N_R   0.476870 0.792200 0.480660 -0.217338
C29   C     C_R   0.421644 0.954375 0.380368 -0.137577
C30   C     C_R   0.578357 0.045625 0.619632 -0.137597
C31   C     C_R   0.424078 0.839508 0.393301 0.389214
C32   C     C_R   0.575924 0.160492 0.606698 0.389180
C33   C     C_R   0.528663 0.858810 0.555604 0.404181
C34   C     C_R   0.471336 0.141190 0.444397 0.404184
C35   C     C_R   0.526896 0.975862 0.544437 -0.086296
C36   C     C_R   0.473104 0.024139 0.455564 -0.086293
H9    H     H_    0.378128 0.988113 0.311005 0.236925
H10   H     H_    0.621875 0.011889 0.688995 0.236920
Cl1   Cl    Cl    0.828897 0.879728 0.317930 -0.381942
Cl2   Cl    Cl    0.171069 0.120237 0.682003 -0.381997
N3    N     N_R   0.918782 0.096671 0.559404 0.245299
O9    O     O_R   0.934217 0.036852 0.640845 -0.267689
O10   O     O_R   0.837177 0.069780 0.489601 -0.364627
N4    N     N_R   0.081186 0.903311 0.440519 0.245309
O11   O     O_R   0.065747 0.963124 0.359075 -0.267676
O12   O     O_R   0.162789 0.930210 0.510320 -0.364624
N5    N     N_R   0.681847 0.566941 0.174795 0.172086
O13   O     O_R   0.769694 0.503471 0.219115 -0.420543
O14   O     O_R   0.688793 0.673841 0.175047 -0.332156
N6    N     N_R   0.318012 0.433218 0.825214 0.172323
O15   O     O_R   0.230573 0.496667 0.780428 -0.420962
O16   O     O_R   0.310889 0.326348 0.825036 -0.332292
N7    N     N_R   0.412568 0.190292 0.355520 0.210391
O17   O     O_R   0.294792 0.229015 0.360506 -0.371812
O18   O     O_R   0.467513 0.174770 0.265059 -0.342948
N8    N     N_R   0.587425 0.809710 0.644484 0.210390
O19   O     O_R   0.532482 0.825242 0.734944 -0.342944
O20   O     O_R   0.705193 0.770965 0.639497 -0.371771
N9    N     N_R   0.627255 0.226500 0.688571 0.236208
O21   O     O_R   0.595335 0.214152 0.784698 -0.313846
O22   O     O_R   0.723630 0.280510 0.670641 -0.368481
N10   N     N_R   0.372748 0.773502 0.311425 0.236227
O23   O     O_R   0.404641 0.785876 0.215296 -0.313769
O24   O     O_R   0.276388 0.719475 0.329358 -0.368515

loop_
_geom_bond_atom_site_label_1
_geom_bond_atom_site_label_2
_geom_bond_distance
_ccdc_geom_bond_type
C35   C36   1.403046 A    
C20   C23   1.391498 A    
C27   C28   1.423170 A    
C25   C27   1.393938 A    
C15   C18   1.418520 A    
O5    C3    1.292070 A    
C11   H3    1.077143 S    
C16   C17   1.418542 A    
C12   H4    1.077146 S    
O1    C1    1.289105 A    
C9    C11   1.393158 A    
C14   C16   1.392701 A    
C5    C15   1.416184 A    
C6    H2    1.079784 S    
C29   H9    1.082434 S    
N7    O17   1.300276 A    
O4    Zn1   2.005597 S    
N3    O10   1.300815 A    
C21   C28   1.402683 A    
C7    N3    1.441649 S    
N2    C31   1.378085 A    
C29   C31   1.403897 A    
C26   N5    1.434020 S    
C30   C32   1.403897 A    
C22   H8    1.081166 S    
N6    O15   1.300835 A    
C13   C17   1.412335 A    
C32   N9    1.429997 S    
C26   C28   1.393895 A    
N7    O18   1.301012 A    
C22   C27   1.402703 A    
O2    C2    1.289091 A    
C5    H1    1.079790 S    
C33   C35   1.427167 A    
C6    C16   1.416188 A    
N2    C33   1.374978 A    
C34   C36   1.427163 A    
C19   C26   1.396943 A    
C4    C17   1.461220 S    
N5    O13   1.301057 A    
C30   H10   1.082435 S    
N8    O19   1.301011 A    
O4    C2    1.286467 A    
N9    O22   1.298111 A    
Zn2   N2    2.020754 S    
C20   C25   1.396992 A    
N5    O14   1.301259 A    
N4    O12   1.300814 A    
O7    Zn2   1.984323 S    
C34   N7    1.427534 S    
O6    C4    1.292085 A    
C1    C20   1.424018 S    
C10   Cl1   1.761469 S    
O7    C3    1.302717 A    
C31   N10   1.430005 S    
O3    Zn2   2.005598 S    
O8    C4    1.302701 A    
N1    C34   1.374974 A    
C10   C12   1.393155 A    
N10   O24   1.298109 A    
C11   C13   1.413594 A    
C12   C14   1.413569 A    
C33   N8    1.427532 S    
O1    Zn1   1.988930 S    
C21   H7    1.081189 S    
Zn1   N1    2.020753 S    
C5    C7    1.403999 A    
O6    Zn2   2.004402 S    
C21   C23   1.377757 A    
C14   C18   1.412290 A    
N8    O20   1.300270 A    
O3    C1    1.286454 A    
O8    Zn1   1.984322 S    
N1    C32   1.378078 A    
C9    Cl2   1.761471 S    
C29   C36   1.398382 A    
C30   C35   1.398388 A    
C2    C19   1.424006 S    
N4    O11   1.300805 A    
C23   H6    1.083911 S    
C22   C24   1.377786 A    
C24   H5    1.083912 S    
C8    N4    1.441648 S    
C3    C18   1.461215 S    
C7    C9    1.406539 A    
C25   N6    1.434058 S    
C8    C10   1.406542 A    
C13   C15   1.392703 A    
N3    O9    1.300805 A    
O2    Zn2   1.988929 S    
N9    O21   1.301321 A    
O5    Zn1   2.004403 S    
C6    C8    1.404006 A    
N10   O23   1.301323 A    
C19   C24   1.391505 A    
N6    O16   1.301228 A    
