data_mof_unit_49307.cif
_audit_creation_date              2012-10-26T20:22:32-0400
_audit_creation_method            fapswitch 2.2
_symmetry_space_group_name_H-M    P1
_symmetry_Int_Tables_number       1
_space_group_crystal_system       triclinic
_cell_length_a                    9.482425
_cell_length_b                    10.920892
_cell_length_c                    17.249131
_cell_angle_alpha                 90.212551
_cell_angle_beta                  87.394114
_cell_angle_gamma                 89.92939
_cell_volume                      1784.39911523

loop_
_atom_site_label
_atom_site_type_symbol
_atom_type_description
_atom_site_fract_x
_atom_site_fract_y
_atom_site_fract_z
_atom_type_partial_charge
C1    C     C_R   0.500016 0.737732 0.499151 0.546959
C2    C     C_R   0.079524 0.445598 0.441048 -0.005771
C3    C     C_R   0.069511 0.556069 0.558345 0.003508
C4    C     C_R   0.930585 0.446194 0.440915 -0.000193
C5    C     C_R   0.483665 0.497699 0.650232 0.549613
C6    C     C_R   0.516139 0.498732 0.349984 0.531467
C7    C     C_R   0.481034 0.486494 0.734813 -0.001521
C8    C     C_R   0.515462 0.502428 0.265689 -0.001436
C9    C     C_R   0.608639 0.468851 0.771738 -0.124272
C10   C     C_R   0.398776 0.452931 0.229723 -0.121473
C11   C     C_R   0.610213 0.453241 0.851935 0.019045
C12   C     C_R   0.500241 0.261650 0.496720 0.549312
C13   C     C_R   0.378137 0.473038 0.151294 0.018733
C14   C     C_R   0.480837 0.456632 0.895412 0.042334
C15   C     C_R   0.483792 0.536892 0.107203 0.041140
C16   C     C_R   0.353537 0.474315 0.858881 -0.129326
C17   C     C_R   0.600952 0.585694 0.143265 -0.139844
C18   C     C_R   0.353356 0.488765 0.778831 -0.144147
C19   C     C_R   0.616828 0.568736 0.222359 -0.155833
C20   C     C_2   0.476298 0.446279 0.979398 -0.163460
C21   C     C_2   0.480632 0.547284 0.022937 -0.157580
C22   C     C_3   0.241320 0.428376 0.118337 -0.259379
C23   C     C_R   0.619888 0.937697 0.516663 -0.018240
C24   C     C_3   0.112515 0.492991 0.157219 -0.302965
C25   C     C_3   0.976122 0.450841 0.121936 -0.461945
C26   C     C_3   0.750909 0.434450 0.888648 -0.259583
C27   C     C_3   0.807608 0.304992 0.872018 -0.296472
C28   C     C_3   0.948825 0.284662 0.909084 -0.460207
C29   C     C_3   0.735708 0.881499 0.562935 -0.387605
C30   C     C_3   0.227856 0.118045 0.488407 -0.377389
C31   C     C_3   0.773548 0.109246 0.466774 -0.232723
C32   C     C_3   0.772658 0.139450 0.379636 -0.288982
C33   C     C_3   0.921836 0.144260 0.342407 -0.472273
C34   C     C_R   0.373588 0.060304 0.480411 -0.024279
C35   C     C_3   0.279228 0.873989 0.411200 -0.239397
C36   C     C_3   0.353459 0.820676 0.337429 -0.279197
C37   C     C_3   0.248852 0.755621 0.286715 -0.448489
C38   C     C_R   0.629346 0.060846 0.495828 -0.006568
C39   C     C_R   0.384365 0.934545 0.464322 -0.010260
C40   C     C_R   0.500780 0.126981 0.490829 0.005506
C41   C     C_R   0.500567 0.871102 0.494206 0.011278
C42   C     C_R   0.920498 0.555737 0.558499 -0.000953
Cu1   Cu    Cu3+1 0.359340 0.499980 0.500000 0.909946
Cu2   Cu    Cu3+1 0.640660 0.500020 0.500000 0.910434
H1    H     H_    0.708097 0.466461 0.738205 0.121027
H2    H     H_    0.139702 0.401937 0.393883 0.094453
H3    H     H_    0.121598 0.601636 0.604855 0.108277
H4    H     H_    0.878516 0.404033 0.393317 0.116493
H5    H     H_    0.975474 0.477171 0.059805 0.144930
H6    H     H_    0.964392 0.349967 0.127212 0.148095
H7    H     H_    0.885143 0.495131 0.153356 0.149233
H8    H     H_    0.105123 0.473049 0.220395 0.150072
H9    H     H_    0.122958 0.593687 0.149600 0.162353
H10   H     H_    0.237927 0.444746 0.055163 0.155401
H11   H     H_    0.232694 0.327875 0.127491 0.128754
H12   H     H_    0.320341 0.401725 0.263810 0.109590
H13   H     H_    0.027705 0.352581 0.886929 0.146341
H14   H     H_    0.935954 0.293013 0.973184 0.147389
H15   H     H_    0.988635 0.191365 0.894528 0.142091
H16   H     H_    0.730397 0.236438 0.895499 0.163378
H17   H     H_    0.822300 0.290316 0.808332 0.159552
H18   H     H_    0.827498 0.503312 0.864912 0.126378
H19   H     H_    0.742720 0.449397 0.952382 0.154137
H20   H     H_    0.795450 0.953161 0.593402 0.106711
H21   H     H_    0.689597 0.820947 0.609030 0.139878
H22   H     H_    0.810895 0.829341 0.524151 0.148232
H23   H     H_    0.705801 0.609710 0.249897 0.116500
H24   H     H_    0.141852 0.049291 0.492146 0.097166
H25   H     H_    0.215502 0.168769 0.544176 0.161783
H26   H     H_    0.210666 0.179236 0.438524 0.138630
H27   H     H_    0.917626 0.176242 0.281516 0.138661
H28   H     H_    0.988786 0.207852 0.374682 0.132467
H29   H     H_    0.970655 0.051721 0.342241 0.145339
H30   H     H_    0.712945 0.068022 0.348761 0.157875
H31   H     H_    0.719406 0.228584 0.370962 0.177607
H32   H     H_    0.809609 0.187788 0.501489 0.170400
H33   H     H_    0.856326 0.038541 0.473256 0.133611
H34   H     H_    0.253821 0.501802 0.751543 0.118097
H35   H     H_    0.200343 0.676550 0.318215 0.169348
H36   H     H_    0.164491 0.819737 0.270072 0.134523
H37   H     H_    0.304929 0.721367 0.233037 0.154221
H38   H     H_    0.404788 0.896132 0.303547 0.146360
H39   H     H_    0.436820 0.754514 0.351782 0.181740
H40   H     H_    0.214342 0.804302 0.442788 0.174268
H41   H     H_    0.202810 0.941679 0.390035 0.127838
H42   H     H_    0.495058 0.636569 0.996057 0.125645
H43   H     H_    0.472397 0.355769 0.005402 0.125996
H44   H     H_    0.254394 0.477557 0.892644 0.100655
H45   H     H_    0.681204 0.635663 0.109748 0.102226
H46   H     H_    0.860313 0.600719 0.605163 0.100851
N1    N     N_R   0.147930 0.499970 0.499980 -0.224432
N2    N     N_R   0.852070 0.500030 0.500020 -0.224433
O1    O     O_R   0.381260 0.680340 0.500000 -0.507488
O2    O     O_R   0.618740 0.319660 0.500000 -0.509359
O3    O     O_R   0.618830 0.680370 0.500010 -0.502940
O4    O     O_R   0.381170 0.319630 0.499990 -0.505006
O5    O     O_R   0.367440 0.500000 0.613600 -0.506464
O6    O     O_R   0.632560 0.500000 0.386400 -0.513938
O7    O     O_R   0.605010 0.500030 0.613600 -0.513024
O8    O     O_R   0.394990 0.499970 0.386400 -0.515003

loop_
_geom_bond_atom_site_label_1
_geom_bond_atom_site_label_2
_ccdc_geom_bond_type
C24   H8    S    
C3    C42   A    
C9    H1    S    
C35   C39   S    
C35   C36   S    
Cu1   Cu2   S    
C12   O2    A    
C32   H31   S    
C39   C41   A    
C28   H13   S    
C2    H2    S    
C37   H35   S    
C26   C27   S    
C34   C40   A    
C23   C29   S    
C36   C37   S    
C27   H16   S    
C32   H30   S    
Cu2   O7    S    
C36   H39   S    
C20   H43   S    
C3    N1    A    
C25   H6    S    
C27   H17   S    
C33   H28   S    
C17   C19   A    
Cu2   O6    S    
C5    O7    A    
C36   H38   S    
C19   H23   S    
C10   H12   S    
C42   N2    A    
Cu2   N2    S    
C1    O3    A    
C29   H20   S    
C37   H37   S    
C30   H26   S    
C31   H33   S    
C37   H36   S    
C8    C19   A    
C30   C34   S    
C34   C39   A    
C14   C20   S    
C17   H45   S    
C24   C25   S    
C22   H10   S    
C11   C14   A    
C5    C7    S    
C6    C8    S    
C11   C26   S    
C24   H9    S    
Cu1   N1    S    
C42   H46   S    
C6    O8    A    
C12   C40   S    
C2    C4    A    
C26   H19   S    
C25   H7    S    
C31   C32   S    
C18   H34   S    
C7    C18   A    
Cu1   O4    S    
C16   C18   A    
Cu1   O8    S    
C9    C11   A    
C29   H21   S    
C1    C41   S    
C5    O5    A    
C13   C15   A    
C14   C16   A    
C6    O6    A    
C30   H25   S    
C4    H4    S    
C28   H15   S    
C33   H29   S    
C7    C9    A    
C21   H42   S    
C8    C10   A    
Cu1   O5    S    
C10   C13   A    
C35   H40   S    
C15   C17   A    
C22   H11   S    
C28   H14   S    
C23   C38   A    
C23   C41   A    
C31   C38   S    
C32   C33   S    
C26   H18   S    
Cu2   O3    S    
C38   C40   A    
C35   H41   S    
C31   H32   S    
C3    H3    S    
Cu1   O1    S    
C13   C22   S    
C22   C24   S    
C2    N1    A    
C25   H5    S    
Cu2   O2    S    
C33   H27   S    
C29   H22   S    
C15   C21   S    
C20   C21   D    
C1    O1    A    
C27   C28   S    
C16   H44   S    
C12   O4    A    
C30   H24   S    
C4    N2    A    
