data_mof_unit_45856.cif
_audit_creation_date              2012-12-10T17:05:25-0500
_audit_creation_method            fapswitch 2.2
_symmetry_space_group_name_H-M    P1
_symmetry_Int_Tables_number       1
_space_group_crystal_system       triclinic
_cell_length_a                    10.061329
_cell_length_b                    10.731027
_cell_length_c                    15.456709
_cell_angle_alpha                 89.862932
_cell_angle_beta                  67.230339
_cell_angle_gamma                 89.258372
_cell_volume                      1538.64556439

loop_
_atom_site_label
_atom_site_type_symbol
_atom_type_description
_atom_site_fract_x
_atom_site_fract_y
_atom_site_fract_z
_atom_type_partial_charge
C1    C     C_R   0.501590 0.737137 0.495891 0.947869
C2    C     C_R   0.692723 0.376528 0.045314 0.127022
C3    C     C_R   0.569800 0.452304 0.092549 0.106227
C4    C     C_R   0.409143 0.499482 0.676261 0.865990
C5    C     C_R   0.793851 0.352947 0.085545 -0.234191
C6    C     C_R   0.769327 0.396981 0.175472 -0.001467
C7    C     C_R   0.557358 0.508594 0.176858 -0.252667
C8    C     C_2   0.629208 0.064873 0.460216 0.131937
C9    C     C_2   0.505370 0.130269 0.499723 -0.328211
C10   C     C_2   0.626741 0.930471 0.469176 -0.212294
C11   C     C_2   0.507866 0.867842 0.479855 -0.363443
C12   C     C_R   0.394908 0.459258 0.920295 0.061328
C13   C     C_2   0.070871 0.400548 0.509145 -0.138497
C14   C     C_2   0.913697 0.406994 0.525140 -0.135842
C15   C     C_R   0.502091 0.262659 0.498487 0.945863
C16   C     C_R   0.590972 0.496898 0.323707 0.863751
C17   C     C_R   0.350054 0.495674 0.778632 -0.071496
C18   C     C_R   0.647479 0.473618 0.222364 -0.113142
C19   C     C_R   0.162981 0.543806 0.929484 -0.181044
C20   C     C_R   0.208112 0.532775 0.832413 -0.219463
C21   C     C_R   0.441143 0.458619 0.822748 -0.214660
C22   C     C_1   0.939049 0.574085 0.425837 0.332417
C23   C     C_R   0.258402 0.513842 0.973547 0.155150
C24   C     C_1   0.864373 0.354317 0.219703 0.178236
C25   C     C_R   0.489083 0.421255 0.964191 0.053000
C26   C     C_R   0.462116 0.467735 0.055163 0.009712
C27   C     C_R   0.326280 0.524064 0.107077 -0.255317
C28   C     C_R   0.223967 0.544033 0.067877 0.065622
C29   C     C_R   0.607765 0.337542 0.921323 0.082757
C30   C     C_R   0.709208 0.318799 0.961279 -0.279346
H1    H     H_    0.886962 0.293443 0.049472 0.145162
H2    H     H_    0.055744 0.580539 0.969081 0.171638
H3    H     H_    0.135302 0.560409 0.799192 0.161671
H4    H     H_    0.552506 0.438458 0.779625 0.182242
H5    H     H_    0.293760 0.550280 0.179727 0.165041
H6    H     H_    0.040370 0.555655 0.184100 0.215881
H7    H     H_    0.113352 0.693782 0.140423 0.196807
H8    H     H_    0.809637 0.086982 0.343629 0.190550
H9    H     H_    0.833581 0.101246 0.445405 0.176708
H10   H     H_    0.612149 0.166953 0.864722 0.195102
H11   H     H_    0.718576 0.273168 0.789640 0.174569
H12   H     H_    0.402509 0.086939 0.538131 0.119187
H13   H     H_    0.724119 0.883404 0.467353 0.178345
H14   H     H_    0.414581 0.911556 0.472990 0.154001
H15   H     H_    0.118383 0.309882 0.511049 0.166243
H16   H     H_    0.095168 0.583307 0.514081 0.174434
H17   H     H_    0.847413 0.329250 0.561291 0.151996
H18   H     H_    0.472873 0.575674 0.211778 0.154392
H19   H     H_    0.799122 0.255187 0.927578 0.148547
N1    N     N_2   0.148330 0.498670 0.499030 -0.186740
N2    N     N_2   0.852680 0.498640 0.499000 -0.138765
N3    N     N_3   0.090079 0.605419 0.122038 -0.470796
N4    N     N_3   0.764840 0.124398 0.411379 -0.409455
N5    N     N_1   0.010210 0.636954 0.365021 -0.288944
N6    N     N_1   0.940922 0.320139 0.254895 -0.203057
N7    N     N_3   0.617583 0.260021 0.843540 -0.472787
O1    O     O_R   0.386950 0.680940 0.500010 -0.621515
O2    O     O_R   0.613110 0.680900 0.499990 -0.614959
O3    O     O_R   0.322330 0.500030 0.632270 -0.610446
O4    O     O_R   0.548480 0.499990 0.632240 -0.617631
O5    O     O_R   0.386890 0.319100 0.500010 -0.626705
O6    O     O_R   0.613050 0.319060 0.499990 -0.585750
O7    O     O_R   0.451520 0.500010 0.367760 -0.596340
O8    O     O_R   0.677670 0.499970 0.367730 -0.606797
Zn1   Zn    Zn3+2 0.349000 0.500030 0.500020 0.941030
Zn2   Zn    Zn3+2 0.651000 0.499970 0.499980 0.961340

loop_
_geom_bond_atom_site_label_1
_geom_bond_atom_site_label_2
_ccdc_geom_bond_type
C8    N4    S    
C19   C23   A    
O7    Zn1   S    
H11   N7    S    
C14   H17   S    
C16   O7    A    
C1    O1    A    
C29   C30   A    
H10   N7    S    
H16   N1    S    
C14   N2    D    
H6    N3    S    
C12   C25   A    
C2    C30   A    
C7    C18   A    
C6    C24   S    
C7    H18   S    
C4    O4    A    
C2    C3    A    
C9    H12   S    
C15   O5    A    
O4    Zn2   S    
C11   H14   S    
C22   N5    T    
C23   C28   A    
O3    Zn1   S    
C24   N6    T    
C13   H15   S    
C28   N3    S    
C12   C23   A    
O8    Zn2   S    
C26   C27   A    
H9    N4    S    
H8    N4    S    
C1    O2    A    
C19   H2    S    
C4    O3    A    
C8    C10   S    
C29   N7    S    
C15   O6    A    
C3    C7    A    
C25   C29   A    
C5    C6    A    
C6    C18   A    
N1    Zn1   S    
C2    C5    A    
C10   C11   D    
C20   H3    S    
C30   H19   S    
C13   N1    D    
O5    Zn1   S    
C17   C20   A    
C4    C17   S    
C16   C18   S    
O1    Zn1   S    
C27   C28   A    
H7    N3    S    
O6    Zn2   S    
C8    C9    D    
C21   H4    S    
C16   O8    A    
C13   C14   S    
C27   H5    S    
C25   C26   A    
C9    C15   S    
C12   C21   A    
O2    Zn2   S    
C3    C26   A    
C17   C21   A    
C19   C20   A    
C10   H13   S    
C22   N2    S    
C5    H1    S    
N2    Zn2   S    
C1    C11   S    
