data_mof_unit_62853.cif
_audit_creation_date              2012-12-10T17:44:22-0500
_audit_creation_method            fapswitch 2.2
_symmetry_space_group_name_H-M    P1
_symmetry_Int_Tables_number       1
_space_group_crystal_system       triclinic
_cell_length_a                    44.179632
_cell_length_b                    30.410459
_cell_length_c                    31.999409
_cell_angle_alpha                 89.999611
_cell_angle_beta                  136.503817
_cell_angle_gamma                 90.000178
_cell_volume                      29591.6198986

loop_
_atom_site_label
_atom_site_type_symbol
_atom_type_description
_atom_site_fract_x
_atom_site_fract_y
_atom_site_fract_z
_atom_type_partial_charge
C1    C     C_R   0.585101 0.999992 0.085244 0.797783
C2    C     C_R   0.414899 0.999992 0.914756 0.797726
C3    C     C_R   0.085101 0.499992 0.085244 0.797810
C4    C     C_R   0.914899 0.499992 0.914756 0.797802
C5    C     C_3   0.499397 0.999565 0.291037 0.129932
C6    C     C_3   0.500593 0.999543 0.708953 0.129918
C7    C     C_3   0.999410 0.499535 0.291050 0.129912
C8    C     C_3   0.000588 0.499532 0.708948 0.129911
C9    C     C_3   0.463558 0.017745 0.199406 0.207315
C10   C     C_3   0.536950 0.016661 0.801104 0.207329
C11   C     C_3   0.962893 0.516309 0.198739 0.207330
C12   C     C_3   0.037187 0.516125 0.801342 0.207335
C13   C     C_3   0.497458 0.040479 0.261114 0.166310
C14   C     C_3   0.503735 0.040383 0.740080 0.166309
C15   C     C_3   0.995883 0.540343 0.259536 0.166312
C16   C     C_3   0.004317 0.540322 0.740663 0.166311
C17   C     C_1   0.500405 0.999903 0.162977 -0.027171
C18   C     C_1   0.499593 0.999911 0.837020 -0.027169
C19   C     C_1   0.000407 0.499912 0.162980 -0.027175
C20   C     C_1   0.999592 0.499914 0.837020 -0.027175
C21   C     C_1   0.499634 0.999740 0.337064 -0.016801
C22   C     C_1   0.500361 0.999727 0.662931 -0.016800
C23   C     C_1   0.999640 0.499722 0.337070 -0.016795
C24   C     C_1   0.000359 0.499720 0.662929 -0.016794
C25   C     C_R   0.702594 0.040417 0.205976 0.171078
C26   C     C_R   0.297406 0.040417 0.794023 0.171067
C27   C     C_R   0.202594 0.540416 0.205978 0.171098
C28   C     C_R   0.797406 0.540417 0.794023 0.171097
C29   C     C_R   0.656594 0.040077 0.159197 -0.241034
C30   C     C_R   0.343406 0.040078 0.840802 -0.241115
C31   C     C_R   0.156594 0.540077 0.159199 -0.241026
C32   C     C_R   0.843406 0.540078 0.840802 -0.241040
C33   C     C_R   0.633473 0.000127 0.134186 -0.053027
C34   C     C_R   0.366527 0.000127 0.865814 -0.053044
C35   C     C_R   0.133473 0.500127 0.134186 -0.053010
C36   C     C_R   0.866527 0.500127 0.865814 -0.053014
C37   C     C_R   0.656935 0.960381 0.156502 -0.184737
C38   C     C_R   0.343065 0.960381 0.843498 -0.184745
C39   C     C_R   0.156935 0.460381 0.156500 -0.184722
C40   C     C_R   0.843065 0.460381 0.843499 -0.184721
C41   C     C_R   0.702714 0.960573 0.202966 -0.237370
C42   C     C_R   0.297286 0.960573 0.797034 -0.237388
C43   C     C_R   0.202714 0.460573 0.202964 -0.237352
C44   C     C_R   0.797286 0.460574 0.797035 -0.237354
C45   C     C_R   0.499998 0.999969 0.080119 0.827186
C46   C     C_R   0.500002 0.999970 0.919881 0.827236
C47   C     C_R   0.999998 0.499970 0.080119 0.827262
C48   C     C_R   0.000002 0.499970 0.919881 0.827271
C49   C     C_R   0.725671 0.000405 0.227989 0.109244
C50   C     C_R   0.274329 0.000406 0.772011 0.109237
C51   C     C_R   0.225671 0.500405 0.227989 0.109246
C52   C     C_R   0.774328 0.500406 0.772011 0.109243
C53   C     C_R   0.798045 0.986555 0.335583 0.166624
C54   C     C_R   0.201955 0.986557 0.664417 0.166619
C55   C     C_R   0.298045 0.486551 0.335582 0.166610
C56   C     C_R   0.701955 0.486556 0.664417 0.166609
C57   C     C_R   0.843876 0.987073 0.380041 -0.214456
C58   C     C_R   0.156124 0.987075 0.619959 -0.214451
C59   C     C_R   0.343876 0.487070 0.380040 -0.214439
C60   C     C_R   0.656124 0.487074 0.619959 -0.214428
C61   C     C_R   0.866219 0.000693 0.366214 -0.086219
C62   C     C_R   0.133781 0.000693 0.633786 -0.086223
C63   C     C_R   0.366219 0.500693 0.366214 -0.086222
C64   C     C_R   0.633781 0.500693 0.633786 -0.086227
C65   C     C_R   0.841812 0.014566 0.306587 0.142114
C66   C     C_R   0.158188 0.014566 0.693413 0.142132
C67   C     C_R   0.341812 0.514570 0.306588 0.142096
C68   C     C_R   0.658188 0.514567 0.693413 0.142101
C69   C     C_R   0.795871 0.013984 0.262077 -0.218951
C70   C     C_R   0.204129 0.013983 0.737923 -0.218981
C71   C     C_R   0.295871 0.513987 0.262078 -0.218931
C72   C     C_R   0.704129 0.513985 0.737923 -0.218940
C73   C     C_R   0.773895 0.999956 0.276060 0.059376
C74   C     C_R   0.226105 0.999956 0.723939 0.059387
C75   C     C_R   0.273896 0.499955 0.276060 0.059362
C76   C     C_R   0.726105 0.499957 0.723940 0.059364
C77   C     C_R   0.500000 0.914743 0.500000 0.788236
C78   C     C_R   0.000000 0.414743 0.500000 0.788150
C79   C     C_R   0.499923 0.999941 0.419801 0.828507
C80   C     C_R   0.500076 0.999940 0.580199 0.828413
C81   C     C_R   0.999923 0.499940 0.419801 0.828370
C82   C     C_R   0.000076 0.499939 0.580199 0.828354
C83   C     C_R   0.500000 0.084985 0.500000 0.792728
C84   C     C_R   1.000000 0.584985 0.500000 0.792637
C85   C     C_3   0.536383 0.981668 0.300299 0.185195
C86   C     C_3   0.463096 0.982743 0.699179 0.185167
C87   C     C_3   0.037064 0.483089 0.300982 0.185153
C88   C     C_3   0.962853 0.483273 0.698935 0.185152
C89   C     C_R   0.000000 0.085052 0.500000 0.819208
C90   C     C_R   0.500000 0.585052 0.500000 0.819214
C91   C     C_R   0.914692 0.000401 0.414625 0.818854
C92   C     C_R   0.085308 0.000401 0.585375 0.818854
C93   C     C_R   0.414692 0.500401 0.414625 0.818856
C94   C     C_R   0.585308 0.500401 0.585375 0.818857
C95   C     C_R   0.000000 0.914760 0.500000 0.876203
C96   C     C_R   0.500000 0.414760 0.500000 0.876227
C97   C     C_R   0.460158 0.797280 0.459144 -0.168246
C98   C     C_R   0.539843 0.797280 0.540854 -0.168242
C99   C     C_R   0.960159 0.297281 0.459123 -0.168287
C100  C     C_R   0.039842 0.297281 0.540875 -0.168288
C101  C     C_R   0.460143 0.843080 0.459167 -0.183805
C102  C     C_R   0.539858 0.843080 0.540831 -0.183838
C103  C     C_R   0.960143 0.343081 0.459146 -0.183868
C104  C     C_R   0.039858 0.343081 0.540853 -0.183876
C105  C     C_R   0.500000 0.866388 0.499999 -0.029685
C106  C     C_R   0.000000 0.366388 0.500000 -0.029708
C107  C     C_R   0.500001 0.774046 0.499999 0.130874
C108  C     C_R   0.000001 0.274047 0.499999 0.130864
C109  C     C_R   0.027479 0.202514 0.554915 -0.203820
C110  C     C_R   0.972522 0.202514 0.445084 -0.203812
C111  C     C_R   0.527499 0.702512 0.554917 -0.203799
C112  C     C_R   0.472502 0.702513 0.445082 -0.203769
C113  C     C_R   0.027880 0.156471 0.555519 0.122824
C114  C     C_R   0.972121 0.156471 0.444480 0.122820
C115  C     C_R   0.527900 0.656469 0.555521 0.122826
C116  C     C_R   0.472101 0.656470 0.444478 0.122818
C117  C     C_R   0.000000 0.133308 0.500000 -0.056109
C118  C     C_R   0.500000 0.633308 0.500000 -0.056092
C119  C     C_3   0.535447 0.023225 0.271532 -0.300463
C120  C     C_3   0.465254 0.024254 0.729169 -0.300499
C121  C     C_3   0.034514 0.524578 0.270599 -0.300513
C122  C     C_3   0.965608 0.524748 0.729523 -0.300519
C123  C     C_R   0.000001 0.225625 0.499999 0.037862
C124  C     C_R   0.500001 0.725624 0.499999 0.037849
C125  C     C_R   0.460669 0.202407 0.466800 -0.132949
C126  C     C_R   0.539330 0.202407 0.533203 -0.132891
C127  C     C_R   0.960666 0.702406 0.466781 -0.132989
C128  C     C_R   0.039333 0.702407 0.533220 -0.132979
C129  C     C_R   0.460613 0.156606 0.466605 -0.197833
C130  C     C_R   0.539386 0.156606 0.533397 -0.197745
C131  C     C_R   0.960611 0.656606 0.466586 -0.197861
C132  C     C_R   0.039388 0.656606 0.533414 -0.197847
C133  C     C_R   0.500000 0.133313 0.500001 -0.030831
C134  C     C_R   1.000000 0.633313 0.500000 -0.030873
C135  C     C_R   0.500000 0.225480 0.500001 0.203995
C136  C     C_R   0.999999 0.725480 0.500000 0.204006
C137  C     C_R   0.024539 0.796839 0.554772 0.077669
C138  C     C_R   0.975459 0.796839 0.445228 0.077673
C139  C     C_R   0.524558 0.296840 0.554778 0.077680
C140  C     C_R   0.475441 0.296840 0.445223 0.077695
C141  C     C_R   0.024830 0.843173 0.554919 0.055689
C142  C     C_R   0.975169 0.843174 0.445081 0.055684
C143  C     C_R   0.524848 0.343175 0.554924 0.055688
C144  C     C_R   0.475152 0.343175 0.445077 0.055674
C145  C     C_R   1.000000 0.866310 0.500000 -0.082925
C146  C     C_R   0.500000 0.366311 0.500000 -0.082893
C147  C     C_R   0.999999 0.773884 0.500000 0.026376
C148  C     C_R   0.499999 0.273885 0.500001 0.026383
C149  C     C_1   0.500188 0.999957 0.125114 -0.172302
C150  C     C_1   0.499811 0.999960 0.874885 -0.172307
C151  C     C_1   0.000188 0.499959 0.125114 -0.172318
C152  C     C_1   0.999811 0.499960 0.874885 -0.172319
C153  C     C_1   0.499809 0.999859 0.374883 -0.167063
C154  C     C_1   0.500190 0.999852 0.625116 -0.167052
C155  C     C_1   0.999810 0.499850 0.374885 -0.167036
C156  C     C_1   0.000190 0.499849 0.625115 -0.167035
C157  C     C_3   0.502763 0.957748 0.238523 -0.178608
C158  C     C_3   0.495997 0.957843 0.760235 -0.178584
C159  C     C_3   0.004400 0.457880 0.240163 -0.178574
C160  C     C_3   0.995392 0.457902 0.759629 -0.178574
C161  C     C_3   0.500673 0.999791 0.209020 0.111061
C162  C     C_3   0.499323 0.999806 0.790975 0.111064
C163  C     C_3   0.000678 0.499809 0.209026 0.111066
C164  C     C_3   0.999321 0.499813 0.790973 0.111067
C165  C     C_3   0.464812 0.976240 0.228464 -0.276067
C166  C     C_3   0.534476 0.975210 0.770824 -0.276025
C167  C     C_3   0.965758 0.474883 0.229411 -0.276010
C168  C     C_3   0.034118 0.474714 0.770465 -0.276004
Cu1   Cu    Cu3+1 0.500000 0.955920 0.000000 0.946745
Cu2   Cu    Cu3+1 0.000000 0.455920 0.000000 0.946745
Cu3   Cu    Cu3+1 0.500000 0.044010 0.000000 0.951641
Cu4   Cu    Cu3+1 0.000000 0.544010 0.000000 0.951465
Cu5   Cu    Cu3+1 0.544020 0.999870 0.544020 0.953450
Cu6   Cu    Cu3+1 0.455980 0.999870 0.455980 0.953485
Cu7   Cu    Cu3+1 0.044020 0.499870 0.544020 0.953601
Cu8   Cu    Cu3+1 0.955980 0.499870 0.455980 0.953608
Cu9   Cu    Cu3+1 0.999970 0.999960 0.541410 0.989182
Cu10  Cu    Cu3+1 0.000030 0.999960 0.458590 0.989206
Cu11  Cu    Cu3+1 0.499970 0.499960 0.541410 0.989227
Cu12  Cu    Cu3+1 0.500030 0.499960 0.458590 0.989258
H1    H     H_    0.429019 0.779990 0.427685 0.129525
H2    H     H_    0.570982 0.779990 0.572313 0.129521
H3    H     H_    0.929020 0.279990 0.427646 0.129535
H4    H     H_    0.070981 0.279990 0.572352 0.129531
H5    H     H_    0.639132 0.071110 0.142715 0.157043
H6    H     H_    0.360867 0.071111 0.857284 0.157040
H7    H     H_    0.139133 0.571110 0.142719 0.157015
H8    H     H_    0.860867 0.571111 0.857283 0.157013
O1    O     O_R   0.564270 0.962770 0.064270 -0.591474
O2    O     O_R   0.435730 0.962770 0.935730 -0.591475
O3    O     O_R   0.064270 0.462770 0.064270 -0.591474
O4    O     O_R   0.935730 0.462770 0.935730 -0.591474
O5    O     O_R   0.935700 0.999950 0.470690 -0.607482
O6    O     O_R   0.064300 0.999950 0.529310 -0.607478
O7    O     O_R   0.435700 0.499950 0.470690 -0.607481
O8    O     O_R   0.564300 0.499950 0.529310 -0.607475
O9    O     O_R   0.935690 0.999950 0.400690 -0.543371
O10   O     O_R   0.064310 0.999950 0.599310 -0.543376
O11   O     O_R   0.435690 0.499950 0.400690 -0.543360
O12   O     O_R   0.564310 0.499950 0.599310 -0.543365
O13   O     O_R   0.000020 0.935690 0.535010 -0.571079
O14   O     O_R   0.999980 0.935690 0.464990 -0.571072
O15   O     O_R   0.500020 0.435690 0.535010 -0.571089
O16   O     O_R   0.499980 0.435690 0.464990 -0.571077
O17   O     O_R   0.564210 0.037160 0.064210 -0.590042
O18   O     O_R   0.435790 0.037160 0.935790 -0.590059
O19   O     O_R   0.064210 0.537160 0.064210 -0.590063
O20   O     O_R   0.935790 0.537160 0.935790 -0.590066
O21   O     O_R   0.500000 0.962770 0.060460 -0.581317
O22   O     O_R   0.500000 0.962770 0.939540 -0.581297
O23   O     O_R   1.000000 0.462770 0.060460 -0.581292
O24   O     O_R   0.000000 0.462770 0.939540 -0.581289
O25   O     O_R   0.499940 0.037170 0.060400 -0.577158
O26   O     O_R   0.500060 0.037170 0.939600 -0.577243
O27   O     O_R   0.999940 0.537170 0.060400 -0.577279
O28   O     O_R   0.000060 0.537170 0.939600 -0.577294
O29   O     O_R   0.537150 0.935610 0.537150 -0.590466
O30   O     O_R   0.462850 0.935610 0.462850 -0.590439
O31   O     O_R   0.037150 0.435610 0.537150 -0.590447
O32   O     O_R   0.962850 0.435610 0.462850 -0.590441
O33   O     O_R   0.537160 0.999880 0.476700 -0.579569
O34   O     O_R   0.462840 0.999880 0.523300 -0.579486
O35   O     O_R   0.037160 0.499880 0.476700 -0.579450
O36   O     O_R   0.962840 0.499880 0.523300 -0.579435
O37   O     O_R   0.462760 0.999960 0.402300 -0.578490
O38   O     O_R   0.537240 0.999960 0.597700 -0.578450
O39   O     O_R   0.962760 0.499960 0.402300 -0.578433
O40   O     O_R   0.037240 0.499960 0.597700 -0.578426
O41   O     O_R   0.537180 0.064140 0.537190 -0.590053
O42   O     O_R   0.462820 0.064140 0.462810 -0.590077
O43   O     O_R   0.037180 0.564140 0.537190 -0.590052
O44   O     O_R   0.962820 0.564140 0.462810 -0.590056
O45   O     O_R   0.999920 0.064220 0.534910 -0.562582
O46   O     O_R   0.000080 0.064220 0.465090 -0.562578
O47   O     O_R   0.499920 0.564220 0.534910 -0.562592
O48   O     O_R   0.500080 0.564220 0.465090 -0.562584
H9    H     H_    0.564452 0.042210 0.289720 0.145646
H10   H     H_    0.436819 0.044084 0.711552 0.145658
H11   H     H_    0.062760 0.544675 0.288025 0.145660
H12   H     H_    0.937461 0.544985 0.712195 0.145661
H13   H     H_    0.720337 0.929641 0.219286 0.141644
H14   H     H_    0.279663 0.929642 0.780714 0.141648
H15   H     H_    0.220337 0.429641 0.219282 0.141640
H16   H     H_    0.779663 0.429642 0.780716 0.141646
N1    N     N_3   0.776832 0.973202 0.352250 -0.595561
H17   H     H_    0.756071 0.998603 0.341244 0.228572
H18   H     H_    0.757618 0.945491 0.326768 0.217130
N2    N     N_3   0.223168 0.973205 0.647749 -0.595532
H19   H     H_    0.243929 0.998605 0.658756 0.228581
H20   H     H_    0.242383 0.945493 0.673231 0.217143
N3    N     N_3   0.276832 0.473195 0.352248 -0.595520
H21   H     H_    0.256071 0.498594 0.341244 0.228578
H22   H     H_    0.257618 0.445484 0.326764 0.217141
N4    N     N_3   0.723169 0.473203 0.647750 -0.595504
H23   H     H_    0.743929 0.498603 0.658756 0.228580
H24   H     H_    0.742383 0.445491 0.673233 0.217148
H25   H     H_    0.862048 0.976505 0.425586 0.178339
H26   H     H_    0.137952 0.976507 0.574414 0.178347
H27   H     H_    0.362048 0.476499 0.425584 0.178349
H28   H     H_    0.637952 0.476505 0.574415 0.178358
N5    N     N_3   0.863343 0.030264 0.291226 -0.561449
H29   H     H_    0.853083 0.010891 0.255777 0.217899
H30   H     H_    0.852854 0.062495 0.275220 0.211865
N6    N     N_3   0.136657 0.030263 0.708774 -0.561462
H31   H     H_    0.146917 0.010890 0.744223 0.217874
H32   H     H_    0.147146 0.062494 0.724780 0.211845
N7    N     N_3   0.363343 0.530271 0.291229 -0.561422
H33   H     H_    0.353083 0.510902 0.255778 0.217922
H34   H     H_    0.352855 0.562504 0.275227 0.211888
N8    N     N_3   0.636657 0.530265 0.708773 -0.561428
H35   H     H_    0.646917 0.510893 0.744223 0.217913
H36   H     H_    0.647145 0.562497 0.724778 0.211881
H37   H     H_    0.777207 0.024710 0.216373 0.144455
H38   H     H_    0.222793 0.024709 0.783626 0.144402
H39   H     H_    0.277208 0.524716 0.216376 0.144485
H40   H     H_    0.722792 0.524711 0.783625 0.144473
H41   H     H_    0.428911 0.860175 0.427256 0.155032
H42   H     H_    0.571090 0.860175 0.572743 0.155015
H43   H     H_    0.928911 0.360176 0.427217 0.155047
H44   H     H_    0.071089 0.360176 0.572782 0.155043
H45   H     H_    0.048503 0.220410 0.597372 0.132702
H46   H     H_    0.951498 0.220410 0.402627 0.132710
H47   H     H_    0.548539 0.720408 0.597376 0.132712
H48   H     H_    0.451462 0.720408 0.402622 0.132739
N9    N     N_3   0.057038 0.133074 0.612272 -0.558921
H49   H     H_    0.073831 0.154921 0.648636 0.211110
H50   H     H_    0.080843 0.117686 0.617610 0.209919
N10   N     N_3   0.942963 0.133074 0.387728 -0.558911
H51   H     H_    0.926170 0.154922 0.351363 0.211124
H52   H     H_    0.919157 0.117688 0.382389 0.209919
N11   N     N_3   0.557077 0.633072 0.612275 -0.558921
H53   H     H_    0.573889 0.654919 0.648644 0.211130
H54   H     H_    0.580866 0.617678 0.617583 0.209906
N12   N     N_3   0.442923 0.633072 0.387725 -0.558907
H55   H     H_    0.426114 0.654919 0.351355 0.211148
H56   H     H_    0.419133 0.617681 0.382416 0.209902
H57   H     H_    0.430105 0.219918 0.441253 0.134632
H58   H     H_    0.569894 0.219918 0.558749 0.134647
H59   H     H_    0.930099 0.719917 0.441220 0.134636
H60   H     H_    0.069899 0.719918 0.558781 0.134640
N13   N     N_3   0.576275 0.961214 0.356190 -0.580736
H61   H     H_    0.595803 0.953188 0.349984 0.217235
H62   H     H_    0.593347 0.985155 0.390190 0.215477
N14   N     N_3   0.422620 0.963472 0.642701 -0.580666
H63   H     H_    0.402863 0.956025 0.648677 0.217222
H64   H     H_    0.406260 0.987905 0.609414 0.215464
N15   N     N_3   0.077720 0.464201 0.357640 -0.580637
H65   H     H_    0.097546 0.456940 0.351733 0.217219
H66   H     H_    0.093849 0.488788 0.390695 0.215466
N16   N     N_3   0.922104 0.464587 0.642184 -0.580623
H67   H     H_    0.902242 0.457424 0.648055 0.217219
H68   H     H_    0.906097 0.489253 0.609250 0.215464
H69   H     H_    0.429815 0.139490 0.440660 0.155653
H70   H     H_    0.570185 0.139490 0.559342 0.155666
H71   H     H_    0.929809 0.639490 0.440627 0.155686
H72   H     H_    0.070190 0.639490 0.559374 0.155688
N17   N     N_3   0.048542 0.772646 0.609869 -0.597703
H73   H     H_    0.037055 0.781639 0.627930 0.223483
H74   H     H_    0.081839 0.780801 0.640971 0.215184
N18   N     N_3   0.951456 0.772647 0.390131 -0.597691
H75   H     H_    0.962943 0.781639 0.372070 0.223497
H76   H     H_    0.918159 0.780802 0.359029 0.215180
N19   N     N_3   0.548580 0.272648 0.609882 -0.597689
H77   H     H_    0.537111 0.281640 0.627968 0.223521
H78   H     H_    0.581876 0.280803 0.640964 0.215178
N20   N     N_3   0.451418 0.272648 0.390120 -0.597622
H79   H     H_    0.462888 0.281640 0.372034 0.223586
H80   H     H_    0.418123 0.280804 0.359037 0.215158
N21   N     N_3   0.051082 0.867022 0.610836 -0.574526
H81   H     H_    0.083985 0.857901 0.640082 0.212018
H82   H     H_    0.040909 0.858741 0.630830 0.224104
N22   N     N_3   0.948919 0.867023 0.389165 -0.574519
H83   H     H_    0.916016 0.857903 0.359919 0.212018
H84   H     H_    0.959092 0.858741 0.369172 0.224113
N23   N     N_3   0.551115 0.367025 0.610844 -0.574539
H85   H     H_    0.584016 0.357905 0.640071 0.212023
H86   H     H_    0.540960 0.358743 0.630860 0.224126
N24   N     N_3   0.448885 0.367025 0.389157 -0.574533
H87   H     H_    0.415983 0.357906 0.359930 0.212017
H88   H     H_    0.459040 0.358743 0.369141 0.224151
N25   N     N_3   0.493274 0.085361 0.272226 -0.581336
H89   H     H_    0.493713 0.106115 0.246642 0.230361
H90   H     H_    0.521582 0.092345 0.317860 0.211555
N26   N     N_3   0.509237 0.085123 0.730290 -0.581306
H91   H     H_    0.509409 0.105879 0.756485 0.230344
H92   H     H_    0.481148 0.092937 0.684874 0.211545
N27   N     N_3   0.989958 0.585029 0.268903 -0.581297
H93   H     H_    0.989592 0.605783 0.242512 0.230333
H94   H     H_    0.017972 0.593107 0.314244 0.211545
N28   N     N_3   0.010463 0.584978 0.731518 -0.581292
H95   H     H_    0.010933 0.605730 0.758012 0.230327
H96   H     H_    0.982489 0.593196 0.686217 0.211542
N29   N     N_3   0.423787 0.038637 0.143858 -0.580477
H97   H     H_    0.404329 0.046519 0.150222 0.226183
H98   H     H_    0.406552 0.014975 0.109495 0.211278
N30   N     N_3   0.577318 0.036373 0.857251 -0.580564
H99   H     H_    0.597001 0.043679 0.851112 0.226190
H100  H     H_    0.593849 0.012213 0.890909 0.211299
N31   N     N_3   0.922341 0.535639 0.142407 -0.580593
H101  H     H_    0.902591 0.542759 0.148479 0.226196
H102  H     H_    0.906039 0.511324 0.108980 0.211309
N32   N     N_3   0.077835 0.535254 0.857769 -0.580608
H103  H     H_    0.097620 0.542276 0.851733 0.226199
H104  H     H_    0.094016 0.510859 0.891076 0.211313
H105  H     H_    0.435633 0.957682 0.210345 0.149879
H106  H     H_    0.563097 0.955802 0.788384 0.149861
H107  H     H_    0.937322 0.455207 0.212037 0.149859
H108  H     H_    0.062456 0.454897 0.787742 0.149854
H109  H     H_    0.505995 0.923505 0.230147 0.148509
H110  H     H_    0.491758 0.923710 0.767602 0.148516
H111  H     H_    0.008961 0.423788 0.233119 0.148514
H112  H     H_    0.990662 0.423833 0.766505 0.148514
N33   N     N_3   0.725888 0.081294 0.231484 -0.601206
H113  H     H_    0.715648 0.097825 0.248173 0.217297
H114  H     H_    0.716753 0.100294 0.196525 0.214627
N34   N     N_3   0.274112 0.081294 0.768515 -0.601215
H115  H     H_    0.284352 0.097826 0.751825 0.217297
H116  H     H_    0.283247 0.100295 0.803473 0.214591
N35   N     N_3   0.225888 0.581293 0.231488 -0.601212
H117  H     H_    0.215648 0.597823 0.248177 0.217271
H118  H     H_    0.216753 0.600295 0.196530 0.214634
N36   N     N_3   0.774112 0.581294 0.768514 -0.601215
H119  H     H_    0.784352 0.597825 0.751824 0.217268
H120  H     H_    0.783247 0.600295 0.803472 0.214626
H121  H     H_    0.639969 0.929116 0.137969 0.160829
H122  H     H_    0.360031 0.929116 0.862031 0.160834
H123  H     H_    0.139969 0.429116 0.137965 0.160821
H124  H     H_    0.860031 0.429116 0.862033 0.160825

loop_
_geom_bond_atom_site_label_1
_geom_bond_atom_site_label_2
_ccdc_geom_bond_type
C99   C103  A    
C4    C36   S    
C55   C59   A    
N21   H82   S    
C85   N13   S    
N11   H53   S    
Cu6   O34   S    
C119  C161  S    
C130  H70   S    
Cu11  O7    S    
N13   H61   S    
C95   O14   A    
C10   N30   S    
Cu9   O5    S    
C94   O8    A    
C112  C124  A    
C92   O6    A    
C26   C50   A    
C92   O10   A    
C82   O36   A    
Cu8   O44   S    
C29   C33   A    
C100  C104  A    
C9    C13   S    
N4    H24   S    
C8    C168  S    
C113  N9    S    
C54   C74   A    
C11   C15   S    
C12   C16   S    
N34   H116  S    
C70   C74   A    
C45   O25   A    
N20   H79   S    
C5    C13   S    
Cu12  O8    S    
C141  C145  A    
C125  C135  A    
C7    C15   S    
C8    C16   S    
N1    H17   S    
C11   C167  S    
C104  H44   S    
C107  C124  S    
C41   C49   A    
N29   H98   S    
N2    H20   S    
C4    O20   A    
C25   C29   A    
N16   H68   S    
C27   C31   A    
N19   H77   S    
C28   C32   A    
C127  C136  A    
C88   C122  S    
N23   H86   S    
C62   C66   A    
C98   C102  A    
C82   O40   A    
C42   H14   S    
Cu7   O40   S    
C110  C123  A    
C109  H45   S    
Cu7   Cu8   S    
C36   C40   A    
C68   C72   A    
C115  C118  A    
C116  N12   S    
C167  H107  S    
C140  N20   S    
Cu3   O18   S    
C129  C133  A    
C38   H122  S    
C86   N14   S    
C49   C73   S    
C90   C118  S    
C111  C124  A    
C2    O2    A    
C142  N22   S    
Cu9   O45   S    
C57   C61   A    
C83   O42   A    
C69   H37   S    
C26   N34   S    
C59   C63   A    
C78   C106  S    
C60   C64   A    
C3    O19   A    
C132  H72   S    
N33   H114  S    
C64   C94   S    
N9    H50   S    
C160  H112  S    
C77   O29   A    
C66   C70   A    
C77   C105  S    
C159  C167  S    
C90   O47   A    
C88   C160  S    
N28   H95   S    
C84   O44   A    
C143  N23   S    
N23   H85   S    
C97   C107  A    
C61   C65   A    
C5    C21   S    
Cu12  O48   S    
C132  C134  A    
C31   H7    S    
N31   H101  S    
C27   N35   S    
C8    C88   S    
Cu4   O28   S    
C138  N18   S    
C24   C156  T    
N18   H76   S    
C20   C164  S    
C47   O23   A    
C18   C162  S    
Cu1   O1    S    
C114  N10   S    
C99   C108  A    
Cu2   Cu4   S    
C58   H26   S    
C64   C68   A    
N11   H54   S    
Cu6   O37   S    
C50   C74   S    
N5    H29   S    
C91   O5    A    
C6    C14   S    
Cu11  O12   S    
C121  C163  S    
C122  C164  S    
C112  H48   S    
C89   O45   A    
C85   C119  S    
C16   C122  S    
Cu3   O26   S    
C139  C143  A    
C122  H12   S    
C87   C159  S    
N6    H31   S    
C25   N33   S    
C9    N29   S    
C2    O18   A    
C110  C114  A    
C94   O12   A    
C120  C162  S    
C5    C85   S    
C44   C52   A    
C160  C168  S    
C168  H108  S    
Cu1   Cu3   S    
C137  N17   S    
N30   H100  S    
C27   C51   A    
C96   O16   A    
C127  C131  A    
N25   H90   S    
C139  C148  A    
C100  C108  A    
C30   C34   A    
C48   O24   A    
N22   H83   S    
C10   C14   S    
C157  C165  S    
Cu10  O46   S    
C109  C123  A    
C11   N31   S    
Cu2   O3    S    
C45   O21   A    
C41   H13   S    
N19   H78   S    
N10   H52   S    
C125  C129  A    
C79   C153  S    
C71   H39   S    
C3    C35   S    
C10   C166  S    
C11   C163  S    
Cu2   O24   S    
C19   C163  S    
C9    C161  S    
Cu6   O42   S    
C17   C161  S    
C42   C50   A    
C113  C117  A    
C159  H111  S    
Cu10  O9    S    
Cu11  O15   S    
C26   C30   A    
N24   H88   S    
Cu9   O13   S    
C23   C155  T    
C46   O22   A    
C112  C116  A    
C44   H16   S    
C7    C167  S    
Cu7   O35   S    
Cu8   O36   S    
C111  H47   S    
C19   C151  T    
Cu4   O19   S    
C65   N5    S    
C89   C117  S    
C52   C76   S    
Cu7   O31   S    
N7    H33   S    
C32   C36   A    
C110  H46   S    
C129  H69   S    
C95   O13   A    
C96   C146  S    
C6    C86   S    
C40   H124  S    
C18   C150  T    
C2    C34   S    
C7    C23   S    
Cu1   O22   S    
C8    C24   S    
C29   H5    S    
C55   N3    S    
C37   C41   A    
C114  C117  A    
C127  H59   S    
C40   C44   A    
N26   H91   S    
C10   C162  S    
C158  H110  S    
C86   C120  S    
C80   O38   A    
C60   H28   S    
C120  H10   S    
C1    O1    A    
C58   C62   A    
C143  C146  A    
C6    C166  S    
N36   H119  S    
C70   H38   S    
C4    O4    A    
C95   C145  S    
C131  C134  A    
Cu5   O33   S    
C104  C106  A    
N29   H97   S    
N3    H21   S    
Cu10  O6    S    
C84   C134  S    
C160  C164  S    
C101  H41   S    
C93   O11   A    
C56   N4    S    
C128  C136  A    
C54   C58   A    
N12   H55   S    
C126  C130  A    
C6    C22   S    
C102  C105  A    
N17   H74   S    
C78   O32   A    
C7    C87   S    
C47   O27   A    
C69   C73   A    
C54   N2    S    
Cu3   O17   S    
C15   C121  S    
C16   N28   S    
C12   N32   S    
C142  C145  A    
C59   H27   S    
C85   C157  S    
C66   N6    S    
C79   O33   A    
N13   H62   S    
C53   C73   A    
N15   H65   S    
C144  C146  A    
C138  C142  A    
N27   H93   S    
C87   C121  S    
C53   C57   A    
C119  H9    S    
C83   O41   A    
C43   H15   S    
N25   H89   S    
C33   C37   A    
C98   C107  A    
C56   C60   A    
C98   H2    S    
C35   C39   A    
N9    H49   S    
C12   C164  S    
C125  H57   S    
C90   O48   A    
N28   H96   S    
C139  N19   S    
C126  C135  A    
C14   C120  S    
N1    H18   S    
C115  N11   S    
C31   C35   A    
C130  C133  A    
C108  C123  S    
C157  C161  S    
N2    H19   S    
C158  C166  S    
C166  H106  S    
C137  C141  A    
N16   H67   S    
C72   H40   S    
C137  C147  A    
C140  C144  A    
N22   H84   S    
Cu12  O16   S    
C81   C155  S    
C80   C154  S    
C63   C93   S    
C9    C165  S    
C121  H11   S    
N18   H75   S    
N7    H34   S    
C43   C51   A    
N32   H104  S    
C65   C69   A    
C144  N24   S    
C67   C71   A    
C100  H4    S    
C25   C49   A    
N35   H118  S    
Cu11  Cu12  S    
Cu3   O25   S    
C20   C152  T    
N6    H32   S    
Cu9   Cu10  S    
Cu8   O32   S    
N8    H35   S    
N35   H117  S    
C71   C75   A    
C48   O28   A    
C56   C76   A    
N21   H81   S    
C103  H43   S    
C72   C76   A    
C140  C148  A    
C1    C33   S    
Cu5   Cu6   S    
N4    H23   S    
C30   H6    S    
C51   C75   S    
C38   C42   A    
Cu5   O38   S    
C78   O31   A    
C77   O30   A    
N3    H22   S    
C87   N15   S    
Cu2   O4    S    
C84   O43   A    
Cu2   O23   S    
C28   N36   S    
C46   O26   A    
C131  H71   S    
C5    C165  S    
Cu4   O27   S    
Cu5   O29   S    
C45   C149  S    
C109  C113  A    
C82   C156  S    
C14   N26   S    
C93   O7    A    
C39   H123  S    
Cu1   O2    S    
C102  H42   S    
C128  C132  A    
C13   C119  S    
C37   H121  S    
C101  C105  A    
C81   O35   A    
C63   C67   A    
Cu7   O43   S    
C32   H8    S    
C15   N27   S    
Cu4   O20   S    
Cu11  O47   S    
C13   N25   S    
N5    H30   S    
C39   C43   A    
C80   O34   A    
N32   H103  S    
C62   C92   S    
N15   H66   S    
C89   O46   A    
C68   N8    S    
C3    O3    A    
N27   H94   S    
C67   N7    S    
C165  H105  S    
C138  C147  A    
Cu1   O21   S    
N31   H102  S    
C86   C158  S    
Cu5   O41   S    
C116  C118  A    
Cu6   O30   S    
N14   H63   S    
C46   C150  S    
N26   H92   S    
N24   H87   S    
Cu9   O10   S    
Cu10  O14   S    
C159  C163  S    
C1    O17   A    
N34   H115  S    
C96   O15   A    
C22   C154  T    
Cu8   O39   S    
N36   H120  S    
C81   O39   A    
C34   C38   A    
C99   H3    S    
C17   C149  T    
C47   C151  S    
C12   C168  S    
N20   H80   S    
C97   H1    S    
C126  H58   S    
C88   N16   S    
C57   H25   S    
N10   H51   S    
C48   C152  S    
C55   C75   A    
Cu12  O11   S    
C21   C153  T    
N33   H113  S    
C128  H60   S    
N12   H56   S    
C28   C52   A    
N14   H64   S    
N30   H99   S    
C141  N21   S    
C103  C106  A    
N8    H36   S    
N17   H73   S    
C53   N1    S    
C83   C133  S    
C136  C147  S    
C158  C162  S    
C91   O9    A    
C135  C148  S    
C157  H109  S    
C111  C115  A    
C79   O37   A    
C97   C101  A    
C61   C91   S    
