data_mof_unit_23442.cif
_audit_creation_date              2012-12-11T18:13:35-0500
_audit_creation_method            fapswitch 2.2
_symmetry_space_group_name_H-M    P1
_symmetry_Int_Tables_number       1
_space_group_crystal_system       triclinic
_cell_length_a                    8.17087
_cell_length_b                    12.659835
_cell_length_c                    18.696887
_cell_angle_alpha                 99.404274
_cell_angle_beta                  91.194378
_cell_angle_gamma                 98.716112
_cell_volume                      1883.94824628

loop_
_atom_site_label
_atom_site_type_symbol
_atom_type_description
_atom_site_fract_x
_atom_site_fract_y
_atom_site_fract_z
_atom_type_partial_charge
Ba1   Ba    Ba6+2 0.852780 0.548340 0.465070 1.635260
Ba2   Ba    Ba6+2 0.337060 0.451750 0.534940 1.634039
C1    C     C_3   0.579242 0.897380 0.251019 -0.425993
C2    C     C_3   0.635756 0.820842 0.297661 0.346535
C3    C     C_3   0.458893 0.273907 0.313708 0.312157
C4    C     C_3   0.432140 0.235609 0.232313 -0.405442
C5    C     C_3   0.061532 0.238576 0.735808 0.370254
C6    C     C_3   0.081081 0.214615 0.812372 -0.366071
C7    C     C_3   0.557897 0.178452 0.702722 0.347571
C8    C     C_3   0.612033 0.101267 0.749575 -0.418679
C9    C     C_R   0.994165 0.447275 0.047930 0.004976
C10   C     C_R   0.892692 0.393651 0.095245 0.031727
C11   C     C_R   0.729397 0.346790 0.072206 -0.085634
C12   C     C_3   0.137231 0.761872 0.263077 0.380481
C13   C     C_R   0.667566 0.352365 0.002864 -0.089376
C14   C     C_R   0.768671 0.403370 0.954685 0.032367
C15   C     C_R   0.932514 0.451312 0.977137 0.013900
C16   C     C_R   0.708744 0.405339 0.884198 -0.110922
C17   C     C_R   0.811560 0.451668 0.834046 -0.043649
C18   C     C_R   0.975091 0.503007 0.856958 -0.005027
C19   C     C_R   0.034497 0.502886 0.928892 -0.007843
C20   C     C_R   0.757315 0.446028 0.761103 -0.005586
C21   C     C_R   0.866235 0.487144 0.711936 -0.297949
C22   C     C_R   0.024076 0.543904 0.734017 0.044808
C23   C     C_3   0.098244 0.774177 0.184470 -0.006220
C24   C     C_R   0.079559 0.553809 0.808118 -0.044527
C25   C     C_R   0.157246 0.495863 0.071072 -0.011080
C26   C     C_R   0.216982 0.495185 0.142881 -0.010192
C27   C     C_R   0.112192 0.444716 0.191762 -0.044719
C28   C     C_R   0.954187 0.389031 0.165223 -0.045636
C29   C     C_R   0.236989 0.610340 0.834847 -0.041718
C30   C     C_R   0.298483 0.605907 0.904898 0.034575
C31   C     C_R   0.197334 0.551859 0.952123 0.008139
C32   C     C_R   0.259086 0.547688 0.022887 0.015780
C33   C     C_R   0.461497 0.653280 0.928091 -0.082190
C34   C     C_3   0.235190 0.787065 0.618875 0.280531
C35   C     C_R   0.523549 0.647426 0.997353 -0.087787
C36   C     C_R   0.422868 0.595744 0.045363 0.035421
C37   C     C_R   0.380852 0.546048 0.165694 -0.047698
C38   C     C_R   0.483222 0.593095 0.115678 -0.110750
C39   C     C_R   0.435896 0.550540 0.238411 -0.004740
C40   C     C_R   0.327602 0.508016 0.287406 -0.299106
C41   C     C_R   0.167950 0.453873 0.265717 0.042010
C42   C     C_R   0.762870 0.182899 0.530200 -0.277141
C43   C     C_R   0.428287 0.806715 0.468253 -0.282551
C44   C     C_R   0.402187 0.984000 0.443129 -0.107988
C45   C     C_3   0.254356 0.909803 0.634912 -0.353108
C46   C     C_R   0.337746 0.875201 0.438372 -0.018207
C47   C     C_R   0.577407 0.847750 0.508420 0.068022
C48   C     C_R   0.641772 0.960040 0.516467 -0.059474
C49   C     C_R   0.553391 0.028173 0.482161 -0.059204
C50   C     C_R   0.616654 0.139500 0.489260 0.047781
C51   C     C_R   0.855127 0.116521 0.560625 -0.016322
C52   C     C_R   0.792594 0.006412 0.556294 -0.097044
C53   C     C_3   0.960997 0.214190 0.382994 0.285974
C54   C     C_3   0.939924 0.091474 0.367653 -0.374860
C55   C     C_3   0.729955 0.707916 0.683022 0.315809
C56   C     C_3   0.752633 0.746599 0.764542 -0.406347
H1    H     H_    0.727089 0.867360 0.340456 0.078559
H2    H     H_    0.347309 0.941223 0.680246 0.112637
H3    H     H_    0.296170 0.944490 0.586594 0.083714
H4    H     H_    0.133873 0.935216 0.650262 0.143767
H5    H     H_    0.844272 0.240238 0.401427 0.003908
H6    H     H_    0.059510 0.243576 0.426248 0.086704
H7    H     H_    0.836594 0.059953 0.326917 0.104346
H8    H     H_    0.911204 0.057847 0.417637 0.094400
H9    H     H_    0.056299 0.065176 0.347055 0.136735
H10   H     H_    0.846859 0.684012 0.662265 0.011940
H11   H     H_    0.629041 0.637231 0.672525 0.066248
H12   H     H_    0.686646 0.942758 0.228262 0.114993
H13   H     H_    0.859775 0.813167 0.776679 0.127573
H14   H     H_    0.775399 0.679253 0.792643 0.058014
H15   H     H_    0.639139 0.776837 0.785474 0.118289
H16   H     H_    0.526155 0.785941 0.324991 -0.046007
H17   H     H_    0.510642 0.955871 0.283982 0.098887
H18   H     H_    0.341745 0.297025 0.335418 0.017480
H19   H     H_    0.558450 0.345553 0.323309 0.058597
H20   H     H_    0.328281 0.166708 0.221112 0.123746
H21   H     H_    0.401845 0.302519 0.205345 0.058362
H22   H     H_    0.546483 0.208841 0.209607 0.118127
H23   H     H_    0.498014 0.849698 0.204994 0.118296
H24   H     H_    0.166196 0.719413 0.148092 0.035436
H25   H     H_    0.141335 0.316599 0.732471 0.093297
H26   H     H_    0.930277 0.246489 0.725520 -0.077380
H27   H     H_    0.213114 0.211828 0.825890 0.150056
H28   H     H_    0.038387 0.278834 0.851931 0.070073
H29   H     H_    0.006027 0.135349 0.816826 0.111098
H30   H     H_    0.668852 0.213432 0.676197 -0.053349
H31   H     H_    0.468115 0.132119 0.659241 0.078296
H32   H     H_    0.704180 0.146675 0.792397 0.113765
H33   H     H_    0.668891 0.037261 0.715611 0.095246
H34   H     H_    0.077152 0.679706 0.270217 0.046838
H35   H     H_    0.503892 0.062864 0.776204 0.130645
H36   H     H_    0.648787 0.306469 0.108055 0.061366
H37   H     H_    0.540864 0.315698 0.986640 0.070858
H38   H     H_    0.824416 0.479218 0.655761 0.070364
H39   H     H_    0.582245 0.368353 0.868809 0.107127
H40   H     H_    0.875006 0.343945 0.198995 0.095905
H41   H     H_    0.315945 0.655614 0.801102 0.096256
H42   H     H_    0.541793 0.694145 0.892412 0.061453
H43   H     H_    0.650114 0.684365 0.013640 0.068521
H44   H     H_    0.609853 0.629867 0.130997 0.102222
H45   H     H_    0.272833 0.767387 0.271209 -0.110255
H46   H     H_    0.370217 0.514293 0.343334 0.073726
H47   H     H_    0.329020 0.033248 0.418021 0.100327
H48   H     H_    0.865474 0.958643 0.582794 0.104465
H49   H     H_    0.811076 0.268255 0.534278 0.064342
H50   H     H_    0.377281 0.721802 0.463984 0.071869
H51   H     H_    0.964131 0.746609 0.170119 0.116072
H52   H     H_    0.355033 0.762588 0.603404 0.006906
H53   H     H_    0.141495 0.757657 0.573432 0.078275
O1    O     O_2   0.873090 0.425890 0.325140 -0.463972
O2    O     O_3   0.690102 0.793172 0.650529 -0.642732
O3    O     O_3   0.078309 0.842278 0.312408 -0.597500
O4    O     O_2   0.316610 0.574140 0.674900 -0.468320
O5    O     O_3   0.067290 0.565720 0.585630 -0.496723
O6    O     O_3   0.530210 0.372990 0.631200 -0.465370
O7    O     O_3   0.187136 0.747028 0.681817 -0.639046
O8    O     O_3   0.611340 0.366290 0.463630 -0.476996
O9    O     O_3   0.108550 0.314140 0.595200 -0.484354
O10   O     O_2   0.195667 0.121147 0.552353 -0.482153
O11   O     O_3   0.109039 0.153962 0.686240 -0.596877
O12   O     O_3   0.122420 0.434370 0.414380 -0.495879
O13   O     O_3   0.578370 0.633800 0.536380 -0.488530
O14   O     O_2   0.341510 0.231850 0.465510 -0.469263
O15   O     O_3   0.504338 0.189318 0.345747 -0.650492
O16   O     O_2   0.415951 0.453128 0.756683 -0.497240
O17   O     O_3   0.479472 0.255767 0.746280 -0.595454
O18   O     O_3   0.659500 0.627100 0.368810 -0.470357
O19   O     O_2   0.779047 0.547499 0.244350 -0.494802
O20   O     O_3   0.001144 0.253084 0.318861 -0.643439
O21   O     O_3   0.711992 0.743228 0.253416 -0.598266
O22   O     O_2   0.848200 0.768190 0.534530 -0.473631
O23   O     O_3   0.081160 0.685950 0.404810 -0.481412
O24   O     O_2   0.999280 0.878365 0.448035 -0.484927
P1    P     P_3+3 0.041040 0.394770 0.336330 0.970807
P2    P     P_3+3 0.672880 0.754030 0.556100 0.970144
P3    P     P_3+3 0.125607 0.823146 0.400912 0.951741
P4    P     P_3+3 0.148670 0.605320 0.663680 0.971069
P5    P     P_3+3 0.066006 0.175208 0.598054 0.951282
P6    P     P_3+3 0.646016 0.614607 0.274877 0.952592
P7    P     P_3+3 0.522271 0.230164 0.439968 0.934416
P8    P     P_3+3 0.546203 0.384421 0.725041 0.951326
N1    N     N_2   0.149903 0.884082 0.171368 -0.418315
H54   H     H_    0.259815 0.923919 0.197229 0.205247
C57   C     C_3   0.022040 0.951252 0.170847 -0.180235
H55   H     H_    0.073996 0.029059 0.153857 0.091853
H56   H     H_    0.975170 0.968720 0.225873 0.140563
H57   H     H_    0.918505 0.910270 0.131837 0.104778

loop_
_geom_bond_atom_site_label_1
_geom_bond_atom_site_label_2
_ccdc_geom_bond_type
O24   P3    D    
C5    H25   S    
C53   C54   S    
O22   P2    D    
C47   P2    S    
O12   P1    S    
C51   P5    S    
C39   C40   A    
C17   C18   A    
C45   H4    S    
O6    P8    S    
C12   H45   S    
C5    C6    S    
C37   C39   A    
C51   C52   A    
C48   C52   A    
Ba2   P4    S    
O10   P5    D    
C26   C27   A    
C33   C35   A    
C22   C24   A    
C6    H27   S    
Ba1   O18   S    
C7    H30   S    
C13   H37   S    
C3    C4    S    
C56   H13   S    
C42   H49   S    
O18   P6    S    
C54   H7    S    
C44   H47   S    
C21   H38   S    
C34   C45   S    
Ba1   Ba2   S    
Ba1   O8    S    
O19   P6    D    
C45   H2    S    
Ba2   O5    S    
C42   C51   A    
C14   C15   A    
C53   H5    S    
C20   P8    S    
C1    H23   S    
C21   C22   A    
O9    P5    S    
C16   H39   S    
C29   H41   S    
Ba1   P1    S    
C1    H17   S    
C7    C8    S    
C2    H16   S    
C43   H50   S    
C23   H51   S    
O5    P4    S    
C42   C50   A    
C5    H26   S    
C24   C29   A    
C22   P4    S    
C36   C38   A    
C27   C41   A    
O1    P1    D    
Ba1   O22   S    
C4    H21   S    
Ba2   O6    S    
C48   C49   A    
C57   H56   S    
C25   C32   A    
C44   C46   A    
C7    O17   S    
C52   H48   S    
C49   C50   A    
C30   C33   A    
O13   P2    S    
C17   C20   A    
N1    C57   S    
O20   P1    S    
C7    H31   S    
C37   C38   A    
Ba2   O9    S    
C16   C17   A    
C55   O2    S    
C26   C37   A    
Ba2   O12   S    
C38   H44   S    
C44   C49   A    
O15   P7    S    
C50   P7    S    
C1    C2    S    
C3    O15   S    
Ba1   O12   S    
C39   P6    S    
C35   C36   A    
C57   H57   S    
Ba2   O4    S    
C4    H22   S    
C29   C30   A    
C9    C25   A    
O14   P7    D    
Ba2   O8    S    
C53   H6    S    
C1    H12   S    
C34   H53   S    
C31   C32   A    
O16   P8    D    
C10   C11   A    
C12   H34   S    
Ba1   O5    S    
O4    P4    D    
C8    H33   S    
C53   O20   S    
C11   C13   A    
C34   H52   S    
C23   H24   S    
O2    P2    S    
C23   N1    S    
C40   C41   A    
C5    O11   S    
C3    H19   S    
O7    P4    S    
Ba1   O23   S    
Ba1   P2    S    
C57   H55   S    
C43   C46   A    
O21   P6    S    
C9    C15   A    
C10   C28   A    
C32   C36   A    
N1    H54   S    
C40   H46   S    
C45   H3    S    
C9    C10   A    
Ba2   O13   S    
O23   P3    S    
C54   H9    S    
C28   H40   S    
C8    H35   S    
C46   P3    S    
C11   H36   S    
C6    H29   S    
C30   C31   A    
C3    H18   S    
Ba1   O13   S    
O11   P5    S    
Ba1   O1    S    
C12   O3    S    
C35   H43   S    
C2    O21   S    
C56   H14   S    
C55   C56   S    
C18   C24   A    
C54   H8    S    
C33   H42   S    
C2    H1    S    
C43   C47   A    
C6    H28   S    
O3    P3    S    
C12   C23   S    
C41   P1    S    
O17   P8    S    
C15   C19   A    
C4    H20   S    
C27   C28   A    
Ba2   O14   S    
C19   C31   A    
C18   C19   A    
C8    H32   S    
C14   C16   A    
C47   C48   A    
C25   C26   A    
O8    P7    S    
C20   C21   A    
C34   O7    S    
C55   H10   S    
C55   H11   S    
C13   C14   A    
C56   H15   S    
