data_mof_unit_27786.cif
_audit_creation_date              2012-12-10T16:55:05-0500
_audit_creation_method            fapswitch 2.2
_symmetry_space_group_name_H-M    P1
_symmetry_Int_Tables_number       1
_space_group_crystal_system       triclinic
_cell_length_a                    9.725332
_cell_length_b                    10.933948
_cell_length_c                    15.510407
_cell_angle_alpha                 89.894294
_cell_angle_beta                  73.725851
_cell_angle_gamma                 89.861356
_cell_volume                      1583.22789458

loop_
_atom_site_label
_atom_site_type_symbol
_atom_type_description
_atom_site_fract_x
_atom_site_fract_y
_atom_site_fract_z
_atom_type_partial_charge
C1    C     C_R   0.000717 0.265450 0.498750 0.850874
C2    C     C_R   0.675406 0.497335 0.909937 0.082813
C3    C     C_R   0.771514 0.538499 0.956906 0.095302
C4    C     C_R   0.531386 0.469453 0.957827 0.001092
C5    C     C_R   0.478733 0.500246 0.050885 -0.017523
C6    C     C_R   0.578352 0.545244 0.096043 0.455621
C7    C     C_R   0.722784 0.560437 0.048459 -0.338199
C8    C     C_R   0.441155 0.405252 0.916150 -0.191485
C9    C     C_R   0.302840 0.373327 0.962889 -0.202068
C10   C     C_R   0.246595 0.407930 0.051885 0.086705
C11   C     C_R   0.330386 0.477650 0.095449 0.110607
C12   C     C_R   0.916827 0.501381 0.672120 0.776944
C13   C     C_R   0.107947 0.369859 0.098565 -0.289081
C14   C     C_R   0.049897 0.399752 0.189151 0.467027
C15   C     C_R   0.261488 0.520774 0.182153 -0.266628
C16   C     C_2   0.888629 0.933238 0.496611 -0.142803
C17   C     C_2   0.999746 0.866536 0.505251 -0.320743
C18   C     C_2   0.886924 0.067215 0.500596 -0.147693
C19   C     C_2   0.005266 0.133432 0.493970 -0.301588
C20   C     C_2   0.390792 0.485866 0.571643 -0.039285
C21   C     C_2   0.545505 0.462519 0.566598 0.047824
C22   C     C_R   0.999558 0.734538 0.500931 0.842292
C23   C     C_R   0.082838 0.496055 0.328171 0.839424
C24   C     C_R   0.870755 0.507702 0.770629 -0.048102
C25   C     C_R   0.128208 0.475813 0.230933 -0.175028
C26   C     C_R   0.916864 0.556512 0.911829 -0.171289
C27   C     C_R   0.966574 0.539797 0.819305 -0.194391
C28   C     C_R   0.726688 0.486812 0.815966 -0.225567
Cu1   Cu    Cu3+1 0.138640 0.500020 0.499980 0.971210
Cu2   Cu    Cu3+1 0.861360 0.499980 0.500020 1.038202
H1    H     H_    0.798862 0.588233 0.083954 0.146012
H2    H     H_    0.048129 0.310684 0.066225 0.152434
H3    H     H_    0.793723 0.888791 0.487754 0.198159
H4    H     H_    0.093681 0.907325 0.517554 0.153429
H5    H     H_    0.784484 0.112084 0.507968 0.171171
H6    H     H_    0.110020 0.092282 0.482909 0.148906
H7    H     H_    0.313439 0.485763 0.637319 0.130117
H8    H     H_    0.417179 0.474754 0.440583 0.260759
H9    H     H_    0.567654 0.413971 0.622264 0.078968
H10   H     H_    0.307623 0.590081 0.214185 0.211437
H11   H     H_    0.239512 0.320305 0.928991 0.141807
H12   H     H_    0.991807 0.585010 0.948062 0.138681
H13   H     H_    0.078557 0.556237 0.785619 0.148116
H14   H     H_    0.655098 0.466851 0.776023 0.140953
H15   H     H_    0.477226 0.371075 0.848413 0.131740
N1    N     N_2   0.346430 0.498660 0.500980 -0.252605
N2    N     N_2   0.652550 0.498630 0.501000 0.002135
O1    O     O_R   0.117050 0.321960 0.499980 -0.586423
O2    O     O_R   0.882890 0.321920 0.500020 -0.576419
O3    O     O_R   0.052910 0.500040 0.629810 -0.593348
O4    O     O_R   0.818750 0.499990 0.629840 -0.597907
O5    O     O_R   0.117110 0.678080 0.499980 -0.569700
O6    O     O_R   0.882950 0.678040 0.500020 -0.528930
O7    O     O_R   0.181250 0.500010 0.370160 -0.578318
O8    O     O_R   0.947090 0.499960 0.370190 -0.512656
Cl1   Cl    Cl    0.626001 0.617269 0.432550 -0.574430
O9    O     O_3   0.927913 0.341108 0.239793 -0.581937
C29   C     C_3   0.807527 0.391337 0.219161 -0.186701
H16   H     H_    0.802270 0.492243 0.228899 0.186575
H17   H     H_    0.709557 0.352146 0.265896 0.208109
H18   H     H_    0.806511 0.367038 0.149798 0.144393
O10   O     O_3   0.541973 0.554307 0.188774 -0.596812
C30   C     C_3   0.563604 0.675381 0.214205 -0.311431
H19   H     H_    0.498341 0.689358 0.284580 0.231673
H20   H     H_    0.528042 0.745255 0.172535 0.143378
H21   H     H_    0.677329 0.690384 0.212112 0.184200

loop_
_geom_bond_atom_site_label_1
_geom_bond_atom_site_label_2
_ccdc_geom_bond_type
C8    C9    A    
C12   O3    A    
Cu2   O4    S    
C30   H20   S    
C1    O1    A    
C23   O8    A    
Cu1   Cu2   S    
C16   H3    S    
C18   H5    S    
C12   C24   S    
C13   H2    S    
C9    H11   S    
C17   C22   S    
C21   H9    S    
C24   C27   A    
Cu1   N1    S    
C4    C8    A    
Cu1   O7    S    
C6    O10   S    
C29   H18   S    
C2    C3    A    
C26   C27   A    
C30   H21   S    
C13   C14   A    
C20   H7    S    
C15   C25   A    
O9    C29   S    
C6    C7    A    
C1    O2    A    
Cu1   O3    S    
C2    C4    A    
C9    C10   A    
C22   O5    A    
Cu2   O2    S    
C5    C11   A    
C22   O6    A    
C3    C7    A    
C19   H6    S    
C23   C25   S    
C14   C25   A    
C5    C6    A    
Cu1   O5    S    
Cu2   O6    S    
C15   H10   S    
H8    N1    S    
C7    H1    S    
C10   C11   A    
Cu1   O1    S    
C29   H17   S    
C30   H19   S    
C27   H13   S    
Cu2   N2    S    
C12   O4    A    
C20   C21   S    
C26   H12   S    
C23   O7    A    
C16   C18   S    
C18   C19   D    
C17   H4    S    
C14   O9    S    
C8    H15   S    
C4    C5    A    
C2    C28   A    
C29   H16   S    
C1    C19   S    
C11   C15   A    
Cu2   O8    S    
C28   H14   S    
C3    C26   A    
C20   N1    D    
O10   C30   S    
C24   C28   A    
C16   C17   D    
N2    Cl1   S    
C21   N2    D    
C10   C13   A    
