data_mof_unit_34606.cif
_audit_creation_date              2012-12-10T17:25:36-0500
_audit_creation_method            fapswitch 2.2
_symmetry_space_group_name_H-M    P1
_symmetry_Int_Tables_number       1
_space_group_crystal_system       triclinic
_cell_length_a                    10.452001
_cell_length_b                    10.928857
_cell_length_c                    23.336027
_cell_angle_alpha                 91.432478
_cell_angle_beta                  80.156812
_cell_angle_gamma                 95.004259
_cell_volume                      2616.24817514

loop_
_atom_site_label
_atom_site_type_symbol
_atom_type_description
_atom_site_fract_x
_atom_site_fract_y
_atom_site_fract_z
_atom_type_partial_charge
C1    C     C_R   0.554930 0.730519 0.493146 0.937108
C2    C     C_R   0.529962 0.372023 0.298470 0.078150
C3    C     C_R   0.463940 0.638555 0.762142 0.184352
C4    C     C_R   0.536396 0.361845 0.237757 0.183062
C5    C     C_R   0.487113 0.535952 0.792993 0.241606
C6    C     C_R   0.512236 0.464219 0.207020 0.241538
C7    C     C_2   0.586182 0.861310 0.491032 -0.335186
C8    C     C_2   0.413522 0.138731 0.508844 -0.334925
C9    C     C_2   0.494369 0.938173 0.486715 0.235852
C10   C     C_2   0.504909 0.061631 0.513391 0.236819
C11   C     C_2   0.927497 0.508448 0.504880 0.286685
C12   C     C_R   0.445030 0.269481 0.506815 0.937485
C13   C     C_2   0.072224 0.488171 0.496411 0.281911
C14   C     C_R   0.499489 0.503544 0.610230 0.910474
C15   C     C_R   0.500514 0.496502 0.389763 0.908175
C16   C     C_R   0.404392 0.418160 0.125414 0.545374
C17   C     C_R   0.594956 0.582017 0.874598 0.545304
C18   C     C_R   0.622430 0.510973 0.110422 0.534677
C19   C     C_R   0.376814 0.489455 0.889609 0.534517
C20   C     C_R   0.621146 0.527034 0.050640 -0.049044
C21   C     C_R   0.378102 0.473347 0.949394 -0.048928
C22   C     C_R   0.504186 0.489297 0.029261 -0.082053
C23   C     C_R   0.516219 0.426013 0.764313 -0.126497
C24   C     C_R   0.495078 0.511037 0.970769 -0.082064
C25   C     C_R   0.397536 0.426806 0.066041 -0.110089
C26   C     C_R   0.601757 0.573467 0.933981 -0.109982
C27   C     C_R   0.729578 0.584545 0.012560 0.107601
C28   C     C_R   0.269666 0.415819 0.987479 0.107617
C29   C     C_R   0.713880 0.619476 0.956744 0.216669
C30   C     C_R   0.285398 0.380805 0.043278 0.216706
C31   C     C_3   0.863674 0.604924 0.029495 -0.716005
C32   C     C_3   0.135555 0.395428 0.970546 -0.716148
C33   C     C_3   0.130215 0.621633 0.576974 -0.588688
C34   C     C_R   0.482357 0.573864 0.235797 -0.125708
C35   C     C_3   0.859036 0.340313 0.439985 -0.591606
C36   C     C_3   0.552156 0.293381 0.675850 -0.859691
C37   C     C_3   0.445822 0.706178 0.324338 -0.858984
C38   C     C_3   0.432094 0.757680 0.793327 -0.749526
C39   C     C_3   0.568900 0.242984 0.206468 -0.749019
C40   C     C_3   0.616678 0.097577 0.546354 -0.848840
C41   C     C_3   0.381872 0.901749 0.454212 -0.840484
C42   C     C_3   0.124574 0.398261 0.450029 -0.821835
C43   C     C_3   0.879459 0.611364 0.544883 -0.829790
C44   C     C_R   0.521995 0.414373 0.704574 0.125039
C45   C     C_R   0.476812 0.585464 0.295525 0.124915
C46   C     C_R   0.498309 0.515584 0.672811 -0.119500
C47   C     C_R   0.501617 0.484522 0.327175 -0.118763
C48   C     C_R   0.470697 0.628342 0.701414 0.073634
H1    H     H_    0.534400 0.349102 0.789382 0.154637
H2    H     H_    0.056750 0.380348 0.008495 0.225147
H3    H     H_    0.223152 0.651402 0.591392 0.269925
H4    H     H_    0.091756 0.710145 0.570290 0.188616
H5    H     H_    0.073157 0.563982 0.612496 0.200563
H6    H     H_    0.766428 0.313094 0.424651 0.270714
H7    H     H_    0.927313 0.359038 0.398975 0.202673
H8    H     H_    0.877544 0.261192 0.465302 0.179741
H9    H     H_    0.473282 0.260081 0.651506 0.234525
H10   H     H_    0.647208 0.305662 0.646213 0.251024
H11   H     H_    0.559679 0.222031 0.707904 0.250472
H12   H     H_    0.463454 0.650600 0.210806 0.154690
H13   H     H_    0.524966 0.740314 0.348346 0.234465
H14   H     H_    0.436866 0.777196 0.292381 0.250347
H15   H     H_    0.351273 0.693195 0.354284 0.251799
H16   H     H_    0.425971 0.752280 0.841097 0.229772
H17   H     H_    0.508566 0.831652 0.777321 0.256610
H18   H     H_    0.336259 0.782998 0.785168 0.257417
H19   H     H_    0.493003 0.168575 0.222542 0.256240
H20   H     H_    0.574574 0.248391 0.158722 0.229695
H21   H     H_    0.665099 0.218293 0.214454 0.258052
H22   H     H_    0.619680 0.027578 0.579655 0.246674
H23   H     H_    0.321094 0.107537 0.496038 0.140430
H24   H     H_    0.710618 0.105754 0.515713 0.234194
H25   H     H_    0.605708 0.184564 0.570562 0.250832
H26   H     H_    0.377393 0.971905 0.421177 0.243082
H27   H     H_    0.393430 0.815279 0.429613 0.249145
H28   H     H_    0.288415 0.892224 0.485238 0.240550
H29   H     H_    0.080268 0.304229 0.459607 0.203936
H30   H     H_    0.118162 0.432079 0.406324 0.224272
H31   H     H_    0.224510 0.382317 0.447729 0.299320
H32   H     H_    0.926910 0.700889 0.527841 0.210376
H33   H     H_    0.777666 0.621797 0.549918 0.300420
H34   H     H_    0.678715 0.892719 0.503679 0.141248
H35   H     H_    0.887553 0.593441 0.590380 0.217990
H36   H     H_    0.887590 0.521118 0.049924 0.256190
H37   H     H_    0.942461 0.619904 0.991542 0.225099
H38   H     H_    0.868178 0.685356 0.059306 0.277504
H39   H     H_    0.111593 0.479295 0.950164 0.256186
H40   H     H_    0.131101 0.315064 0.940684 0.277338
I1    I     I_    0.848574 0.764200 0.914404 -0.248023
I2    I     I_    0.150697 0.235993 0.085593 -0.247038
I3    I     I_    0.446129 0.785899 0.652864 -0.419620
I4    I     I_    0.556110 0.214735 0.346844 -0.417493
N1    N     N_R   0.515088 0.459291 0.145609 -0.352191
N2    N     N_R   0.484226 0.540984 0.854407 -0.352110
N3    N     N_2   0.842710 0.448880 0.476480 -0.074393
N4    N     N_2   0.157290 0.551120 0.523520 -0.078209
O1    O     O_R   0.431060 0.692470 0.504730 -0.585074
O2    O     O_2   0.699990 0.623341 0.836042 -0.505861
O3    O     O_2   0.726524 0.551927 0.134694 -0.547090
O4    O     O_2   0.272645 0.448694 0.865351 -0.547906
O5    O     O_R   0.568940 0.307530 0.495270 -0.595550
O6    O     O_R   0.651120 0.659650 0.489640 -0.631373
O7    O     O_R   0.348880 0.340350 0.510360 -0.630640
O8    O     O_R   0.389950 0.516450 0.591390 -0.598691
O9    O     O_R   0.610050 0.483550 0.408610 -0.586225
O10   O     O_R   0.610020 0.483630 0.576300 -0.629543
O11   O     O_R   0.389980 0.516370 0.423700 -0.632240
O12   O     O_2   0.299448 0.376626 0.163960 -0.505284
Zn1   Zn    Zn3+2 0.353060 0.521920 0.510080 0.948850
Zn2   Zn    Zn3+2 0.646940 0.478080 0.489920 0.951875

loop_
_geom_bond_atom_site_label_1
_geom_bond_atom_site_label_2
_ccdc_geom_bond_type
O9    Zn2   S    
C31   H37   S    
C27   C29   A    
C43   H35   S    
C39   H20   S    
C15   C47   S    
C30   I2    S    
C36   H11   S    
C29   I1    S    
C5    N2    S    
C14   C46   S    
C33   H4    S    
C16   N1    A    
C40   H22   S    
C17   C26   A    
C19   C21   A    
C24   C26   A    
C36   H10   S    
O10   Zn2   S    
O8    Zn1   S    
C23   H1    S    
C32   H40   S    
C3    C48   A    
C16   C25   A    
C40   H25   S    
C10   C40   S    
C15   O11   A    
C41   H26   S    
C38   H18   S    
C3    C38   S    
C48   I3    S    
C38   H17   S    
C11   C43   S    
C9    C10   S    
C42   H31   S    
C31   H38   S    
C35   H6    S    
C34   H12   S    
O11   Zn1   S    
C13   C42   S    
C37   H15   S    
C44   C46   A    
C37   H14   S    
C38   H16   S    
C45   C47   A    
C33   H5    S    
C46   C48   A    
C13   N4    D    
C35   H7    S    
C28   C32   S    
C12   O7    A    
C4    C6    A    
C36   H9    S    
C1    O1    A    
C43   H32   S    
C32   H39   S    
C27   C31   S    
C22   C25   A    
C31   H36   S    
C6    C34   A    
C2    C4    A    
C41   H27   S    
O1    Zn1   S    
C14   O8    A    
C5    C23   A    
C4    C39   S    
C8    C12   S    
C6    N1    S    
C39   H21   S    
C34   C45   A    
C2    I4    S    
C32   H2    S    
C19   N2    A    
C42   H29   S    
C21   C28   A    
C20   C22   A    
C42   H30   S    
C43   H33   S    
C22   C24   A    
O6    Zn2   S    
C18   O3    S    
C37   C45   S    
C33   N4    S    
C17   O2    S    
C11   N3    D    
C25   C30   A    
C7    C9    D    
C8    H23   S    
C40   H24   S    
C35   H8    S    
C1    C7    S    
C39   H19   S    
C3    C5    A    
N3    Zn2   S    
C37   H13   S    
C19   O4    S    
C20   C27   A    
C35   N3    S    
C2    C47   A    
C33   H3    S    
N4    Zn1   S    
C9    C41   S    
O7    Zn1   S    
C15   O9    A    
C28   C30   A    
O5    Zn2   S    
C12   O5    A    
C41   H28   S    
C11   C13   S    
C18   C20   A    
C36   C44   S    
C16   O12   S    
C14   O10   A    
C7    H34   S    
C26   C29   A    
C8    C10   D    
C21   C24   A    
C18   N1    A    
C17   N2    A    
C1    O6    A    
C23   C44   A    
