data_mof_unit_15091.cif
_audit_creation_date              2012-12-10T19:45:53-0500
_audit_creation_method            fapswitch 2.2
_symmetry_space_group_name_H-M    P1
_symmetry_Int_Tables_number       1
_space_group_crystal_system       triclinic
_cell_length_a                    10.490562
_cell_length_b                    14.902421
_cell_length_c                    14.180902
_cell_angle_alpha                 90.268233
_cell_angle_beta                  102.410917
_cell_angle_gamma                 90.049782
_cell_volume                      2165.13279493

loop_
_atom_site_label
_atom_site_type_symbol
_atom_type_description
_atom_site_fract_x
_atom_site_fract_y
_atom_site_fract_z
_atom_type_partial_charge
C1    C     C_R   0.501420 0.327569 0.499954 0.842905
C2    C     C_R   0.500109 0.672345 0.500321 0.891717
C3    C     C_R   0.452149 0.048044 0.489690 -0.075909
C4    C     C_R   0.452422 0.951610 0.495313 -0.072445
C5    C     C_R   0.424865 0.444654 0.086899 0.139553
C6    C     C_R   0.596764 0.464051 0.916078 0.132318
C7    C     C_R   0.431060 0.437682 0.188592 0.293906
C8    C     C_R   0.591666 0.454142 0.814977 0.311426
C9    C     C_R   0.561024 0.569536 0.217928 -0.035395
C10   C     C_R   0.412430 0.554367 0.778489 -0.021644
C11   C     C_R   0.557699 0.578535 0.118619 -0.320060
C12   C     C_R   0.411316 0.563299 0.877342 -0.299701
C13   C     C_R   0.490051 0.516175 0.051628 0.093244
C14   C     C_R   0.503338 0.518136 0.947640 0.080287
C15   C     C_R   0.257202 0.503913 0.461224 0.928078
C16   C     C_R   0.742757 0.505577 0.538758 0.937696
C17   C     C_2   0.117815 0.521238 0.444083 -0.472116
C18   C     C_2   0.882151 0.524824 0.556129 -0.346406
C19   C     C_2   0.070181 0.579953 0.500647 -0.075903
C20   C     C_2   0.930696 0.580004 0.496723 0.055024
C21   C     C_R   0.381497 0.100345 0.543183 -0.001862
C22   C     C_R   0.376626 0.898947 0.421794 0.012620
C23   C     C_R   0.401736 0.192586 0.546177 -0.143102
C24   C     C_R   0.396246 0.806689 0.425049 -0.166002
C25   C     C_R   0.490967 0.231296 0.497596 -0.168054
C26   C     C_R   0.489720 0.768438 0.499439 -0.133690
C27   C     C_R   0.561604 0.178399 0.443909 -0.031893
C28   C     C_R   0.565342 0.821571 0.573236 -0.021689
C29   C     C_R   0.539378 0.086454 0.439696 -0.100213
C30   C     C_R   0.544019 0.913541 0.570570 -0.109148
H1    H     H_    0.610529 0.633152 0.094296 0.183862
H2    H     H_    0.337186 0.604358 0.898797 0.187489
H3    H     H_    0.947405 0.487410 0.612132 0.149024
H4    H     H_    0.052512 0.479996 0.391315 0.162826
H5    H     H_    0.347066 0.234897 0.585715 0.194384
H6    H     H_    0.337944 0.763982 0.370072 0.185452
H7    H     H_    0.594687 0.043390 0.401342 0.197109
H8    H     H_    0.602891 0.956835 0.624670 0.193747
H9    H     H_    0.613207 0.618870 0.267752 0.179610
H10   H     H_    0.342125 0.591227 0.726133 0.164815
N1    N     N_R   0.500000 0.499980 0.252470 -0.108904
N2    N     N_R   0.500000 0.500020 0.747530 -0.110400
O1    O     O_R   0.500010 0.369070 0.579480 -0.616244
O2    O     O_R   0.499990 0.630930 0.420520 -0.575512
O3    O     O_R   0.500010 0.369060 0.420520 -0.633139
O4    O     O_R   0.499990 0.630940 0.579480 -0.654170
O5    O     O_R   0.317810 0.500010 0.549800 -0.611690
O6    O     O_R   0.682190 0.499990 0.450200 -0.598095
O7    O     O_R   0.317810 0.500000 0.390840 -0.612001
O8    O     O_R   0.682190 0.500000 0.609160 -0.615506
Zn1   Zn    Zn3+2 0.500000 0.500010 0.606140 0.944120
Zn2   Zn    Zn3+2 0.500000 0.499990 0.393860 0.954738
C31   C     C_2   0.852873 0.644562 0.428533 0.448892
H11   H     H_    0.884638 0.662660 0.363161 0.056226
O9    O     O_2   0.758975 0.682734 0.447777 -0.595664
C32   C     C_2   0.151312 0.649149 0.561920 0.446282
H12   H     H_    0.249825 0.663116 0.554385 0.061268
O10   O     O_2   0.106969 0.692900 0.620436 -0.549312
C33   C     C_2   0.288143 0.059404 0.595947 0.417506
H13   H     H_    0.270027 0.987658 0.592115 0.091292
O11   O     O_2   0.229826 0.105415 0.644316 -0.549209
C34   C     C_2   0.278542 0.939500 0.342108 0.416603
H14   H     H_    0.261277 0.011297 0.340284 0.081281
O12   O     O_2   0.215304 0.893105 0.277408 -0.547552
C35   C     C_2   0.663772 0.216600 0.397385 0.397045
H15   H     H_    0.700379 0.284130 0.414258 0.078746
O13   O     O_2   0.709797 0.172417 0.340061 -0.555266
C36   C     C_2   0.671272 0.783439 0.649399 0.480479
H16   H     H_    0.704831 0.715215 0.643936 0.108351
O14   O     O_2   0.723944 0.828453 0.719142 -0.548314
C37   C     C_3   0.351530 0.374864 0.017389 -0.880872
H17   H     H_    0.356583 0.385453 0.941103 0.251826
H18   H     H_    0.392344 0.307208 0.037651 0.256726
H19   H     H_    0.246347 0.376339 0.019366 0.241845
C38   C     C_3   0.700266 0.414893 0.988972 -0.879164
H20   H     H_    0.798735 0.430869 0.976695 0.245448
H21   H     H_    0.702006 0.433488 0.064910 0.249602
H22   H     H_    0.683189 0.341437 0.981904 0.252652
C39   C     C_3   0.366393 0.359242 0.226867 -0.796991
H23   H     H_    0.441587 0.309142 0.257899 0.246744
H24   H     H_    0.311288 0.381299 0.280615 0.264781
H25   H     H_    0.293258 0.323736 0.171572 0.214776
C40   C     C_3   0.689817 0.392319 0.784712 -0.818083
H26   H     H_    0.789241 0.421471 0.806755 0.224463
H27   H     H_    0.687678 0.325636 0.818801 0.223135
H28   H     H_    0.671496 0.378449 0.707588 0.279400

loop_
_geom_bond_atom_site_label_1
_geom_bond_atom_site_label_2
_ccdc_geom_bond_type
C19   C32   S    
C10   N2    A    
C8    C40   S    
C19   C20   S    
C15   O5    A    
C8    N2    A    
O1    Zn1   S    
C16   O6    A    
C6    C38   S    
C31   H11   S    
C2    O4    A    
C24   H6    S    
C28   C36   S    
C24   C26   A    
C21   C33   S    
C6    C14   A    
C37   H18   S    
C9    H9    S    
C32   H12   S    
C30   H8    S    
C10   H10   S    
C3    C29   A    
C34   O12   D    
C1    O1    A    
C7    N1    A    
C2    O2    A    
C36   H16   S    
C35   O13   D    
N1    Zn2   S    
C5    C13   A    
N2    Zn1   S    
O2    Zn2   S    
C15   O7    A    
C11   H1    S    
C33   H13   S    
C13   C14   S    
C12   H2    S    
C1    C25   S    
C22   C34   S    
C18   H3    S    
C5    C7    A    
C31   O9    D    
C33   O11   D    
C39   H24   S    
O5    Zn1   S    
O3    Zn2   S    
O4    Zn1   S    
C38   H20   S    
C34   H14   S    
C27   C35   S    
C39   H25   S    
C4    C22   A    
C40   H26   S    
O7    Zn2   S    
O8    Zn1   S    
C2    C26   S    
C9    C11   A    
C10   C12   A    
C16   C18   S    
C40   H27   S    
C12   C14   A    
C23   H5    S    
C21   C23   A    
C22   C24   A    
C3    C21   A    
C17   H4    S    
C3    C4    S    
C7    C39   S    
C15   C17   S    
C26   C28   A    
C16   O8    A    
C20   C31   S    
C37   H19   S    
C6    C8    A    
C25   C27   A    
C9    N1    A    
C28   C30   A    
C37   H17   S    
C5    C37   S    
C11   C13   A    
C1    O3    A    
C27   C29   A    
C17   C19   D    
C32   O10   D    
C18   C20   D    
C23   C25   A    
C38   H22   S    
C39   H23   S    
O6    Zn2   S    
C40   H28   S    
C36   O14   D    
C35   H15   S    
C38   H21   S    
C29   H7    S    
C4    C30   A    
