data_mof_unit_12043.cif
_audit_creation_date              2012-12-10T17:42:35-0500
_audit_creation_method            fapswitch 2.2
_symmetry_space_group_name_H-M    P1
_symmetry_Int_Tables_number       1
_space_group_crystal_system       triclinic
_cell_length_a                    9.935532
_cell_length_b                    10.618684
_cell_length_c                    13.110323
_cell_angle_alpha                 91.389646
_cell_angle_beta                  69.834538
_cell_angle_gamma                 89.995594
_cell_volume                      1297.9476946

loop_
_atom_site_label
_atom_site_type_symbol
_atom_type_description
_atom_site_fract_x
_atom_site_fract_y
_atom_site_fract_z
_atom_type_partial_charge
C1    C     C_R   0.501118 0.739236 0.497457 0.857392
C2    C     C_R   0.368046 0.486614 0.822047 -0.121093
C3    C     C_R   0.469527 0.863222 0.311927 -0.175123
C4    C     C_R   0.420106 0.494167 0.703926 0.837321
C5    C     C_R   0.453728 0.926377 0.224610 -0.138684
C6    C     C_R   0.454407 0.057467 0.224384 -0.126984
C7    C     C_R   0.470687 0.125801 0.311538 -0.186752
C8    C     C_R   0.485579 0.063117 0.401189 0.092382
C9    C     C_R   0.485180 0.931124 0.401340 0.103794
C10   C     C_R   0.504667 0.871351 0.490258 -0.098959
C11   C     C_R   0.529542 0.937907 0.574564 -0.205736
C12   C     C_R   0.431763 0.478655 0.984398 0.073155
C13   C     C_R   0.529651 0.066576 0.574498 -0.191132
C14   C     C_R   0.505033 0.128117 0.490084 -0.101095
C15   C     C_R   0.796483 0.664136 0.644001 -0.259109
C16   C     C_R   0.501346 0.260636 0.497211 0.861925
C17   C     C_R   0.833261 0.740395 0.718923 0.553256
C18   C     C_R   0.973304 0.738795 0.717865 -0.275546
C19   C     C_R   0.074955 0.659207 0.645775 -0.262433
C20   C     C_R   0.040025 0.578728 0.571925 0.172862
C21   C     C_R   0.895935 0.579882 0.571381 0.116460
C22   C     C_R   0.959771 0.424066 0.431441 -0.113419
C23   C     C_R   0.459366 0.441562 0.875244 0.076351
C24   C     C_R   0.102801 0.424313 0.431283 -0.107548
C25   C     C_R   0.579969 0.499209 0.295883 0.840503
C26   C     C_R   0.771199 0.365996 0.017050 -0.192759
C27   C     C_R   0.628427 0.481738 0.178786 -0.054962
C28   C     C_R   0.235234 0.541590 0.882407 -0.202494
C29   C     C_R   0.197695 0.560266 0.993922 -0.147718
C30   C     C_R   0.296000 0.532543 0.044536 -0.204885
C31   C     C_3   0.626412 0.758681 0.864957 -0.323328
C32   C     C_R   0.541210 0.460364 0.028737 0.064437
C33   C     C_R   0.665410 0.387933 0.970805 0.160987
C34   C     C_R   0.680597 0.336536 0.868742 -0.245139
C35   C     C_R   0.578816 0.362754 0.821459 -0.194895
C36   C     C_R   0.531558 0.514391 0.128623 -0.273866
C37   C     C_R   0.751193 0.410610 0.122199 -0.205467
H1    H     H_    0.826935 0.384248 0.160950 0.154207
H2    H     H_    0.180049 0.663493 0.649832 0.225079
H3    H     H_    0.772280 0.277599 0.824662 0.161406
H4    H     H_    0.181883 0.362341 0.375071 0.147538
H5    H     H_    0.865737 0.309885 0.973911 0.145987
H6    H     H_    0.445080 0.578186 0.171966 0.145459
H7    H     H_    0.162548 0.574008 0.842985 0.157171
H8    H     H_    0.261534 0.551098 0.131044 0.137245
H9    H     H_    0.094501 0.601565 0.040616 0.150507
H10   H     H_    0.593875 0.319410 0.742745 0.172259
H11   H     H_    0.545937 0.889954 0.641546 0.164680
H12   H     H_    0.471484 0.761478 0.307771 0.140183
H13   H     H_    0.670349 0.686859 0.905874 0.175178
H14   H     H_    0.553062 0.714273 0.827310 0.163263
H15   H     H_    0.561689 0.826413 0.928758 0.191531
H16   H     H_    0.442259 0.873387 0.156514 0.129538
H17   H     H_    0.443550 0.106386 0.156088 0.144398
H18   H     H_    0.473633 0.227357 0.307065 0.144726
H19   H     H_    0.546061 0.118519 0.641449 0.148217
H20   H     H_    0.931701 0.361970 0.375391 0.140939
H21   H     H_    0.690248 0.675606 0.644221 0.210862
H22   H     H_    0.003832 0.799905 0.773428 0.172143
N1    N     N_R   0.856860 0.501200 0.500990 -0.103406
N2    N     N_R   0.142450 0.501280 0.501020 -0.108511
O1    O     O_R   0.385310 0.683220 0.500000 -0.629986
O2    O     O_R   0.614640 0.683250 0.500010 -0.622439
O3    O     O_R   0.328400 0.499950 0.653610 -0.623338
O4    O     O_R   0.557730 0.499970 0.653620 -0.632117
O5    O     O_R   0.385360 0.316750 0.499990 -0.609014
O6    O     O_R   0.614690 0.316780 0.500000 -0.614565
O7    O     O_R   0.442270 0.500030 0.346380 -0.622295
O8    O     O_R   0.671600 0.500050 0.346390 -0.609304
O9    O     O_3   0.736405 0.825267 0.787782 -0.612354
Zn1   Zn    Zn3+2 0.346880 0.499980 0.499990 0.930848
Zn2   Zn    Zn3+2 0.653120 0.500020 0.500010 0.932260

loop_
_geom_bond_atom_site_label_1
_geom_bond_atom_site_label_2
_ccdc_geom_bond_type
O8    Zn2   S    
C2    C4    S    
C26   C37   A    
C24   N2    A    
C3    C9    A    
C27   C36   A    
C25   C27   S    
O4    Zn2   S    
C9    C10   A    
C4    O3    A    
C30   H8    S    
C19   C20   A    
C21   N1    A    
C7    H18   S    
C31   H15   S    
C13   H19   S    
C35   H10   S    
C32   C33   A    
N2    Zn1   S    
C22   H20   S    
C33   C34   A    
C3    H12   S    
C17   O9    S    
C16   O6    A    
C13   C14   A    
C12   C32   A    
C24   H4    S    
C11   C13   A    
C12   C23   A    
C11   H11   S    
C37   H1    S    
C25   O7    A    
C19   H2    S    
C6    H17   S    
O7    Zn1   S    
C34   H3    S    
C32   C36   A    
C22   C24   A    
C5    H16   S    
C28   C29   A    
C27   C37   A    
O1    Zn1   S    
C17   C18   A    
C6    C7    A    
C23   C35   A    
C22   N1    A    
C5    C6    A    
C34   C35   A    
C15   H21   S    
C14   C16   S    
C25   O8    A    
C10   C11   A    
N1    Zn2   S    
C31   H13   S    
C29   C30   A    
C20   N2    A    
C1    O2    A    
C18   H22   S    
C15   C21   A    
O6    Zn2   S    
C16   O5    A    
O2    Zn2   S    
C26   H5    S    
C1    O1    A    
C29   H9    S    
O3    Zn1   S    
C2    C23   A    
C15   C17   A    
C7    C8    A    
C4    O4    A    
C18   C19   A    
C36   H6    S    
C2    C28   A    
C8    C14   A    
C12   C30   A    
C20   C21   A    
C28   H7    S    
C31   O9    S    
C1    C10   S    
O5    Zn1   S    
C26   C33   A    
C31   H14   S    
C8    C9    A    
C3    C5    A    
