data_mof_unit_48084.cif
_audit_creation_date              2012-12-10T16:49:25-0500
_audit_creation_method            fapswitch 2.2
_symmetry_space_group_name_H-M    P1
_symmetry_Int_Tables_number       1
_space_group_crystal_system       triclinic
_cell_length_a                    19.272057
_cell_length_b                    8.757869
_cell_length_c                    7.521725
_cell_angle_alpha                 102.997169
_cell_angle_beta                  95.200543
_cell_angle_gamma                 94.362718
_cell_volume                      1225.81574835

loop_
_atom_site_label
_atom_site_type_symbol
_atom_type_description
_atom_site_fract_x
_atom_site_fract_y
_atom_site_fract_z
_atom_type_partial_charge
C1    C     C_R   0.497310 0.200351 0.454061 0.839680
C2    C     C_R   0.502689 0.799649 0.545939 0.839682
C3    C     C_2   0.487874 0.033255 0.431779 0.109761
C4    C     C_2   0.512126 0.966745 0.568221 0.109761
C5    C     C_R   0.367771 0.497716 0.500496 0.807975
C6    C     C_R   0.632229 0.502283 0.499504 0.807975
C7    C     C_R   0.265919 0.627208 0.612533 -0.204024
C8    C     C_R   0.734081 0.372779 0.387487 -0.204023
C9    C     C_R   0.193902 0.632184 0.618252 0.418021
C10   C     C_R   0.806099 0.367795 0.381779 0.418024
C11   C     C_R   0.147198 0.504881 0.513585 -0.075980
C12   C     C_R   0.852802 0.495106 0.486436 -0.075984
C13   C     C_R   0.174159 0.373960 0.408257 -0.190110
C14   C     C_R   0.825841 0.626038 0.591743 -0.190102
C15   C     C_R   0.245977 0.369435 0.402709 0.159573
C16   C     C_R   0.754022 0.630567 0.597283 0.159569
C17   C     C_R   0.292189 0.497762 0.503397 -0.131772
C18   C     C_R   0.707811 0.502235 0.496605 -0.131769
C19   C     C_R   0.929309 0.496463 0.489414 0.454941
C20   C     C_R   0.070692 0.503522 0.510615 0.454944
Cu1   Cu    Cu3+1 0.507710 0.517380 0.684380 1.118892
Cu2   Cu    Cu3+1 0.492290 0.482620 0.315620 1.118893
H1    H     H_    0.301632 0.724993 0.693105 0.199734
H2    H     H_    0.698369 0.274989 0.306926 0.199730
H3    H     H_    0.139202 0.274445 0.328880 0.205513
H4    H     H_    0.860797 0.725558 0.671111 0.205516
N1    N     N_R   0.030189 0.365411 0.488731 -0.195862
N2    N     N_R   0.969812 0.634574 0.511299 -0.195865
N3    N     N_R   0.960840 0.362068 0.479411 -0.134187
N4    N     N_R   0.039160 0.637916 0.520619 -0.134190
N5    N     N_2   0.480680 0.456420 0.038530 0.019808
N6    N     N_2   0.519320 0.543580 0.961470 0.019808
O1    O     O_R   0.505010 0.286130 0.619770 -0.559580
O2    O     O_R   0.494990 0.713870 0.380230 -0.559580
O3    O     O_R   0.491990 0.256780 0.308370 -0.531679
O4    O     O_R   0.508010 0.743220 0.691630 -0.531679
O5    O     O_R   0.406650 0.514660 0.655750 -0.580316
O6    O     O_R   0.593350 0.485340 0.344250 -0.580314
O7    O     O_R   0.393640 0.485310 0.344340 -0.553495
O8    O     O_R   0.606360 0.514690 0.655660 -0.553496
Cl1   Cl    Cl    0.165576 0.796374 0.765554 -0.501181
Cl2   Cl    Cl    0.834424 0.203586 0.234512 -0.501181
I1    I     I_    0.280295 0.159778 0.251522 -0.131797
I2    I     I_    0.719703 0.840231 0.748451 -0.131803
Cl3   Cl    Cl    0.435159 0.929746 0.227350 -0.511224
Cl4   Cl    Cl    0.564840 0.070255 0.772651 -0.511224
I3    I     I_    0.401524 0.286476 0.896668 -0.032694
I4    I     I_    0.598476 0.713524 0.103331 -0.032691

loop_
_geom_bond_atom_site_label_1
_geom_bond_atom_site_label_2
_ccdc_geom_bond_type
C2    C4    S    
C6    O6    A    
C15   C17   A    
Cu1   N6    S    
Cu2   O3    S    
C20   N1    A    
C5    O5    A    
N1    N3    A    
C11   C13   A    
C16   I2    S    
C9    Cl1   S    
N5    N6    D    
C2    O2    A    
N2    N4    A    
C15   I1    S    
Cu1   O4    S    
C20   N4    A    
Cu1   Cu2   S    
C14   H4    S    
C19   N2    A    
C9    C11   A    
C13   H3    S    
N6    I4    S    
Cu1   O8    S    
C10   C12   A    
C7    H1    S    
Cu2   O7    S    
C12   C19   S    
C8    C10   A    
C8    H2    S    
C12   C14   A    
C6    O8    A    
C13   C15   A    
Cu2   O2    S    
C6    C18   S    
C14   C16   A    
C11   C20   S    
C5    C17   S    
Cu2   N5    S    
C1    O1    A    
C3    C4    D    
C19   N3    A    
N5    I3    S    
Cu1   O1    S    
C1    O3    A    
Cu1   O5    S    
C16   C18   A    
C2    O4    A    
C7    C9    A    
C5    O7    A    
C10   Cl2   S    
C4    Cl4   S    
C1    C3    S    
C3    Cl3   S    
C8    C18   A    
C7    C17   A    
Cu2   O6    S    
