data_mof_unit_66502.cif
_audit_creation_date              2012-12-10T20:04:42-0500
_audit_creation_method            fapswitch 2.2
_symmetry_space_group_name_H-M    P1
_symmetry_Int_Tables_number       1
_space_group_crystal_system       triclinic
_cell_length_a                    10.823616
_cell_length_b                    19.337145
_cell_length_c                    18.428361
_cell_angle_alpha                 89.979262
_cell_angle_beta                  104.016876
_cell_angle_gamma                 90.134892
_cell_volume                      3742.16069026

loop_
_atom_site_label
_atom_site_type_symbol
_atom_type_description
_atom_site_fract_x
_atom_site_fract_y
_atom_site_fract_z
_atom_type_partial_charge
C1    C     C_R   0.499812 0.365615 0.500004 0.869212
C2    C     C_R   0.500188 0.634386 0.499996 0.862686
C3    C     C_R   0.500539 0.709484 0.500050 -0.036369
C4    C     C_R   0.499457 0.290512 0.499950 -0.039434
C5    C     C_R   0.414262 0.963931 0.532012 -0.177423
C6    C     C_R   0.585718 0.036066 0.467983 -0.177419
C7    C     C_R   0.413838 0.035555 0.531926 -0.178113
C8    C     C_R   0.586147 0.964442 0.468073 -0.178109
C9    C     C_R   0.499561 0.071738 0.499908 0.104214
C10   C     C_R   0.500421 0.928258 0.500089 0.104318
C11   C     C_R   0.576594 0.545152 0.736719 0.023388
C12   C     C_R   0.423254 0.454946 0.263230 0.024639
C13   C     C_R   0.577578 0.546619 0.813029 -0.222918
C14   C     C_R   0.422306 0.453507 0.186925 -0.223146
C15   C     C_R   0.498305 0.501626 0.841225 0.152892
C16   C     C_R   0.501759 0.498432 0.158788 0.152869
C17   C     C_R   0.421707 0.454879 0.791442 -0.265161
C18   C     C_R   0.578518 0.545080 0.208622 -0.264332
C19   C     C_R   0.423565 0.455105 0.715499 0.015343
C20   C     C_R   0.576630 0.544823 0.284560 0.016720
C21   C     C_R   0.529330 0.440779 0.964441 -0.239261
C22   C     C_R   0.470783 0.559296 0.035585 -0.239145
C23   C     C_R   0.258776 0.501897 0.468977 0.954010
C24   C     C_R   0.741226 0.501952 0.531022 0.954830
C25   C     C_R   0.532054 0.438696 0.041078 0.179707
C26   C     C_R   0.468042 0.561378 0.958944 0.179569
C27   C     C_R   0.501889 0.498334 0.077592 0.020315
C28   C     C_R   0.498217 0.501740 0.922429 0.020485
C29   C     C_2   0.122589 0.509509 0.451240 -0.372536
C30   C     C_2   0.877467 0.509549 0.548762 -0.372336
C31   C     C_2   0.067906 0.523027 0.506971 -0.146799
C32   C     C_2   0.932274 0.523134 0.493056 -0.147991
C33   C     C_R   0.501727 0.745648 0.434265 -0.188532
C34   C     C_R   0.498373 0.254346 0.565750 -0.188444
C35   C     C_R   0.501865 0.817272 0.434344 -0.172111
C36   C     C_R   0.498224 0.182721 0.565669 -0.171779
C37   C     C_R   0.500759 0.853154 0.500119 0.111372
C38   C     C_R   0.499225 0.146840 0.499879 0.111248
C39   C     C_R   0.499748 0.817197 0.565888 -0.169125
C40   C     C_R   0.500137 0.182796 0.434096 -0.168839
C41   C     C_R   0.499696 0.745577 0.565904 -0.182214
C42   C     C_R   0.500189 0.254417 0.434079 -0.181755
H1    H     H_    0.877361 0.529262 0.435555 0.185919
H2    H     H_    0.122865 0.528970 0.564497 0.192128
H3    H     H_    0.640086 0.582408 0.849834 0.160875
H4    H     H_    0.359694 0.417790 0.150079 0.160761
H5    H     H_    0.360129 0.418933 0.811078 0.148347
H6    H     H_    0.640245 0.580967 0.189030 0.147830
H7    H     H_    0.363635 0.419427 0.677253 0.126270
H8    H     H_    0.636699 0.580416 0.322854 0.120881
H9    H     H_    0.553948 0.394688 0.937694 0.174268
H10   H     H_    0.446160 0.605385 0.062333 0.174296
H11   H     H_    0.932701 0.503246 0.606097 0.156032
H12   H     H_    0.067306 0.503349 0.393881 0.156817
H13   H     H_    0.502259 0.718742 0.382796 0.157038
H14   H     H_    0.497933 0.281251 0.617233 0.157070
H15   H     H_    0.501404 0.844681 0.382994 0.136893
H16   H     H_    0.498760 0.155310 0.617028 0.136859
H17   H     H_    0.500222 0.844551 0.617253 0.140853
H18   H     H_    0.499584 0.155440 0.382721 0.140860
H19   H     H_    0.499143 0.718621 0.617363 0.164403
H20   H     H_    0.500655 0.281371 0.382607 0.164702
H21   H     H_    0.346537 0.936363 0.556080 0.138789
H22   H     H_    0.653437 0.063636 0.443912 0.138837
H23   H     H_    0.345820 0.062721 0.555945 0.137192
H24   H     H_    0.654171 0.937278 0.444057 0.137181
H25   H     H_    0.637255 0.580144 0.715190 0.127561
H26   H     H_    0.362452 0.420007 0.284715 0.127109
N1    N     N_R   0.500020 0.499980 0.689440 -0.094226
N2    N     N_R   0.499980 0.500020 0.310560 -0.093262
O1    O     O_R   0.500000 0.398180 0.560840 -0.626601
O2    O     O_R   0.500000 0.601820 0.439160 -0.629265
O3    O     O_R   0.499950 0.398180 0.439200 -0.623227
O4    O     O_R   0.500050 0.601820 0.560800 -0.626363
O5    O     O_R   0.317830 0.500010 0.538110 -0.619932
O6    O     O_R   0.682170 0.499990 0.461890 -0.617937
O7    O     O_R   0.317770 0.500000 0.416470 -0.617579
O8    O     O_R   0.682230 0.500000 0.583530 -0.617613
Zn1   Zn    Zn3+2 0.500040 0.500000 0.581220 0.947886
Zn2   Zn    Zn3+2 0.499960 0.500000 0.418780 0.949265
I1    I     I_    0.591878 0.344940 0.098735 -0.396967
I2    I     I_    0.408117 0.655121 0.901284 -0.398475

loop_
_geom_bond_atom_site_label_1
_geom_bond_atom_site_label_2
_ccdc_geom_bond_type
C33   H13   S    
C13   H3    S    
C8    H24   S    
C40   H18   S    
C41   H19   S    
C6    C9    A    
O1    Zn1   S    
C39   C41   A    
C34   H14   S    
C12   H26   S    
C1    O1    A    
C10   C37   S    
C23   C29   S    
C38   C40   A    
C36   H16   S    
C29   H12   S    
C3    C33   A    
C5    H21   S    
C15   C17   A    
C6    H22   S    
C12   N2    A    
C33   C35   A    
O3    Zn2   S    
C20   H8    S    
C42   H20   S    
C34   C36   A    
C2    O4    A    
C16   C27   S    
C40   C42   A    
C26   I2    S    
C25   I1    S    
C20   N2    A    
C2    O2    A    
C11   H25   S    
C30   H11   S    
C4    C34   A    
C31   H2    S    
N2    Zn2   S    
C17   H5    S    
C14   H4    S    
C5    C7    A    
O8    Zn1   S    
C24   O6    A    
C6    C8    A    
O2    Zn2   S    
C7    H23   S    
C19   H7    S    
C31   C32   S    
C39   H17   S    
C16   C18   A    
C23   O7    A    
C24   O8    A    
C21   C28   A    
C12   C14   A    
O4    Zn1   S    
C13   C15   A    
C14   C16   A    
N1    Zn1   S    
C21   H9    S    
C22   H10   S    
O7    Zn2   S    
C7    C9    A    
C21   C25   A    
C3    C41   A    
C35   C37   A    
C8    C10   A    
O6    Zn2   S    
C23   O5    A    
C18   H6    S    
C11   N1    A    
C25   C27   A    
C26   C28   A    
C35   H15   S    
C22   C27   A    
C1    C4    S    
C1    O3    A    
C36   C38   A    
C2    C3    S    
C5    C10   A    
C29   C31   D    
C30   C32   D    
C11   C13   A    
C15   C28   S    
C4    C42   A    
C9    C38   S    
C17   C19   A    
C32   H1    S    
C18   C20   A    
C24   C30   S    
C19   N1    A    
C37   C39   A    
C22   C26   A    
O5    Zn1   S    
