data_mof_unit_65670.cif
_audit_creation_date              2012-12-10T17:06:41-0500
_audit_creation_method            fapswitch 2.2
_symmetry_space_group_name_H-M    P1
_symmetry_Int_Tables_number       1
_space_group_crystal_system       triclinic
_cell_length_a                    14.159647
_cell_length_b                    10.052309
_cell_length_c                    10.040727
_cell_angle_alpha                 90.839881
_cell_angle_beta                  89.149366
_cell_angle_gamma                 89.404673
_cell_volume                      1428.77697544

loop_
_atom_site_label
_atom_site_type_symbol
_atom_type_description
_atom_site_fract_x
_atom_site_fract_y
_atom_site_fract_z
_atom_type_partial_charge
C1    C     C_R   0.518517 0.260280 0.498714 0.795562
C2    C     C_R   0.498855 0.744367 0.501623 0.882938
C3    C     C_R   0.670843 0.501972 0.499095 0.906272
C4    C     C_1   0.227666 0.500261 0.502228 -0.206349
C5    C     C_1   0.142429 0.500578 0.501814 -0.001554
C6    C     C_1   0.042566 0.500988 0.500262 0.014603
C7    C     C_1   0.957355 0.501340 0.498763 0.011937
C8    C     C_1   0.857506 0.501720 0.497505 -0.002513
C9    C     C_3   0.442116 0.991728 0.708863 -0.732304
C10   C     C_3   0.701653 0.984613 0.213206 -0.801523
C11   C     C_3   0.740309 0.538397 0.122622 -0.789659
C12   C     C_1   0.772293 0.501961 0.497466 -0.168490
C13   C     C_2   0.534022 0.961533 0.401812 -0.345062
C14   C     C_2   0.513942 0.889340 0.511657 0.022200
C15   C     C_2   0.608080 0.065686 0.404758 0.234784
C16   C     C_2   0.601210 0.167330 0.493944 0.187938
C17   C     C_2   0.574887 0.497290 0.925689 0.053520
C18   C     C_2   0.572711 0.531563 0.072192 0.268890
C19   C     C_R   0.329164 0.499969 0.500849 0.901513
H1    H     H_    0.520586 0.916459 0.305208 0.177964
H2    H     H_    0.670888 0.062183 0.148546 0.239118
H3    H     H_    0.662777 0.890376 0.200885 0.249237
H4    H     H_    0.663842 0.259121 0.639174 0.349798
H5    H     H_    0.380604 0.577675 0.836827 0.380141
H6    H     H_    0.634241 0.657787 0.211795 0.266912
H7    H     H_    0.792956 0.601972 0.173200 0.246173
H8    H     H_    0.765217 0.520951 0.018533 0.234442
H9    H     H_    0.736215 0.441951 0.174964 0.253664
H10   H     H_    0.642601 0.478282 0.877153 0.090926
H11   H     H_    0.451640 0.439443 0.106079 0.205304
H12   H     H_    0.588137 0.990711 0.663990 0.260150
H13   H     H_    0.458605 0.024599 0.811907 0.240291
H14   H     H_    0.388085 0.912536 0.714250 0.245332
H15   H     H_    0.413074 0.077504 0.653817 0.230232
H16   H     H_    0.753019 0.094904 0.370692 0.279611
H17   H     H_    0.775935 0.965230 0.180794 0.245528
N1    N     N_2   0.500930 0.501330 0.852150 0.041721
N2    N     N_2   0.500950 0.501360 0.147810 -0.190570
N3    N     N_2   0.526864 0.940943 0.643376 -0.293553
N4    N     N_2   0.699346 0.029164 0.350969 -0.267168
N5    N     N_2   0.649215 0.605076 0.125396 -0.305892
O1    O     O_R   0.499990 0.319060 0.613040 -0.601041
O2    O     O_3   0.424443 0.559302 0.909868 -0.716569
O3    O     O_R   0.500010 0.319100 0.386900 -0.595989
O4    O     O_R   0.373700 0.499980 0.613090 -0.604360
O5    O     O_R   0.373730 0.500020 0.386960 -0.575910
O6    O     O_R   0.499990 0.680900 0.613100 -0.562928
O7    O     O_R   0.500010 0.680940 0.386960 -0.622640
O8    O     O_R   0.626270 0.499980 0.613040 -0.618450
O9    O     O_R   0.626300 0.500020 0.386910 -0.601783
O10   O     O_3   0.681716 0.199634 0.563461 -0.808502
Zn1   Zn    Zn3+2 0.499980 0.499970 0.650990 0.960446
Zn2   Zn    Zn3+2 0.500020 0.500030 0.349010 0.935665

loop_
_geom_bond_atom_site_label_1
_geom_bond_atom_site_label_2
_ccdc_geom_bond_type
N1    O2    S    
C19   O4    A    
C6    C7    T    
C2    O6    A    
C17   H10   S    
C1    O3    A    
H4    O10   S    
O4    Zn1   S    
C16   O10   S    
C11   H8    S    
C8    C12   T    
O8    Zn1   S    
C17   C18   S    
C18   N2    D    
C19   O5    A    
C7    C8    S    
C1    C16   S    
C17   N1    D    
C13   C14   D    
C10   H3    S    
C9    H14   S    
O6    Zn1   S    
N2    Zn2   S    
C11   H9    S    
C5    C6    S    
O5    Zn2   S    
C3    O9    A    
H12   N3    S    
C9    H15   S    
C11   N5    S    
C13   C15   S    
C10   H2    S    
C3    O8    A    
O7    Zn2   S    
C2    C14   S    
C15   N4    S    
C9    H13   S    
O9    Zn2   S    
H16   N4    S    
C15   C16   D    
C1    O1    A    
C9    N3    S    
H11   N2    S    
C10   N4    S    
C18   N5    S    
H6    N5    S    
N1    Zn1   S    
H5    O2    S    
C10   H17   S    
C3    C12   S    
C11   H7    S    
C2    O7    A    
C14   N3    S    
C4    C19   S    
O3    Zn2   S    
C13   H1    S    
O1    Zn1   S    
C4    C5    T    
