data_mof_unit_54825.cif
_audit_creation_date              2013-03-05T16:05:15-0500
_audit_creation_method            fapswitch 2.2
_symmetry_space_group_name_H-M    P1
_symmetry_Int_Tables_number       1
_space_group_crystal_system       triclinic
_cell_length_a                    11.528707
_cell_length_b                    14.941088
_cell_length_c                    15.488481
_cell_angle_alpha                 80.863866
_cell_angle_beta                  91.242519
_cell_angle_gamma                 103.253815
_cell_volume                      2563.60568101

loop_
_atom_site_label
_atom_site_type_symbol
_atom_site_description
_atom_site_fract_x
_atom_site_fract_y
_atom_site_fract_z
_atom_type_partial_charge
O1    O     O_R   0.466720 0.383110 0.605620 -0.563902
O2    O     O_R   0.533280 0.616890 0.394380 -0.569340
O3    O     O_R   0.509090 0.531900 0.639510 -0.633376
O4    O     O_R   0.490910 0.468100 0.360490 -0.634066
C1    C     C_R   0.482693 0.441251 0.662121 0.866024
C2    C     C_R   0.515159 0.558715 0.337898 0.864739
O5    O     O_R   0.644370 0.425610 0.483050 -0.556626
O6    O     O_R   0.355630 0.574390 0.516950 -0.543960
O7    O     O_R   0.686740 0.574390 0.516930 -0.621419
O8    O     O_R   0.313260 0.425610 0.483070 -0.633523
C3    C     C_R   0.717672 0.500393 0.500293 0.903151
C4    C     C_R   0.282300 0.499508 0.499884 0.900336
Zn1   Zn    Zn3+2 0.471710 0.400660 0.477370 1.000004
Zn2   Zn    Zn3+2 0.528290 0.599340 0.522630 1.006639
C5    C     C_1   0.838542 0.501008 0.500636 -0.153527
C6    C     C_1   0.161365 0.498638 0.499881 -0.145895
C7    C     C_1   0.940681 0.500331 0.500544 0.007613
C8    C     C_1   0.059169 0.499106 0.500164 0.014511
C9    C     C_R   0.457783 0.406090 0.754760 -0.053811
C10   C     C_R   0.516857 0.594875 0.244661 -0.045722
C11   C     C_R   0.347219 0.294207 0.871264 -0.200245
C12   C     C_R   0.573901 0.717332 0.121182 -0.223833
C13   C     C_R   0.387377 0.317237 0.784414 -0.151454
C14   C     C_R   0.569194 0.687657 0.211252 -0.191487
C15   C     C_R   0.491062 0.469551 0.812542 -0.248281
C16   C     C_R   0.466145 0.533107 0.188278 -0.257080
C17   C     C_R   0.441872 0.451800 0.896543 0.093508
C18   C     C_R   0.471155 0.560515 0.097857 0.094270
C19   C     C_R   0.372825 0.361328 0.927297 0.154520
C20   C     C_R   0.528512 0.653802 0.064234 0.183999
C21   C     C_R   0.462047 0.521446 0.950883 0.075431
C22   C     C_R   0.429483 0.495450 0.040353 0.058563
C23   C     C_R   0.358466 0.405002 0.069242 -0.204420
C24   C     C_R   0.512141 0.616393 0.918378 -0.226367
C25   C     C_R   0.329636 0.339577 0.013083 -0.204816
C26   C     C_R   0.543273 0.681611 0.974358 -0.235405
H1    H     H_    0.274868 0.271241 0.037380 0.162692
H2    H     H_    0.583652 0.753264 0.947363 0.142117
H3    H     H_    0.428768 0.461910 0.216246 0.157208
H4    H     H_    0.554476 0.533872 0.789843 0.151460
H5    H     H_    0.608638 0.736393 0.254399 0.189598
H6    H     H_    0.360700 0.267050 0.740244 0.190072
H7    H     H_    0.293140 0.225194 0.893827 0.147817
H8    H     H_    0.616813 0.788923 0.095953 0.145283
H9    H     H_    0.320622 0.383491 0.134342 0.152783
H10   H     H_    0.526114 0.642723 0.849495 0.146104
N1    N     N_R   0.566020 0.731700 0.552730 -0.183343
N2    N     N_R   0.433980 0.268300 0.447270 -0.182093
C27   C     C_R   0.704317 0.842963 0.621369 0.484389
C28   C     C_R   0.366597 0.179440 0.332718 0.482762
C29   C     C_R   0.658537 0.751536 0.607233 -0.187344
C30   C     C_R   0.376206 0.259587 0.370862 -0.190498
C31   C     C_R   0.515032 0.799340 0.508731 0.439810
C32   C     C_R   0.484949 0.200355 0.490170 0.449676
C33   C     C_R   0.569494 0.894455 0.509973 -0.141895
C34   C     C_R   0.492762 0.123851 0.448654 -0.138099
C35   C     C_R   0.661821 0.915355 0.570474 -0.058093
C36   C     C_R   0.427648 0.111929 0.371262 -0.053329
C37   C     C_R   0.532340 0.969201 0.456082 -0.024088
C38   C     C_R   0.560954 0.058095 0.482207 -0.022057
C39   C     C_R   0.665120 0.081497 0.532098 0.569683
C40   C     C_R   0.479275 0.961358 0.372989 0.567503
C41   C     C_R   0.712592 0.008394 0.577640 -0.268448
C42   C     C_R   0.427273 0.033946 0.331878 -0.263600
H11   H     H_    0.789044 0.022820 0.619022 0.187837
H12   H     H_    0.386126 0.030714 0.268819 0.189023
H13   H     H_    0.340782 0.316801 0.338209 0.164452
H14   H     H_    0.697730 0.695898 0.639020 0.174578
O9    O     O_3   0.723678 0.175688 0.522773 -0.594027
C43   C     C_3   0.824876 0.195677 0.575328 -0.218696
H15   H     H_    0.897388 0.165598 0.554416 0.141616
H16   H     H_    0.801575 0.172259 0.645893 0.175310
H17   H     H_    0.859080 0.272323 0.566219 0.200061
O10   O     O_3   0.499064 0.890687 0.329716 -0.604926
C44   C     C_3   0.425303 0.875832 0.256840 -0.227365
H18   H     H_    0.457321 0.930927 0.199950 0.141240
H19   H     H_    0.329936 0.869921 0.272967 0.180808
H20   H     H_    0.430708 0.808755 0.237438 0.208415
N3    N     N_R   0.515102 0.200800 0.580489 0.219112
O11   O     O_R   0.467786 0.129606 0.638707 -0.428731
O12   O     O_R   0.598082 0.266895 0.603929 -0.350042
N4    N     N_R   0.398477 0.773397 0.473116 0.230950
O13   O     O_R   0.311769 0.805520 0.499262 -0.407051
O14   O     O_R   0.380425 0.724899 0.409517 -0.358779
O15   O     O_3   0.798106 0.862733 0.677921 -0.595943
C45   C     C_3   0.756968 0.827620 0.764584 -0.315656
H21   H     H_    0.737221 0.750218 0.777198 0.156211
H22   H     H_    0.677272 0.852907 0.780143 0.160166
H23   H     H_    0.828435 0.853062 0.809835 0.202810
O16   O     O_3   0.311317 0.171425 0.252849 -0.614466
C46   C     C_3   0.191599 0.177971 0.258493 -0.336543
H24   H     H_    0.185599 0.251565 0.255180 0.156645
H25   H     H_    0.145380 0.134260 0.318456 0.174957
H26   H     H_    0.143566 0.151949 0.201349 0.197212

loop_
_geom_bond_atom_site_label_1
_geom_bond_atom_site_label_2
_geom_bond_distance
_ccdc_geom_bond_type
C41   H11   1.079986 S    
C33   C37   1.426605 A    
C17   C19   1.416465 A    
C23   H9    1.078058 S    
O7    Zn2   1.952785 S    
O15   C45   1.411303 S    
N2    C32   1.363723 A    
C13   H6    1.083011 S    
O1    C1    1.309740 A    
C25   H1    1.084175 S    
C15   H4    1.078592 S    
C45   H22   1.114753 S    
C16   H3    1.075409 S    
C31   N4    1.434249 S    
C27   C35   1.409543 A    
O4    Zn1   1.917631 S    
C39   C41   1.415200 A    
C10   C14   1.398491 A    
C40   C42   1.415408 A    
C11   H7    1.083661 S    
C3    C5    1.391300 S    
C28   O16   1.388758 S    
C12   H8    1.083777 S    
C4    C6    1.391302 S    
C27   C29   1.397089 A    
C28   C30   1.398679 A    
C43   H15   1.111736 S    
C24   H10   1.078918 S    
N1    C31   1.366610 A    
C37   C38   1.414426 A    
C14   H5    1.083114 S    
O2    C2    1.309476 A    
O2    Zn2   1.962263 S    
C35   C41   1.400144 A    
C31   C33   1.418864 A    
C36   C42   1.397494 A    
C32   C34   1.418191 A    
O10   C44   1.413452 S    
C17   C21   1.415602 A    
C28   C36   1.409010 A    
C27   O15   1.384994 S    
C18   C22   1.418220 A    
O4    C2    1.309143 A    
C46   H24   1.110541 S    
N3    O12   1.299161 A    
C45   H21   1.112140 S    
N1    C29   1.354094 A    
C11   C19   1.405548 A    
C45   H23   1.109290 S    
C34   C38   1.423959 A    
C38   C39   1.419352 A    
C42   H12   1.079656 S    
C9    C13   1.400226 A    
C44   H18   1.111177 S    
C46   H25   1.114583 S    
O7    C3    1.300444 A    
O5    C3    1.298437 A    
C21   C22   1.413128 A    
N2    C30   1.355022 A    
O6    C4    1.298788 A    
C43   H17   1.109442 S    
C7    C8    1.370475 S    
C21   C24   1.417597 A    
C44   H19   1.113278 S    
O3    Zn2   1.917633 S    
O8    C4    1.300121 A    
N4    O14   1.298965 A    
C11   C13   1.396140 A    
C12   C14   1.393384 A    
O1    Zn1   1.962263 S    
C32   N3    1.434794 S    
C39   O9    1.400428 S    
C5    C7    1.179920 T    
C37   C40   1.423089 A    
O6    Zn2   1.942049 S    
C12   C20   1.403888 A    
C30   H13   1.080344 S    
O3    C1    1.309448 A    
O8    Zn1   1.952785 S    
Zn1   N2    2.051102 S    
Zn2   N1    2.051100 S    
C1    C9    1.458271 S    
C15   C17   1.392161 A    
C2    C10   1.458192 S    
C19   C25   1.391527 A    
C16   C18   1.393886 A    
C20   C26   1.390526 A    
C22   C23   1.418904 A    
C33   C35   1.416280 A    
C18   C20   1.418793 A    
C46   H26   1.109257 S    
O16   C46   1.411375 S    
C10   C16   1.393748 A    
C26   H2    1.084182 S    
C23   C25   1.389635 A    
C34   C36   1.414057 A    
C24   C26   1.387287 A    
C29   H14   1.081760 S    
O9    C43   1.410377 S    
C9    C15   1.391031 A    
C44   H20   1.106202 S    
N3    O11   1.301073 A    
O5    Zn1   1.942049 S    
C6    C8    1.179923 T    
N4    O13   1.301118 A    
C40   O10   1.399291 S    
C43   H16   1.112336 S    
