data_mof_unit_49243.cif
_audit_creation_date              2012-12-10T17:28:34-0500
_audit_creation_method            fapswitch 2.2
_symmetry_space_group_name_H-M    P1
_symmetry_Int_Tables_number       1
_space_group_crystal_system       triclinic
_cell_length_a                    10.757026
_cell_length_b                    11.964021
_cell_length_c                    12.929366
_cell_angle_alpha                 93.314666
_cell_angle_beta                  90.370864
_cell_angle_gamma                 87.679156
_cell_volume                      1659.81369148

loop_
_atom_site_label
_atom_site_type_symbol
_atom_type_description
_atom_site_fract_x
_atom_site_fract_y
_atom_site_fract_z
_atom_type_partial_charge
C1    C     C_R   0.495614 0.522425 0.700512 0.975615
C2    C     C_R   0.503012 0.477307 0.299301 1.018723
C3    C     C_R   0.506330 0.462175 0.187482 -0.156701
C4    C     C_R   0.490776 0.536808 0.812004 -0.145253
C5    C     C_R   0.449901 0.645302 0.972118 -0.172683
C6    C     C_R   0.548508 0.353689 0.027301 -0.192338
C7    C     C_R   0.452074 0.639039 0.864879 0.376850
C8    C     C_R   0.543130 0.359332 0.134534 0.372558
C9    C     C_R   0.523686 0.442809 0.867018 -0.218536
C10   C     C_R   0.478689 0.557080 0.132211 -0.192059
C11   C     C_R   0.518051 0.448611 0.973274 0.088821
C12   C     C_R   0.482263 0.550702 0.026010 0.082997
C13   C     C_R   0.438895 0.947793 0.373658 -0.230428
C14   C     C_R   0.567608 0.052022 0.624940 -0.287846
C15   C     C_R   0.437586 0.833274 0.389312 0.064725
C16   C     C_R   0.566348 0.167017 0.609740 0.029987
C17   C     C_R   0.520733 0.862039 0.558481 0.009834
C18   C     C_R   0.484061 0.137302 0.440461 0.043770
C19   C     C_R   0.523533 0.978226 0.546408 0.058805
C20   C     C_R   0.481933 0.021302 0.452602 0.084093
C21   C     C_R   0.740956 0.502265 0.500838 0.955071
C22   C     C_R   0.261246 0.495966 0.484578 0.944987
C23   C     C_R   0.911049 0.347443 0.611171 0.414078
C24   C     C_R   0.115796 0.663118 0.363389 0.407801
C25   C     C_R   0.971563 0.242949 0.620265 -0.178991
C26   C     C_R   0.049930 0.762717 0.345199 -0.181521
C27   C     C_R   0.066073 0.207322 0.551434 -0.244006
C28   C     C_R   0.921668 0.767500 0.355952 -0.240074
C29   C     C_R   0.112648 0.282007 0.482525 0.016075
C30   C     C_R   0.862729 0.669844 0.379064 0.002289
C31   C     C_R   0.065356 0.394730 0.488589 -0.035299
C32   C     C_R   0.931120 0.586695 0.433001 -0.022209
C33   C     C_R   0.949158 0.417807 0.533448 -0.019500
C34   C     C_R   0.061088 0.580897 0.420848 0.017362
C35   C     C_R   0.129412 0.487091 0.456405 -0.088228
C36   C     C_R   0.875398 0.506193 0.493799 -0.131957
H1    H     H_    0.869653 0.835909 0.322175 0.201988
H2    H     H_    0.102810 0.121745 0.552306 0.202112
H3    H     H_    0.407687 0.978280 0.300193 0.189067
H4    H     H_    0.601243 0.021451 0.697672 0.174675
H5    H     H_    0.942195 0.187655 0.678033 0.186106
H6    H     H_    0.093657 0.827779 0.305235 0.194387
H7    H     H_    0.455480 0.637533 0.171515 0.219965
H8    H     H_    0.553459 0.363989 0.827364 0.190851
H9    H     H_    0.420724 0.723444 0.013284 0.186612
H10   H     H_    0.577529 0.275455 0.986234 0.184168
H11   H     H_    0.451891 0.171832 0.369287 0.181017
H12   H     H_    0.555941 0.826970 0.628687 0.172822
H13   H     H_    0.598687 0.223796 0.671139 0.171469
H14   H     H_    0.408597 0.777167 0.326654 0.186773
N1    N     N_R   0.523130 0.207800 0.519340 -0.120380
N2    N     N_R   0.476870 0.792200 0.480660 -0.110022
O1    O     O_R   0.506170 0.421700 0.658830 -0.630393
O2    O     O_R   0.493830 0.578300 0.341170 -0.606196
O3    O     O_R   0.491330 0.609310 0.646410 -0.581254
O4    O     O_R   0.508670 0.390690 0.353590 -0.585586
O5    O     O_R   0.690650 0.406190 0.506220 -0.576642
O6    O     O_R   0.309350 0.593810 0.493780 -0.596247
O7    O     O_R   0.675800 0.593810 0.493800 -0.647689
O8    O     O_R   0.324200 0.406190 0.506200 -0.634921
Zn1   Zn    Zn3+2 0.509910 0.374730 0.508290 1.018218
Zn2   Zn    Zn3+2 0.490090 0.625270 0.491710 1.026570
Cl1   Cl    Cl    0.804613 0.393818 0.709095 -0.659289
Cl2   Cl    Cl    0.236401 0.625666 0.277294 -0.664646
C37   C     C_2   0.189889 0.236670 0.393369 0.938453
O9    O     O_2   0.213984 0.135940 0.382317 -0.671421
O10   O     O_R   0.227970 0.307150 0.317943 -0.772921
H15   H     H_    0.277716 0.265576 0.260408 0.356032
C38   C     C_2   0.768987 0.634126 0.301582 0.943591
O11   O     O_2   0.690270 0.701323 0.271054 -0.637918
O12   O     O_R   0.781470 0.526230 0.254409 -0.791991
H16   H     H_    0.736377 0.519393 0.185652 0.344365
Cl3   Cl    Cl    0.592109 0.237428 0.196220 -0.603302
Cl4   Cl    Cl    0.399727 0.759960 0.803006 -0.605232

loop_
_geom_bond_atom_site_label_1
_geom_bond_atom_site_label_2
_ccdc_geom_bond_type
O6    Zn2   S    
C27   C29   A    
C19   C20   A    
N1    Zn1   S    
C17   H12   S    
C18   H11   S    
C21   C36   S    
C22   C35   S    
C32   C36   A    
C24   C26   A    
C21   O7    A    
C22   O8    A    
C27   H2    S    
O3    Zn2   S    
C33   C36   A    
C34   C35   A    
C15   H14   S    
C38   O12   S    
C1    O1    A    
O1    Zn1   S    
C23   C33   A    
C16   N1    A    
C23   Cl1   S    
C24   Cl2   S    
C4    C7    A    
C17   N2    A    
C18   N1    A    
C7    Cl4   S    
O10   H15   S    
C16   H13   S    
C5    C12   A    
C3    C8    A    
C2    O2    A    
C25   H5    S    
C6    C11   A    
C5    C7    A    
C6    C8    A    
O2    Zn2   S    
C37   O10   S    
C5    H9    S    
C24   C34   A    
O8    Zn1   S    
C32   C34   A    
C21   O5    A    
C31   C33   A    
C15   N2    A    
C9    C11   A    
C10   C12   A    
C29   C37   S    
C13   C15   A    
C14   C16   A    
C30   C38   S    
C26   H6    S    
O7    Zn2   S    
C6    H10   S    
C13   C20   A    
C10   H7    S    
C14   C19   A    
C22   O6    A    
C11   C12   A    
O5    Zn1   S    
C25   C27   A    
C26   C28   A    
C1    C4    S    
C28   C30   A    
C2    C3    S    
C1    O3    A    
O12   H16   S    
C29   C31   A    
C3    C10   A    
N2    Zn2   S    
C30   C32   A    
C28   H1    S    
C31   C35   A    
C8    Cl3   S    
C17   C19   A    
C18   C20   A    
C23   C25   A    
C38   O11   D    
C13   H3    S    
C14   H4    S    
C37   O9    D    
O4    Zn1   S    
C2    O4    A    
C4    C9    A    
C9    H8    S    
