data_mof_unit_13093.cif
_audit_creation_date              2013-03-05T16:31:07-0500
_audit_creation_method            fapswitch 2.2
_symmetry_space_group_name_H-M    P1
_symmetry_Int_Tables_number       1
_space_group_crystal_system       triclinic
_cell_length_a                    10.825844
_cell_length_b                    10.84268
_cell_length_c                    9.549839
_cell_angle_alpha                 90.660151
_cell_angle_beta                  89.713217
_cell_angle_gamma                 90.900276
_cell_volume                      1120.74538197

loop_
_atom_site_label
_atom_site_type_symbol
_atom_site_description
_atom_site_fract_x
_atom_site_fract_y
_atom_site_fract_z
_atom_type_partial_charge
O1    O     O_R   0.500000 0.319640 0.618810 -0.597571
O2    O     O_R   0.500010 0.319680 0.381230 -0.549509
C1    C     C_R   0.499676 0.262378 0.499416 0.813003
O3    O     O_R   0.319640 0.499980 0.618820 -0.567165
O4    O     O_R   0.319650 0.500020 0.381230 -0.538144
C2    C     C_R   0.262683 0.511374 0.501560 0.846091
Cu1   Cu    Cu3+1 0.499990 0.499980 0.640670 0.961384
Cu2   Cu    Cu3+1 0.500010 0.500020 0.359330 0.999761
O5    O     O_R   0.499990 0.680320 0.618770 -0.561798
O6    O     O_R   0.500000 0.680360 0.381190 -0.589607
O7    O     O_R   0.680350 0.499980 0.618770 -0.592154
O8    O     O_R   0.680360 0.500020 0.381180 -0.590928
C3    C     C_R   0.500181 0.737659 0.500402 0.810662
C4    C     C_R   0.737689 0.490717 0.499860 0.782524
H1    H     H_    0.112880 0.538707 0.281088 0.184133
C5    C     C_R   0.108398 0.541698 0.769568 0.171904
C6    C     C_R   0.053028 0.489563 0.887996 -0.132928
H2    H     H_    0.089672 0.509304 0.991267 0.166294
C7    C     C_R   0.946816 0.416547 0.874331 -0.187229
H3    H     H_    0.905323 0.374264 0.965695 0.156721
C8    C     C_R   0.887234 0.408423 0.745304 -0.186579
H4    H     H_    0.801578 0.355930 0.739383 0.159316
C9    C     C_R   0.938596 0.467097 0.626671 0.081249
C10   C     C_R   0.060806 0.512648 0.634420 0.054307
C11   C     C_R   0.128187 0.524274 0.506761 -0.114187
C12   C     C_R   0.064587 0.525823 0.379581 -0.147121
H5    H     H_    0.890752 0.520823 0.278907 0.152430
C13   C     C_R   0.937577 0.511466 0.377606 -0.199006
C14   C     C_R   0.872729 0.483440 0.500689 -0.104474
C15   C     C_R   0.464688 0.064695 0.620188 0.126996
C16   C     C_R   0.492569 0.129035 0.497841 -0.110251
C17   C     C_R   0.509911 0.062731 0.372428 -0.146271
H6    H     H_    0.531425 0.109365 0.275780 0.206962
C18   C     C_R   0.508865 0.934461 0.372678 -0.207031
H7    H     H_    0.526572 0.885829 0.275074 0.171458
C19   C     C_R   0.493634 0.870844 0.499222 -0.110301
C20   C     C_R   0.466269 0.937425 0.621081 0.168333
C21   C     C_3   0.527772 0.935409 0.760621 -0.454397
C22   C     C_3   0.523994 0.075034 0.760767 -0.455549
H8    H     H_    0.468266 0.892987 0.842722 0.230957
H9    H     H_    0.623333 0.900101 0.753575 0.188284
H10   H     H_    0.460229 0.113285 0.841140 0.238312
H11   H     H_    0.617129 0.119760 0.757088 0.196137
C23   C     C_R   0.551156 0.596620 0.074735 0.202943
N1    N     N_R   0.500790 0.500930 0.147930 -0.252377
C24   C     C_R   0.435830 0.412110 0.071757 0.395721
C25   C     C_R   0.437277 0.412409 0.923272 -0.125341
H12   H     H_    0.387560 0.341243 0.865420 0.176509
N2    N     N_R   0.500790 0.500890 0.852020 -0.209768
C26   C     C_R   0.550675 0.596969 0.927505 0.273716
C27   C     C_3   0.681172 0.642431 0.921788 -0.486066
C28   C     C_3   0.681815 0.640953 0.080485 -0.488764
H13   H     H_    0.744307 0.574655 0.873951 0.229799
H14   H     H_    0.689900 0.736669 0.879042 0.193805
H15   H     H_    0.744468 0.570647 0.122319 0.206299
H16   H     H_    0.690789 0.734331 0.128967 0.200004
N3    N     N_R   0.365948 0.316617 0.138842 0.139687
O9    O     O_R   0.256704 0.341742 0.187339 -0.364544
O10   O     O_R   0.388737 0.202700 0.104875 -0.421722
I1    I     I_    0.224820 0.698413 0.809260 -0.394917

loop_
_geom_bond_atom_site_label_1
_geom_bond_atom_site_label_2
_geom_bond_distance
_ccdc_geom_bond_type
O4    Cu2   1.962677 S    
C1    C16   1.446533 S    
C9    C10   1.406915 A    
C20   C21   1.493183 S    
C25   N2    1.358601 A    
C27   H13   1.104899 S    
Cu1   O7    1.962677 S    
C16   C17   1.403090 A    
C28   H15   1.107584 S    
Cu2   O8    1.964599 S    
C27   H14   1.107167 S    
C17   H6    1.080138 S    
C23   C28   1.487846 S    
C7    H3    1.082621 S    
C6    H2    1.082685 S    
Cu1   Cu2   2.686756 S    
C5    C10   1.422183 A    
C24   C25   1.418058 A    
C8    H4    1.081767 S    
C10   C11   1.423387 A    
C21   H8    1.111421 S    
N3    O9    1.299666 A    
O4    C2    1.306918 A    
C21   H9    1.110183 S    
O3    Cu1   1.964597 S    
O1    Cu1   1.964090 S    
C9    C14   1.415910 A    
O3    C2    1.289158 A    
C19   C20   1.395393 A    
C7    C8    1.394901 A    
O8    C4    1.300592 A    
C15   C22   1.493321 S    
O2    C1    1.294585 A    
C22   H10   1.110858 S    
C18   C19   1.406064 A    
C8    C9    1.413019 A    
C24   N3    1.428519 S    
C15   C16   1.396987 A    
O7    C4    1.295075 A    
N3    O10   1.300484 A    
C2    C11   1.465466 S    
C4    C14   1.465348 S    
C27   C28   1.515848 S    
C25   H12   1.081867 S    
Cu1   O5    1.968916 S    
C21   C22   1.515093 S    
C23   N1    1.362902 A    
Cu1   N2    2.018331 S    
C3    C19   1.447116 S    
Cu2   O6    1.964090 S    
C18   H7    1.083360 S    
C5    I1    2.131244 S    
C23   C26   1.406108 A    
H5    C13   1.079016 S    
N2    C26   1.365821 A    
O5    C3    1.296324 A    
Cu2   N1    2.018948 S    
C13   C14   1.400028 A    
H1    C12   1.083229 S    
C22   H11   1.112511 S    
C26   C27   1.489892 S    
C6    C7    1.391568 A    
C11   C12   1.399524 A    
N1    C24   1.385229 A    
C12   C13   1.381540 A    
O2    Cu2   1.968917 S    
C28   H16   1.111508 S    
C15   C20   1.380440 A    
C5    C6    1.398304 A    
O1    C1    1.291977 A    
O6    C3    1.290635 A    
C17   C18   1.390687 A    
