data_mof_unit_55841.cif
_audit_creation_date              2012-12-10T17:37:20-0500
_audit_creation_method            fapswitch 2.2
_symmetry_space_group_name_H-M    P1
_symmetry_Int_Tables_number       1
_space_group_crystal_system       triclinic
_cell_length_a                    12.332012
_cell_length_b                    13.515521
_cell_length_c                    15.842534
_cell_angle_alpha                 77.157398
_cell_angle_beta                  100.974136
_cell_angle_gamma                 116.416935
_cell_volume                      2292.96349026

loop_
_atom_site_label
_atom_site_type_symbol
_atom_type_description
_atom_site_fract_x
_atom_site_fract_y
_atom_site_fract_z
_atom_type_partial_charge
C1    C     C_R   0.854356 0.287008 0.512314 0.793918
C2    C     C_R   0.230806 0.830421 0.482027 -0.150253
C3    C     C_R   0.823631 0.094476 0.505510 -0.270521
C4    C     C_R   0.999679 0.499922 0.659887 0.796555
C5    C     C_R   0.749586 0.986322 0.488329 0.442602
C6    C     C_R   0.623360 0.949463 0.476183 -0.187872
C7    C     C_R   0.568189 0.014541 0.492202 0.011804
C8    C     C_R   0.644295 0.123307 0.511610 0.075503
C9    C     C_R   0.439349 0.975983 0.488883 0.000928
C10   C     C_R   0.390348 0.053675 0.486650 0.096705
C11   C     C_R   0.466409 0.157870 0.509480 -0.180965
C12   C     C_3   0.000433 0.500855 0.917052 0.091712
C13   C     C_R   0.589500 0.185748 0.530485 -0.165144
C14   C     C_R   0.358330 0.861932 0.497057 0.429418
C15   C     C_R   0.185852 0.912178 0.464750 -0.226675
C16   C     C_R   0.145686 0.711960 0.488282 0.834702
C17   C     C_R   0.772773 0.166158 0.513163 -0.153537
C18   C     C_R   0.350065 0.337931 0.642311 -0.292166
C19   C     C_R   0.755986 0.634177 0.376672 0.121375
C20   C     C_R   0.651253 0.647558 0.338772 -0.188163
C21   C     C_R   0.542008 0.586764 0.377023 0.401674
C22   C     C_R   0.544152 0.525128 0.463056 -0.104117
C23   C     C_3   0.104899 0.583865 0.027417 -0.189485
C24   C     C_R   0.653204 0.509911 0.496541 0.273487
C25   C     C_R   0.444200 0.473341 0.516378 -0.004431
C26   C     C_R   0.449454 0.397349 0.593295 0.146054
C27   C     C_R   0.554590 0.382265 0.622101 -0.283254
C28   C     C_R   0.000593 0.500400 0.340120 0.831886
C29   C     C_R   0.654091 0.438706 0.575465 -0.149147
C30   C     C_R   0.341999 0.497985 0.501153 0.165454
C31   C     C_R   0.247136 0.358074 0.617777 0.061209
C32   C     C_3   0.994453 0.401948 0.045665 -0.210012
C33   C     C_3   0.897408 0.417579 0.972457 -0.202378
C34   C     C_3   0.002157 0.500797 0.083145 0.052823
C35   C     C_1   0.999465 0.500329 0.749595 -0.155014
C36   C     C_1   0.001537 0.500612 0.250462 -0.106604
C37   C     C_3   0.097358 0.484979 0.988608 -0.112742
C38   C     C_3   0.422933 0.768648 0.619000 -0.246245
C39   C     C_3   0.008138 0.599986 0.954140 -0.206186
C40   C     C_3   0.906916 0.516400 0.011076 0.491794
C41   C     C_1   0.999766 0.500631 0.825235 -0.008292
C42   C     C_1   0.002201 0.500727 0.174925 0.045248
C43   C     C_R   0.264906 0.022692 0.470658 -0.181040
Cu1   Cu    Cu3+1 0.098270 0.475420 0.519690 0.984393
Cu2   Cu    Cu3+1 0.901730 0.524580 0.480310 0.989932
H1    H     H_    0.811723 0.350101 0.948801 0.169696
H2    H     H_    0.989288 0.320996 0.084410 0.174609
H3    H     H_    0.653501 0.699010 0.275502 0.201157
H4    H     H_    0.726617 0.415932 0.600885 0.184657
H5    H     H_    0.012480 0.680792 0.915600 0.178589
H6    H     H_    0.190089 0.651655 0.051284 0.191842
H7    H     H_    0.176183 0.471986 0.977912 0.165359
H8    H     H_    0.089019 0.889598 0.452205 0.229786
H9    H     H_    0.429242 0.213608 0.517965 0.162414
H10   H     H_    0.227917 0.083357 0.465384 0.158393
H11   H     H_    0.452917 0.700214 0.642859 0.202641
H12   H     H_    0.921388 0.124321 0.508951 0.177488
H13   H     H_    0.338044 0.744925 0.648599 0.152408
H14   H     H_    0.496269 0.845950 0.641379 0.158918
H15   H     H_    0.007592 0.995989 0.511670 0.329503
H16   H     H_    0.225885 0.443395 0.283620 0.376190
H17   H     H_    0.630281 0.561162 0.942992 0.381234
H18   H     H_    0.570471 0.870778 0.452540 0.230645
H19   H     H_    0.641146 0.253517 0.565014 0.150871
H20   H     H_    0.169445 0.313099 0.654874 0.138100
H21   H     H_    0.559949 0.325003 0.681100 0.159896
H22   H     H_    0.352639 0.277443 0.699592 0.154764
H23   H     H_    0.338374 0.566793 0.453647 0.206488
H24   H     H_    0.837005 0.676332 0.342963 0.158898
N1    N     N_R   0.246280 0.438200 0.549540 -0.209796
N2    N     N_R   0.754330 0.561180 0.450980 -0.212350
O1    O     O_R   0.972510 0.318130 0.524770 -0.587520
O2    O     O_2   0.730309 0.777916 0.508085 -0.278179
O3    O     O_2   0.837247 0.911651 0.386922 -0.319234
O4    O     O_3   0.947944 0.927962 0.543949 -0.518532
O5    O     O_2   0.371738 0.663291 0.307408 -0.310184
O6    O     O_2   0.433888 0.581845 0.213129 -0.271135
O7    O     O_3   0.293301 0.445884 0.329745 -0.552017
O8    O     O_2   0.701015 0.438609 0.086466 -0.273302
O9    O     O_2   0.824163 0.641800 0.065956 -0.279496
O10   O     O_3   0.699204 0.550265 0.929748 -0.527674
O11   O     O_R   0.806530 0.359650 0.491510 -0.597395
O12   O     O_R   0.082970 0.479240 0.637550 -0.588578
O13   O     O_R   0.916990 0.520750 0.604290 -0.584792
O14   O     O_R   0.193470 0.640350 0.508490 -0.538595
O15   O     O_R   0.027490 0.681870 0.475230 -0.575489
O16   O     O_R   0.083010 0.479250 0.395710 -0.559712
O17   O     O_R   0.917030 0.520760 0.362450 -0.576392
O18   O     O_3   0.402709 0.781178 0.527236 -0.584413
S1    S     S_3+6 0.815284 0.897378 0.479888 -0.007411
S2    S     S_3+6 0.408148 0.571795 0.304466 -0.020226
S3    S     S_3+6 0.779760 0.537287 0.026562 0.012947

loop_
_geom_bond_atom_site_label_1
_geom_bond_atom_site_label_2
_ccdc_geom_bond_type
C8    C13   A    
Cu2   N2    S    
C36   C42   T    
Cu2   O11   S    
C18   C26   A    
Cu1   O12   S    
C7    C8    A    
C29   H4    S    
C4    O12   A    
C38   O18   S    
C26   C27   A    
C34   C40   S    
C15   H8    S    
O2    S1    D    
C5    C6    A    
C27   C29   A    
C31   H20   S    
C12   C37   S    
C24   C29   A    
O4    S1    S    
C38   H13   S    
O10   S3    S    
C19   N2    A    
C31   N1    A    
C19   C20   A    
C22   C25   A    
C34   C42   S    
C28   O17   A    
Cu1   N1    S    
Cu1   O16   S    
C2    C16   S    
C9    C10   A    
C5    S1    S    
C4    C35   S    
C21   C22   A    
C16   O15   A    
C33   H1    S    
C2    C14   A    
C30   N1    A    
C33   C40   S    
C1    O1    A    
Cu2   O17   S    
C18   H22   S    
C39   C40   S    
C37   H7    S    
C25   C26   A    
C23   C37   S    
C32   C34   S    
C6    H18   S    
O9    S3    D    
C9    C14   A    
C14   O18   S    
C12   C41   S    
C23   H6    S    
C4    O13   A    
H16   O7    S    
C23   C34   S    
C28   O16   A    
C32   C37   S    
C40   S3    S    
C2    C15   A    
O8    S3    D    
C20   H3    S    
C11   H9    S    
C3    H12   S    
C43   H10   S    
H17   O10   S    
C16   O14   A    
Cu1   O1    S    
C32   H2    S    
C22   C24   A    
C19   H24   S    
Cu2   O13   S    
Cu1   O14   S    
Cu1   Cu2   S    
C21   S2    S    
C25   C30   A    
C7    C9    A    
O6    S2    D    
C10   C43   A    
C3    C5    A    
C6    C7    A    
O7    S2    S    
H15   O4    S    
C1    C17   S    
C8    C17   A    
C32   C33   S    
O3    S1    D    
C12   C39   S    
Cu2   O15   S    
C1    O11   A    
C15   C43   A    
C27   H21   S    
C11   C13   A    
C13   H19   S    
C23   C39   S    
C3    C17   A    
C35   C41   T    
C10   C11   A    
O5    S2    D    
C38   H14   S    
C39   H5    S    
C38   H11   S    
C20   C21   A    
C28   C36   S    
C18   C31   A    
C12   C33   S    
C30   H23   S    
C24   N2    A    
