data_mof_unit_28666.cif
_audit_creation_date              2012-12-10T18:59:58-0500
_audit_creation_method            fapswitch 2.2
_symmetry_space_group_name_H-M    P1
_symmetry_Int_Tables_number       1
_space_group_crystal_system       triclinic
_cell_length_a                    10.701318
_cell_length_b                    10.702798
_cell_length_c                    9.824021
_cell_angle_alpha                 90.076801
_cell_angle_beta                  89.803807
_cell_angle_gamma                 90.395966
_cell_volume                      1125.15042064

loop_
_atom_site_label
_atom_site_type_symbol
_atom_type_description
_atom_site_fract_x
_atom_site_fract_y
_atom_site_fract_z
_atom_type_partial_charge
C1    C     C_R   0.499949 0.259851 0.499899 0.864781
C2    C     C_R   0.500047 0.740149 0.500100 0.864782
C3    C     C_R   0.872403 0.493655 0.500014 -0.105906
C4    C     C_R   0.127596 0.506347 0.499986 -0.105902
C5    C     C_R   0.937906 0.438816 0.608504 0.061714
C6    C     C_R   0.062093 0.561185 0.391496 0.061712
C7    C     C_R   0.531155 0.064023 0.380337 -0.203727
C8    C     C_R   0.468822 0.935977 0.619662 -0.203724
C9    C     C_R   0.531336 0.936056 0.380491 -0.210414
C10   C     C_R   0.468640 0.063944 0.619509 -0.210413
C11   C     C_R   0.500086 0.872548 0.500118 -0.005675
C12   C     C_R   0.499898 0.127452 0.499882 -0.005676
C13   C     C_R   0.570758 0.584515 0.071837 -0.071969
C14   C     C_R   0.429243 0.415484 0.928163 -0.071982
C15   C     C_R   0.570714 0.584491 0.927831 -0.067647
C16   C     C_R   0.429287 0.415508 0.072169 -0.067653
C17   C     C_R   0.260083 0.503495 0.500016 0.882439
C18   C     C_R   0.739917 0.496505 0.499984 0.882440
C19   C     C_R   0.250007 0.803917 0.197405 -0.109665
C20   C     C_R   0.749983 0.196068 0.802562 -0.109656
C21   C     C_R   0.186761 0.742650 0.303028 -0.211812
C22   C     C_R   0.813227 0.257347 0.696947 -0.211785
C23   C     C_R   0.124190 0.629119 0.278172 -0.017681
C24   C     C_R   0.875810 0.370871 0.721821 -0.017685
C25   C     C_R   0.125575 0.577841 0.146316 0.692739
C26   C     C_R   0.874436 0.422131 0.853690 0.692706
C27   C     C_R   0.189095 0.639536 0.041088 -0.155368
C28   C     C_R   0.810915 0.360425 0.958910 -0.155387
C29   C     C_R   0.251406 0.752287 0.066653 -0.229527
C30   C     C_R   0.748594 0.247680 0.933326 -0.229523
C31   C     C_R   0.933908 0.553114 0.392323 -0.187895
C32   C     C_R   0.066091 0.446890 0.607678 -0.187891
H1    H     H_    0.301140 0.799396 0.985233 0.151841
H2    H     H_    0.698860 0.200561 0.014741 0.151838
H3    H     H_    0.627481 0.651757 0.873018 0.146991
H4    H     H_    0.372520 0.348242 0.126982 0.146998
H5    H     H_    0.298395 0.891162 0.217046 0.151209
H6    H     H_    0.701587 0.108827 0.782907 0.151207
H7    H     H_    0.187521 0.782809 0.404291 0.143591
H8    H     H_    0.812459 0.217202 0.595674 0.143578
H9    H     H_    0.191185 0.599320 0.939931 0.184827
H10   H     H_    0.808833 0.400626 0.060076 0.184833
H11   H     H_    0.556303 0.112937 0.287567 0.152050
H12   H     H_    0.443673 0.887063 0.712433 0.152047
H13   H     H_    0.556481 0.887191 0.287762 0.151890
H14   H     H_    0.443492 0.112809 0.712237 0.151887
H15   H     H_    0.627457 0.651880 0.126374 0.129934
H16   H     H_    0.372545 0.348119 0.873626 0.129936
N1    N     N_R   0.499970 0.499970 0.857200 -0.085536
N2    N     N_R   0.500030 0.500030 0.142800 -0.085537
O1    O     O_R   0.499990 0.316750 0.614620 -0.624538
O2    O     O_R   0.500010 0.683250 0.385380 -0.624541
O3    O     O_R   0.499990 0.316780 0.385290 -0.630993
O4    O     O_R   0.500010 0.683220 0.614710 -0.630994
O5    O     O_R   0.316760 0.500000 0.614660 -0.627869
O6    O     O_R   0.683240 0.500000 0.385340 -0.627865
O7    O     O_R   0.316760 0.500020 0.385330 -0.605496
O8    O     O_R   0.683240 0.499980 0.614670 -0.605494
Zn1   Zn    Zn3+2 0.500000 0.499980 0.653120 0.952300
Zn2   Zn    Zn3+2 0.500000 0.500020 0.346880 0.952302
F1    F     F_    0.069092 0.466352 0.121047 -0.678633
F2    F     F_    0.930928 0.533613 0.878977 -0.678631
H17   H     H_    0.881952 0.596831 0.310712 0.164059
H18   H     H_    0.118047 0.403170 0.689288 0.164060

loop_
_geom_bond_atom_site_label_1
_geom_bond_atom_site_label_2
_ccdc_geom_bond_type
C10   H14   S    
C14   H16   S    
C9    H13   S    
C14   C16   A    
C7    H11   S    
C27   C29   A    
C20   H6    S    
C19   H5    S    
C17   O5    A    
C26   C28   A    
C21   H7    S    
C18   O6    A    
N1    Zn1   S    
C5    C32   A    
N2    Zn2   S    
C7    C9    A    
C28   C30   A    
C6    C31   A    
C26   F2    S    
C22   H8    S    
C20   C30   A    
C16   H4    S    
C15   N1    A    
C3    C31   A    
C9    C11   A    
C8    H12   S    
C4    C32   A    
C1    C12   S    
C2    O2    A    
C3    C18   S    
C8    C11   A    
C6    C23   S    
C10   C12   A    
C28   H10   S    
C19   C21   A    
O3    Zn2   S    
C20   C22   A    
O5    Zn1   S    
O4    Zn1   S    
C13   C15   A    
C21   C23   A    
C7    C12   A    
C16   N2    A    
C22   C24   A    
C14   N1    A    
O1    Zn1   S    
C30   H2    S    
C13   N2    A    
C19   C29   A    
C31   H17   S    
C23   C25   A    
C32   H18   S    
C2    C11   S    
C4    C6    A    
C2    O4    A    
C15   H3    S    
C13   H15   S    
C1    O3    A    
C5    C24   S    
O7    Zn2   S    
C25   F1    S    
C1    O1    A    
O2    Zn2   S    
O8    Zn1   S    
C17   O7    A    
C18   O8    A    
C8    C10   A    
O6    Zn2   S    
C29   H1    S    
C24   C26   A    
C27   H9    S    
C3    C5    A    
C25   C27   A    
C4    C17   S    
