data_mof_unit_60514.cif
_audit_creation_date              2012-12-11T15:02:39-0500
_audit_creation_method            fapswitch 2.2
_symmetry_space_group_name_H-M    P1
_symmetry_Int_Tables_number       1
_space_group_crystal_system       triclinic
_cell_length_a                    13.280284
_cell_length_b                    13.222168
_cell_length_c                    26.789925
_cell_angle_alpha                 96.292585
_cell_angle_beta                  97.166698
_cell_angle_gamma                 61.23105
_cell_volume                      4084.64494346

loop_
_atom_site_label
_atom_site_type_symbol
_atom_type_description
_atom_site_fract_x
_atom_site_fract_y
_atom_site_fract_z
_atom_type_partial_charge
C1    C     C_R   0.378115 0.724377 0.435155 0.551250
C2    C     C_3   0.839655 0.316682 0.195546 -0.071787
C3    C     C_3   0.788257 0.439072 0.260578 0.236538
C4    C     C_R   0.394006 0.372961 0.418143 0.555668
C5    C     C_3   0.804968 0.340966 0.292435 -0.006477
C6    C     C_3   0.724861 0.397523 0.218042 0.129689
C7    C     C_3   0.739143 0.300418 0.250274 0.249246
C8    C     C_1   0.863371 0.304694 0.143428 0.006116
C9    C     C_1   0.787690 0.354546 0.345587 0.126450
C10   C     C_3   0.387205 0.883906 0.267732 0.112989
C11   C     C_3   0.454158 0.778851 0.231583 -0.104252
C12   C     C_1   0.314520 0.316235 0.271675 0.086321
C13   C     C_1   0.311371 0.877367 0.099368 0.024316
C14   C     C_1   0.358928 0.775632 0.388629 0.067202
C15   C     C_3   0.278680 0.928943 0.230745 0.251031
C16   C     C_R   0.723348 0.400031 0.436817 0.549490
C17   C     C_3   0.344041 0.823334 0.194410 -0.051904
C18   C     C_3   0.234304 0.859030 0.255426 0.233744
C19   C     C_3   0.342930 0.815961 0.292729 0.019429
C20   C     C_3   0.299603 0.754549 0.219281 0.119919
C21   C     C_3   0.407889 0.709971 0.256593 0.252477
C22   C     C_1   0.333062 0.843377 0.141095 -0.000753
C23   C     C_1   0.333381 0.334596 0.323867 0.031665
C24   C     C_1   0.348316 0.802598 0.346311 0.084587
C25   C     C_3   0.383834 0.235325 0.726853 0.236464
C26   C     C_3   0.427712 0.295863 0.769876 0.254877
C27   C     C_1   0.295981 0.312378 0.888334 0.038920
C28   C     C_R   0.381816 0.724273 0.575554 0.549013
C29   C     C_1   0.363031 0.357536 0.603267 0.052243
C30   C     C_3   0.269709 0.282697 0.751542 0.091085
C31   C     C_3   0.313855 0.342820 0.794723 -0.034247
C32   C     C_3   0.216234 0.392993 0.722241 0.095084
C33   C     C_3   0.329812 0.345830 0.697151 -0.036459
C34   C     C_1   0.356323 0.351303 0.367766 0.044607
C35   C     C_3   0.260132 0.453594 0.765175 0.237859
C36   C     C_3   0.374433 0.406064 0.740043 0.247038
C37   C     C_1   0.305121 0.332288 0.847151 0.053615
C38   C     C_1   0.343683 0.349608 0.644654 0.051561
C39   C     C_1   0.949472 0.270589 0.859207 0.017707
C40   C     C_R   0.395747 0.375153 0.557926 0.548223
C41   C     C_1   0.921444 0.281381 0.814820 -0.009661
C42   C     C_1   0.889668 0.297145 0.762968 0.030026
C43   C     C_1   0.861113 0.314355 0.718989 0.023604
C44   C     C_1   0.823350 0.339546 0.668180 -0.018598
C45   C     C_3   0.920531 0.259130 0.270381 0.261537
C46   C     C_1   0.784022 0.365706 0.625758 0.015568
C47   C     C_1   0.291766 0.895494 0.862851 0.034481
C48   C     C_1   0.311146 0.868359 0.819193 0.025078
C49   C     C_1   0.329110 0.844704 0.767327 0.075601
C50   C     C_1   0.341927 0.826237 0.722821 0.069859
C51   C     C_1   0.355420 0.801490 0.670620 0.016004
C52   C     C_R   0.725810 0.402498 0.577256 0.549263
C53   C     C_1   0.366927 0.772720 0.626479 0.032216
C54   C     C_R   0.941520 0.278234 0.056148 0.560918
C55   C     C_R   0.267337 0.240505 0.076390 0.564534
C56   C     C_3   0.855261 0.219804 0.227758 0.115417
C57   C     C_R   0.271815 0.935347 0.053476 0.550126
C58   C     C_R   0.986525 0.259690 0.911778 0.549987
C59   C     C_R   0.281502 0.275106 0.933305 0.545774
C60   C     C_R   0.262096 0.941774 0.913147 0.540996
C61   C     C_1   0.280716 0.264327 0.129398 0.026553
C62   C     C_1   0.290759 0.281956 0.174237 0.017907
C63   C     C_1   0.302584 0.300750 0.226791 0.082510
C64   C     C_3   0.819244 0.080089 0.170824 -0.254451
C65   C     C_3   0.229683 0.612073 0.216859 -0.232713
C66   C     C_3   0.005600 0.491736 0.722988 -0.244004
C67   C     C_1   0.892278 0.293744 0.101960 0.029644
C68   C     C_3   0.177677 0.164114 0.716772 -0.268587
C69   C     C_3   0.569236 0.421864 0.152514 -0.250283
C70   C     C_3   0.491098 0.994062 0.267396 -0.240088
C71   C     C_1   0.765781 0.370634 0.388558 0.089264
C72   C     C_3   0.903891 0.357051 0.238298 0.251894
Cl1   Cl    Cl    0.094247 0.903381 0.273965 -0.508115
Cl2   Cl    Cl    0.011551 0.395961 0.230022 -0.489455
Cl3   Cl    Cl    0.488139 0.569926 0.280739 -0.538873
Cl4   Cl    Cl    0.197723 0.073240 0.210910 -0.561779
Cl5   Cl    Cl    0.567951 0.233434 0.802236 -0.441800
Cl6   Cl    Cl    0.469250 0.091952 0.701582 -0.523123
Cl7   Cl    Cl    0.445327 0.487495 0.731496 -0.494957
Cl8   Cl    Cl    0.185530 0.597198 0.792182 -0.525366
Cl9   Cl    Cl    0.046540 0.174232 0.309573 -0.444029
Cl10  Cl    Cl    0.632022 0.264269 0.263341 -0.586989
Cl11  Cl    Cl    0.746022 0.584470 0.283471 -0.499383
Cr1   Cr    Cr6+3 0.585520 0.589730 0.508860 1.085743
Cr2   Cr    Cr6+3 0.329140 0.580910 0.495080 1.084169
Cr3   Cr    Cr6+3 0.585350 0.329380 0.496090 1.088774
Cr4   Cr    Cr6+3 0.077110 0.074680 0.982320 1.069416
Cr5   Cr    Cr6+3 0.079190 0.334150 0.996330 1.059773
Cr6   Cr    Cr6+3 0.334370 0.081620 0.994860 1.049740
H1    H     H_    0.543067 0.746061 0.220845 0.175483
H2    H     H_    0.099423 0.393658 0.662554 0.248846
H3    H     H_    0.925621 0.523347 0.697198 0.154153
H4    H     H_    0.001393 0.565907 0.748000 0.227786
H5    H     H_    0.009226 0.425196 0.745996 0.132612
H6    H     H_    0.153781 0.255126 0.786545 0.240079
H7    H     H_    0.149849 0.104414 0.728909 0.146152
H8    H     H_    0.248920 0.113765 0.692130 0.207670
H9    H     H_    0.103756 0.231811 0.695102 0.130630
H10   H     H_    0.631433 0.538864 0.173859 0.263052
H11   H     H_    0.628391 0.369200 0.123072 0.120211
H12   H     H_    0.978476 0.063968 0.198238 0.321698
H13   H     H_    0.488965 0.490091 0.134152 0.161993
H14   H     H_    0.545700 0.366675 0.171439 0.210658
H15   H     H_    0.372144 0.021039 0.317864 0.292745
H16   H     H_    0.520917 0.048936 0.292311 0.177805
H17   H     H_    0.432670 0.045376 0.235841 0.176448
H18   H     H_    0.567753 0.918712 0.252215 0.181112
H19   H     H_    0.858251 0.986204 0.160013 0.164455
H20   H     H_    0.805532 0.127255 0.136698 0.121651
H21   H     H_    0.735136 0.106847 0.185506 0.206246
H22   H     H_    0.183385 0.735841 0.164776 0.269640
H23   H     H_    0.182980 0.574018 0.191031 0.153708
H24   H     H_    0.176246 0.660934 0.248572 0.209787
H25   H     H_    0.311841 0.539697 0.231248 0.212349
N1    N     N_2   0.895583 0.100980 0.208838 -0.407369
N2    N     N_2   0.251790 0.686890 0.189567 -0.501551
N3    N     N_2   0.104675 0.444240 0.693837 -0.484156
N4    N     N_2   0.214811 0.215315 0.760726 -0.488966
N5    N     N_2   0.622109 0.475372 0.188655 -0.428522
N6    N     N_2   0.431762 0.955623 0.296018 -0.476102
O1    O     O_R   0.700650 0.499560 0.456090 -0.489445
O2    O     O_R   0.362310 0.174000 0.055490 -0.505375
O3    O     O_R   0.326800 0.983030 0.039600 -0.505977
O4    O     O_R   0.479220 0.682850 0.457510 -0.485781
O5    O     O_R   0.165220 0.960770 0.926060 -0.492781
O6    O     O_R   0.978660 0.179890 0.932950 -0.471140
O7    O     O_R   0.960490 0.356500 0.937600 -0.489958
O8    O     O_R   0.182720 0.328380 0.950570 -0.510019
O9    O     O_R   0.356860 0.175610 0.946640 -0.484354
O10   O     O_R   0.321740 0.984530 0.938700 -0.494694
O11   O     O_3   0.163560 0.163490 0.991170 -0.307478
O12   O     O_R   0.338920 0.475010 0.540740 -0.493377
O13   O     O_R   0.304230 0.696360 0.445090 -0.489526
O14   O     O_R   0.337790 0.472640 0.439840 -0.488076
O15   O     O_R   0.493310 0.300190 0.435520 -0.491557
O16   O     O_R   0.681220 0.340950 0.451270 -0.488438
O17   O     O_R   0.701870 0.502110 0.564940 -0.500692
O18   O     O_R   0.480360 0.685220 0.558410 -0.488582
O19   O     O_R   0.305450 0.698920 0.553940 -0.495988
O20   O     O_R   0.494530 0.302750 0.544370 -0.490390
O21   O     O_R   0.682350 0.343320 0.552170 -0.486612
O22   O     O_3   0.500010 0.500010 0.500010 -0.271263
O23   O     O_R   0.170670 0.959150 0.034900 -0.494970
O24   O     O_R   0.983710 0.178390 0.033850 -0.491157
O25   O     O_R   0.965940 0.354890 0.046440 -0.492870
O26   O     O_R   0.187770 0.326880 0.051460 -0.484470

loop_
_geom_bond_atom_site_label_1
_geom_bond_atom_site_label_2
_ccdc_geom_bond_type
C15   C18   S    
C54   O24   A    
C65   H25   S    
C35   C36   S    
C32   N3    S    
C43   C44   S    
C3    C6    S    
H15   N6    S    
C33   C36   S    
C54   O25   A    
C39   C41   T    
C69   H13   S    
C28   O19   A    
C12   C23   S    
C68   H7    S    
C4    O14   A    
C60   O5    A    
C19   C21   S    
Cr5   O7    S    
C10   C15   S    
Cr2   O12   S    
C30   C31   S    
C1    O13   A    
C13   C57   S    
Cr6   O2    S    
Cr4   O11   S    
C46   C52   S    
C35   Cl8   S    
C17   C20   S    
Cr6   O9    S    
C18   C19   S    
C41   C42   S    
C14   C24   T    
C68   H8    S    
C68   N4    S    
C47   C60   S    
C59   O9    A    
C45   C56   S    
C70   N6    S    
C66   N3    S    
C29   C38   T    
Cr5   O25   S    
H2    N3    S    
H22   N2    S    
C17   C22   S    
Cr4   O24   S    
C52   O17   A    
Cr2   O19   S    
C18   C20   S    
Cr3   O20   S    
Cr2   O14   S    
C66   H5    S    
C15   Cl4   S    
C40   O12   A    
C55   O2    A    
Cr1   O18   S    
C58   O7    A    
C64   N1    S    
C45   C72   S    
C2    C6    S    
C16   C71   S    
C7    C56   S    
C2    C72   S    
C44   C46   T    
C64   H19   S    
C69   H14   S    
H6    N4    S    
C4    C34   S    
C26   Cl5   S    
C57   O23   A    
C25   Cl6   S    
C32   C35   S    
C28   O18   A    
C72   Cl2   S    
C70   H17   S    
C60   O10   A    
C5    C7    S    
C12   C63   T    
C55   O26   A    
C66   H3    S    
C54   C67   S    
Cr6   O3    S    
C25   C26   S    
C39   C58   S    
C5    C45   S    
C69   N5    S    
Cr6   O10   S    
C31   C37   S    
C51   C53   T    
C16   O1    A    
C65   H23   S    
C5    C9    S    
C62   C63   S    
C57   O3    A    
C64   H21   S    
C47   C48   T    
Cr1   O22   S    
C10   C19   S    
C23   C34   T    
C50   C51   S    
C66   H4    S    
C26   C36   S    
C48   C49   S    
Cr1   O17   S    
C58   O6    A    
C18   Cl1   S    
C4    O15   A    
C3    Cl11  S    
H12   N1    S    
C65   N2    S    
C31   C35   S    
C42   C43   T    
C55   C61   S    
C16   O16   A    
C6    N5    S    
Cr4   O5    S    
Cr3   O22   S    
C20   N2    S    
Cr3   O16   S    
C25   C30   S    
C15   C17   S    
C11   C17   S    
C65   H24   S    
C2    C8    S    
C9    C71   T    
C3    C5    S    
C36   Cl7   S    
Cr6   O11   S    
Cr2   O22   S    
C28   C53   S    
C6    C7    S    
Cr1   O4    S    
C30   N4    S    
C21   Cl3   S    
C52   O21   A    
C70   H16   S    
C70   H18   S    
C32   C33   S    
C3    C72   S    
C59   O8    A    
C1    O4    A    
Cr5   O8    S    
C2    C56   S    
C30   C32   S    
C11   H1    S    
C64   H20   S    
C27   C37   T    
C40   O20   A    
C29   C40   S    
C56   N1    S    
C11   C21   S    
C13   C22   T    
C19   C24   S    
C45   Cl9   S    
C61   C62   T    
C68   H9    S    
C10   N6    S    
C10   C11   S    
H10   N5    S    
C69   H11   S    
Cr3   O15   S    
C26   C31   S    
C7    Cl10  S    
C20   C21   S    
C8    C67   T    
C49   C50   T    
Cr2   O13   S    
Cr5   O26   S    
C33   C38   S    
C27   C59   S    
C1    C14   S    
Cr5   O11   S    
Cr4   O23   S    
Cr4   O6    S    
Cr3   O21   S    
C25   C33   S    
Cr1   O1    S    
