data_mof_unit_29865.cif
_audit_creation_date              2013-03-05T16:22:37-0500
_audit_creation_method            fapswitch 2.2
_symmetry_space_group_name_H-M    P1
_symmetry_Int_Tables_number       1
_space_group_crystal_system       triclinic
_cell_length_a                    9.77096
_cell_length_b                    10.482354
_cell_length_c                    16.756473
_cell_angle_alpha                 89.265946
_cell_angle_beta                  85.16469
_cell_angle_gamma                 89.282
_cell_volume                      1709.88134222

loop_
_atom_site_label
_atom_site_type_symbol
_atom_site_description
_atom_site_fract_x
_atom_site_fract_y
_atom_site_fract_z
_atom_type_partial_charge
O1    O     O_R   0.383390 0.686040 0.500000 -0.618172
O2    O     O_R   0.616610 0.313960 0.500000 -0.628286
O3    O     O_R   0.616650 0.686050 0.499970 -0.604655
O4    O     O_R   0.383350 0.313950 0.500030 -0.603978
C1    C     C_R   0.499168 0.742510 0.500844 0.863727
C2    C     C_R   0.500681 0.257609 0.501312 0.852799
O5    O     O_R   0.369590 0.500020 0.615820 -0.612465
O6    O     O_R   0.630410 0.499980 0.384180 -0.619018
O7    O     O_R   0.602840 0.500020 0.615790 -0.625548
O8    O     O_R   0.397160 0.499980 0.384210 -0.603790
C3    C     C_R   0.480925 0.497715 0.652772 0.883808
C4    C     C_R   0.518669 0.509843 0.347278 0.918438
Zn1   Zn    Zn3+2 0.344250 0.499990 0.500020 0.952062
Zn2   Zn    Zn3+2 0.655750 0.500010 0.499980 0.939735
C5    C     C_R   0.468148 0.505235 0.739128 -0.204216
C6    C     C_R   0.528643 0.553177 0.263711 -0.190449
C7    C     C_R   0.552190 0.431148 0.786545 0.175786
C8    C     C_R   0.425010 0.632798 0.235323 0.176644
C9    C     C_R   0.543166 0.450648 0.869373 0.186718
C10   C     C_R   0.435537 0.672960 0.155012 0.141074
C11   C     C_R   0.457109 0.549097 0.902612 -0.079015
C12   C     C_R   0.553074 0.638987 0.104708 -0.065268
C13   C     C_R   0.372535 0.621305 0.854823 0.351737
C14   C     C_R   0.663080 0.570886 0.135473 0.317266
C15   C     C_R   0.376668 0.596265 0.773589 -0.315095
C16   C     C_R   0.648157 0.526667 0.214619 -0.329747
C17   C     C_2   0.450993 0.570669 0.988064 -0.171859
C18   C     C_2   0.543999 0.644126 0.018228 -0.112610
H1    H     H_    0.730281 0.471087 0.238145 0.202680
H2    H     H_    0.314055 0.653752 0.736149 0.193712
H3    H     H_    0.620376 0.694098 0.979136 0.212787
H4    H     H_    0.380214 0.513661 0.026784 0.171782
C19   C     C_3   0.578297 0.958408 0.438135 -0.180717
C20   C     C_3   0.422292 0.042276 0.567108 -0.168508
C21   C     C_3   0.630612 0.038337 0.505662 -0.123581
C22   C     C_3   0.369783 0.962208 0.499606 -0.127095
H5    H     H_    0.736792 0.073386 0.508432 0.139999
H6    H     H_    0.263347 0.927639 0.497372 0.138837
H7    H     H_    0.642118 0.919794 0.385776 0.141769
H8    H     H_    0.359233 0.081507 0.619558 0.146295
C23   C     C_3   0.502222 0.122571 0.502775 0.024956
C24   C     C_3   0.498041 0.877770 0.502182 0.020844
C25   C     C_3   0.449971 0.045201 0.435385 -0.182552
C26   C     C_3   0.550457 0.954998 0.569802 -0.175125
H9    H     H_    0.409113 0.086611 0.380740 0.142596
H10   H     H_    0.591181 0.913180 0.624366 0.145053
C27   C     C_3   0.946752 0.597822 0.534652 0.325110
C28   C     C_3   0.053257 0.402064 0.465375 0.338012
C29   C     C_3   0.052992 0.600258 0.462643 -0.129051
C30   C     C_3   0.946901 0.399609 0.537364 -0.141513
H11   H     H_    0.101929 0.684645 0.432382 0.136295
H12   H     H_    0.897288 0.315202 0.567563 0.133125
N1    N     N_3   0.136700 0.499970 0.500060 -0.104056
N2    N     N_3   0.863300 0.500030 0.499940 -0.105356
C31   C     C_3   0.038284 0.499889 0.572895 -0.185165
C32   C     C_3   0.961712 0.499985 0.427109 -0.175480
H13   H     H_    0.075051 0.501995 0.633767 0.154110
H14   H     H_    0.924935 0.497989 0.366237 0.145148
N3    N     N_2   0.641705 0.333944 0.752397 -0.290772
H15   H     H_    0.610588 0.292393 0.701586 0.215021
C33   C     C_3   0.786140 0.365325 0.745716 -0.688704
H16   H     H_    0.805462 0.449085 0.705292 0.231448
H17   H     H_    0.847311 0.282813 0.720901 0.218907
H18   H     H_    0.821305 0.387001 0.805275 0.268931
N4    N     N_2   0.314860 0.678613 0.288970 -0.273640
H19   H     H_    0.218205 0.657863 0.273003 0.232400
C34   C     C_3   0.328286 0.809651 0.312629 -0.751841
H20   H     H_    0.248850 0.832612 0.361651 0.219657
H21   H     H_    0.314532 0.875831 0.261591 0.246644
H22   H     H_    0.431027 0.824021 0.334172 0.233543
N5    N     N_2   0.880361 0.706705 0.574236 -0.283254
H23   H     H_    0.810548 0.681132 0.621090 0.241028
C35   C     C_3   0.971750 0.806348 0.594467 -0.806218
H24   H     H_    0.910801 0.886030 0.623172 0.245006
H25   H     H_    0.029438 0.844238 0.539519 0.234321
H26   H     H_    0.044860 0.769221 0.636765 0.252380
N6    N     N_2   0.119852 0.293194 0.425863 -0.280673
H27   H     H_    0.188962 0.318763 0.378663 0.238942
C36   C     C_3   0.028990 0.192590 0.406465 -0.826549
H28   H     H_    0.090262 0.113083 0.377761 0.241149
H29   H     H_    0.954915 0.228723 0.364450 0.246846
H30   H     H_    0.972384 0.154758 0.461782 0.240500
N7    N     N_R   0.285074 0.722371 0.887210 0.209058
O9    O     O_R   0.335194 0.810412 0.929905 -0.419105
O10   O     O_R   0.163816 0.739904 0.861967 -0.377573
N8    N     N_R   0.786920 0.540326 0.086275 0.194081
O11   O     O_R   0.837886 0.621274 0.032599 -0.397170
O12   O     O_R   0.858313 0.438545 0.101476 -0.408843
N9    N     N_2   0.329667 0.751068 0.125506 -0.314237
H31   H     H_    0.360507 0.817217 0.081862 0.281177
C37   C     C_3   0.199677 0.690647 0.115116 -0.648431
H32   H     H_    0.115416 0.745853 0.147696 0.243801
H33   H     H_    0.197060 0.590560 0.137995 0.219478
H34   H     H_    0.181097 0.689519 0.050722 0.293190
N10   N     N_2   0.620200 0.369867 0.918590 -0.287365
H35   H     H_    0.660343 0.414270 0.965712 0.267808
C38   C     C_3   0.553866 0.251035 0.941979 -0.686121
H36   H     H_    0.623816 0.191209 0.976079 0.249766
H37   H     H_    0.529499 0.197393 0.888296 0.259486
H38   H     H_    0.457801 0.269780 0.980633 0.225397

loop_
_geom_bond_atom_site_label_1
_geom_bond_atom_site_label_2
_geom_bond_distance
_ccdc_geom_bond_type
C1    C24   1.418203 S    
C35   H25   1.109936 S    
C35   H24   1.110497 S    
N1    C31   1.488745 S    
C22   C24   1.528447 S    
N10   H35   1.029645 S    
C38   H36   1.110333 S    
C27   C29   1.524087 S    
N6    H27   1.030738 S    
C8    N4    1.425515 S    
O5    C3    1.296111 A    
C30   N2    1.488779 S    
C13   N7    1.435628 S    
O1    C1    1.284541 A    
C19   C24   1.527312 S    
C9    C11   1.412887 A    
C14   C16   1.395813 A    
N8    O12   1.301589 A    
C5    C15   1.395938 A    
C28   C32   1.523697 S    
O4    Zn1   1.982504 S    
C33   H17   1.110229 S    
C7    C9    1.400730 A    
C3    C5    1.444951 S    
C4    C6    1.462343 S    
N4    C34   1.445116 S    
C2    C23   1.415327 S    
C30   H12   1.109882 S    
N9    C37   1.450836 S    
C8    C10   1.400724 A    
C28   C30   1.524555 S    
C11   C17   1.448621 S    
N3    H15   1.031253 S    
C12   C18   1.459530 S    
C23   C25   1.524655 S    
O2    C2    1.282476 A    
C20   C23   1.527000 S    
C24   C26   1.527484 S    
O2    Zn2   1.992074 S    
C38   H37   1.111059 S    
C26   H10   1.110455 S    
Zn1   N1    2.027909 S    
N6    C36   1.444599 S    
C6    C16   1.397621 A    
C28   N1    1.473748 S    
N2    C32   1.488674 S    
N3    C33   1.447923 S    
C34   H20   1.108153 S    
C19   C25   1.543414 S    
C20   C26   1.545007 S    
O4    C2    1.284689 A    
C37   H32   1.109562 S    
N5    C35   1.444559 S    
N8    O11   1.300940 A    
C29   H11   1.107460 S    
C34   H21   1.110200 S    
C28   N6    1.446459 S    
C33   H18   1.109627 S    
O7    Zn2   1.965692 S    
C37   H33   1.112218 S    
O7    C3    1.295966 A    
N7    O9    1.300242 A    
O6    C4    1.301709 A    
C19   H7    1.110403 S    
C21   C26   1.543639 S    
C25   H9    1.110549 S    
C27   N5    1.446295 S    
O3    Zn2   1.982503 S    
O8    C4    1.296464 A    
C7    N3    1.427887 S    
C27   N2    1.473156 S    
N7    O10   1.301351 A    
C10   C12   1.410854 A    
C31   H13   1.110183 S    
C35   H26   1.111499 S    
C12   C14   1.412595 A    
O1    Zn1   1.992072 S    
C38   H38   1.111450 S    
C9    N10   1.426355 S    
C21   H5    1.109786 S    
C27   C31   1.523510 S    
C15   H2    1.084800 S    
C5    C7    1.409590 A    
O6    Zn2   1.976733 S    
Zn2   N2    2.027909 S    
C17   H4    1.086784 S    
C18   H3    1.085812 S    
O3    C1    1.283952 A    
O8    Zn1   1.965692 S    
C36   H30   1.109950 S    
N10   C38   1.445755 S    
C29   C32   1.543972 S    
C10   N9    1.428116 S    
C36   H29   1.111381 S    
C30   C31   1.544628 S    
C34   H22   1.107722 S    
C11   C13   1.406210 A    
N5    H23   1.030760 S    
C37   H34   1.109408 S    
C29   N1    1.488363 S    
C22   H6    1.109330 S    
C19   C21   1.541473 S    
C32   H14   1.110190 S    
C20   C22   1.542720 S    
C13   C15   1.386711 A    
C33   H16   1.110268 S    
C21   C23   1.528755 S    
C36   H28   1.110668 S    
O5    Zn1   1.976733 S    
C16   H1    1.083728 S    
C6    C8    1.413531 A    
N4    H19   1.029580 S    
C17   C18   1.333848 D    
C20   H8    1.110310 S    
C22   C25   1.542634 S    
N9    H31   1.030313 S    
C14   N8    1.440594 S    
