data_mof_unit_59633.cif
_audit_creation_date              2012-12-10T16:58:53-0500
_audit_creation_method            fapswitch 2.2
_symmetry_space_group_name_H-M    P1
_symmetry_Int_Tables_number       1
_space_group_crystal_system       triclinic
_cell_length_a                    9.695239
_cell_length_b                    10.950006
_cell_length_c                    17.245991
_cell_angle_alpha                 89.565011
_cell_angle_beta                  87.296494
_cell_angle_gamma                 91.533783
_cell_volume                      1828.11993681

loop_
_atom_site_label
_atom_site_type_symbol
_atom_type_description
_atom_site_fract_x
_atom_site_fract_y
_atom_site_fract_z
_atom_type_partial_charge
C1    C     C_R   0.501632 0.734057 0.504492 0.890950
C2    C     C_R   0.522220 0.506046 0.265425 -0.192221
C3    C     C_2   0.604887 0.068792 0.498192 -0.374884
C4    C     C_R   0.483522 0.495561 0.649946 0.857855
C5    C     C_2   0.495553 0.135227 0.482198 0.362851
C6    C     C_2   0.603827 0.936424 0.483805 0.356866
C7    C     C_2   0.506544 0.863615 0.521318 0.177814
C8    C     C_2   0.074902 0.566361 0.546624 0.095025
C9    C     C_2   0.919316 0.549353 0.554692 -0.037565
C10   C     C_R   0.498659 0.265692 0.496373 0.759622
C11   C     C_R   0.516581 0.502547 0.350140 0.876950
C12   C     C_R   0.374267 0.409741 0.774379 0.430466
C13   C     C_R   0.480951 0.478127 0.734200 -0.104021
C14   C     C_R   0.596670 0.518697 0.773578 -0.239864
C15   C     C_R   0.607885 0.490994 0.851418 -0.155128
C16   C     C_R   0.503243 0.422391 0.891663 0.113505
C17   C     C_R   0.388175 0.379868 0.852840 -0.192260
C18   C     C_3   0.384127 0.090793 0.372469 0.066101
C19   C     C_3   0.251349 0.036666 0.342375 -0.674325
C20   C     C_3   0.791428 0.967120 0.392939 0.064882
C21   C     C_3   0.881150 0.899904 0.333420 -0.669622
C22   C     C_3   0.125498 0.376737 0.399928 0.231703
C23   C     C_R   0.434092 0.573665 0.142629 0.369248
C24   C     C_3   0.013558 0.296056 0.365475 -0.913866
C25   C     C_3   0.145594 0.426377 0.753711 0.066085
C26   C     C_3   0.022822 0.364879 0.716642 -0.698172
C27   C     C_R   0.442573 0.588699 0.223688 0.312957
C28   C     C_R   0.603961 0.420935 0.226155 -0.270810
C29   C     C_R   0.608202 0.416811 0.145842 -0.185526
C30   C     C_R   0.524897 0.493080 0.104182 -0.017925
C31   C     C_2   0.508192 0.403808 0.975716 -0.154154
C32   C     C_2   0.544053 0.498003 0.019906 -0.090981
Cu1   Cu    Cu3+1 0.361370 0.499980 0.499980 1.070087
Cu2   Cu    Cu3+1 0.638630 0.500020 0.500020 0.981422
H1    H     H_    0.680025 0.570743 0.743727 0.163713
H2    H     H_    0.465373 0.319894 0.002291 0.168505
H3    H     H_    0.698671 0.523123 0.880281 0.145260
H4    H     H_    0.472330 0.039059 0.346927 0.183015
H5    H     H_    0.394832 0.187962 0.353012 0.085861
H6    H     H_    0.161129 0.078274 0.372469 0.237563
H7    H     H_    0.247623 0.054467 0.279092 0.191824
H8    H     H_    0.245252 0.936827 0.353926 0.293549
H9    H     H_    0.860038 0.007356 0.436529 0.152701
H10   H     H_    0.738140 0.040580 0.362032 0.136270
H11   H     H_    0.815571 0.856441 0.289689 0.268299
H12   H     H_    0.677142 0.354563 0.115953 0.175933
H13   H     H_    0.955530 0.965257 0.303340 0.186898
H14   H     H_    0.939558 0.828249 0.362606 0.260745
H15   H     H_    0.547622 0.004369 0.668438 0.339535
H16   H     H_    0.223889 0.328550 0.392660 0.176404
H17   H     H_    0.132520 0.464230 0.366291 0.171024
H18   H     H_    0.986948 0.216827 0.404373 0.260115
H19   H     H_    0.918673 0.348020 0.357206 0.242264
H20   H     H_    0.050826 0.262247 0.307868 0.219077
H21   H     H_    0.271208 0.864152 0.211023 0.380765
H22   H     H_    0.199303 0.605428 0.983820 0.371210
H23   H     H_    0.698388 0.111637 0.518942 0.148484
H24   H     H_    0.158030 0.521488 0.730562 0.154717
H25   H     H_    0.122189 0.429236 0.817556 0.136734
H26   H     H_    0.003435 0.272151 0.742035 0.256753
H27   H     H_    0.929187 0.419736 0.727294 0.178976
H28   H     H_    0.043885 0.356575 0.653105 0.279813
H29   H     H_    0.123025 0.635622 0.581834 0.124826
H30   H     H_    0.866652 0.582123 0.607028 0.128581
H31   H     H_    0.895275 0.495787 0.446963 0.245588
H32   H     H_    0.665866 0.358393 0.257845 0.163676
H33   H     H_    0.570707 0.586673 0.993750 0.181343
H34   H     H_    0.308087 0.325326 0.883704 0.160035
N1    N     N_2   0.152990 0.501340 0.500850 -0.014998
N2    N     N_2   0.846850 0.501370 0.500880 -0.252172
O1    O     O_R   0.382960 0.678040 0.499990 -0.546848
O2    O     O_3   0.694712 0.883349 0.428868 -0.558107
O3    O     O_2   0.257326 0.940251 0.571901 -0.193401
O4    O     O_2   0.376777 0.806646 0.658404 -0.339296
O5    O     O_3   0.461375 0.032700 0.646449 -0.494197
O6    O     O_3   0.093227 0.394488 0.479607 -0.494678
O7    O     O_2   0.230090 0.687952 0.303868 -0.318277
O8    O     O_2   0.462022 0.757910 0.335767 -0.303175
O9    O     O_3   0.368406 0.838425 0.208949 -0.480106
O10   O     O_2   0.178870 0.669853 0.140099 -0.248696
O11   O     O_2   0.362997 0.762885 0.054417 -0.263711
O12   O     O_R   0.617100 0.678080 0.500010 -0.562702
O13   O     O_3   0.255298 0.553567 0.016783 -0.552209
O14   O     O_3   0.265319 0.359791 0.735259 -0.541947
O15   O     O_R   0.369350 0.500000 0.613580 -0.551595
O16   O     O_R   0.603500 0.500040 0.613610 -0.605741
O17   O     O_R   0.382900 0.321920 0.499990 -0.531196
O18   O     O_R   0.617040 0.321960 0.500010 -0.610371
O19   O     O_R   0.396500 0.499960 0.386390 -0.596417
O20   O     O_R   0.630650 0.500000 0.386420 -0.583719
O21   O     O_3   0.377594 0.080954 0.454110 -0.521686
S1    S     S_3+6 0.396280 0.910276 0.600881 0.026459
S2    S     S_3+6 0.373136 0.719292 0.270907 0.024989
S3    S     S_3+6 0.304617 0.644994 0.088980 0.030679

loop_
_geom_bond_atom_site_label_1
_geom_bond_atom_site_label_2
_ccdc_geom_bond_type
C24   H18   S    
C9    H30   S    
C22   O6    S    
C3    C6    S    
C16   C31   S    
C6    O2    S    
C10   O18   A    
C8    N1    D    
C1    O1    A    
C18   O21   S    
C28   C29   A    
C26   H27   S    
O9    S2    S    
C31   H2    S    
C4    O16   A    
O8    S2    D    
C24   H20   S    
H31   N2    S    
C12   O14   S    
N1    O6    S    
C18   C19   S    
Cu2   O16   S    
O4    S1    D    
C4    C13   S    
Cu1   O15   S    
C15   H3    S    
C16   C17   A    
C12   C17   A    
C25   O14   S    
H15   O5    S    
C2    C27   A    
C23   C27   A    
Cu2   N2    S    
C19   H8    S    
Cu1   N1    S    
C22   H16   S    
C21   H14   S    
C26   H28   S    
C13   C14   A    
C2    C11   S    
C20   H10   S    
C21   H11   S    
C10   O17   A    
C23   C30   A    
C9    N2    D    
C14   H1    S    
C8    C9    S    
C4    O15   A    
C24   H19   S    
C18   H4    S    
O13   S3    S    
C28   H32   S    
C18   H5    S    
Cu2   O20   S    
C29   C30   A    
Cu1   O19   S    
H21   O9    S    
C11   O19   A    
C31   C32   D    
Cu1   Cu2   S    
C25   C26   S    
Cu2   O18   S    
C12   C13   A    
C5    O21   S    
O5    S1    S    
C32   H33   S    
C3    H23   S    
C22   C24   S    
C27   S2    S    
C25   H24   S    
O10   S3    D    
C20   H9    S    
H22   O13   S    
C17   H34   S    
C1    C7    S    
O3    S1    D    
C3    C5    D    
C6    C7    D    
C25   H25   S    
C23   S3    S    
C29   H12   S    
C1    O12   A    
C5    C10   S    
C30   C32   S    
O11   S3    D    
C11   O20   A    
C7    S1    S    
O7    S2    D    
Cu1   O17   S    
C19   H6    S    
Cu1   O1    S    
C8    H29   S    
C19   H7    S    
C20   C21   S    
C14   C15   A    
C20   O2    S    
C2    C28   A    
Cu2   O12   S    
C26   H26   S    
C15   C16   A    
C22   H17   S    
C21   H13   S    
