data_mof_unit_5794.cif
_audit_creation_date              2012-10-26T19:39:57-0400
_audit_creation_method            fapswitch 2.2
_symmetry_space_group_name_H-M    P1
_symmetry_Int_Tables_number       1
_space_group_crystal_system       triclinic
_cell_length_a                    15.004218
_cell_length_b                    8.680327
_cell_length_c                    7.504276
_cell_angle_alpha                 103.288396
_cell_angle_beta                  94.430608
_cell_angle_gamma                 93.362483
_cell_volume                      945.412189695

loop_
_atom_site_label
_atom_site_type_symbol
_atom_type_description
_atom_site_fract_x
_atom_site_fract_y
_atom_site_fract_z
_atom_type_partial_charge
C1    C     C_R   0.496441 0.199724 0.453124 0.518069
C2    C     C_R   0.176894 0.373754 0.376391 0.264412
C3    C     C_R   0.767614 0.509400 0.494614 0.006994
C4    C     C_R   0.232386 0.490602 0.505383 0.006987
C5    C     C_R   0.804284 0.396071 0.362743 -0.173027
C6    C     C_R   0.195716 0.603931 0.637251 -0.173045
C7    C     C_R   0.896859 0.391845 0.363647 0.000632
C8    C     C_R   0.103141 0.608148 0.636351 0.000635
C9    C     C_R   0.953302 0.503160 0.498174 0.017910
C10   C     C_R   0.046698 0.496826 0.501829 0.017921
C11   C     C_R   0.916484 0.620686 0.629009 0.031362
C12   C     C_R   0.503555 0.800275 0.546876 0.517967
C13   C     C_R   0.083518 0.379300 0.370993 0.031352
C14   C     C_R   0.933747 0.276257 0.234041 -0.138364
C15   C     C_R   0.066254 0.723742 0.765949 -0.138384
C16   C     C_3   0.769862 0.869918 0.665325 -0.150034
C17   C     C_3   0.230055 0.130013 0.334653 -0.149952
C18   C     C_3   0.384134 0.235638 0.957797 -0.017432
C19   C     C_3   0.615868 0.764361 0.042203 -0.017432
C20   C     C_R   0.026328 0.269958 0.237501 -0.115148
C21   C     C_R   0.973674 0.730039 0.762491 -0.115109
C22   C     C_2   0.492071 0.031245 0.427808 -0.168220
C23   C     C_2   0.507922 0.968754 0.572192 -0.168251
C24   C     C_R   0.329031 0.496692 0.501555 0.551574
C25   C     C_R   0.670969 0.503305 0.498445 0.551473
C26   C     C_R   0.823109 0.626239 0.623618 0.264414
Cu1   Cu    Cu3+1 0.510010 0.517380 0.684380 1.049104
Cu2   Cu    Cu3+1 0.489990 0.482620 0.315620 1.049111
H1    H     H_    0.760461 0.308381 0.262685 0.124276
H2    H     H_    0.832996 0.921959 0.626427 0.118806
H3    H     H_    0.741753 0.964604 0.766253 0.125022
H4    H     H_    0.279702 0.167113 0.457571 0.124174
H5    H     H_    0.258670 0.035734 0.234126 0.124997
H6    H     H_    0.166784 0.077447 0.372352 0.118881
H7    H     H_    0.354254 0.237980 0.088062 0.196833
H8    H     H_    0.446216 0.171367 0.952366 0.095293
H9    H     H_    0.335233 0.167921 0.844416 0.092433
H10   H     H_    0.553785 0.828633 0.047634 0.095292
H11   H     H_    0.645749 0.762022 0.911938 0.196829
H12   H     H_    0.239538 0.691627 0.737301 0.124278
H13   H     H_    0.664768 0.832078 0.155586 0.092449
H14   H     H_    0.890943 0.190259 0.130296 0.112390
H15   H     H_    0.109058 0.809749 0.869685 0.112394
H16   H     H_    0.052847 0.179243 0.135256 0.151542
H17   H     H_    0.947155 0.820767 0.864723 0.151608
H18   H     H_    0.474581 0.958398 0.289806 0.116367
H19   H     H_    0.525412 0.041601 0.710193 0.116383
H20   H     H_    0.719762 0.832884 0.543166 0.124345
N1    N     N_2   0.474890 0.456420 0.038520 0.095842
N2    N     N_2   0.525110 0.543580 0.961480 0.095845
O1    O     O_R   0.506510 0.286130 0.619770 -0.488637
O2    O     O_3   0.213956 0.257457 0.251899 -0.587677
O3    O     O_3   0.399655 0.389966 0.933116 -0.459025
O4    O     O_3   0.600346 0.610033 0.066882 -0.459022
O5    O     O_R   0.493490 0.713870 0.380230 -0.488655
O6    O     O_R   0.489600 0.256770 0.308360 -0.549145
O7    O     O_R   0.510400 0.743230 0.691640 -0.549156
O8    O     O_R   0.378710 0.514640 0.655720 -0.471214
O9    O     O_R   0.621290 0.485360 0.344280 -0.471217
O10   O     O_R   0.361800 0.485290 0.344300 -0.475168
O11   O     O_R   0.638200 0.514710 0.655700 -0.475201
O12   O     O_3   0.786068 0.742548 0.748139 -0.587685

loop_
_geom_bond_atom_site_label_1
_geom_bond_atom_site_label_2
_ccdc_geom_bond_type
C2    C4    A    
C2    O2    S    
C19   H10   S    
C3    C26   A    
C1    O1    A    
Cu2   N1    S    
C21   H17   S    
C11   C21   A    
C11   C26   A    
Cu1   N2    S    
C24   O10   A    
C14   H14   S    
C16   H20   S    
Cu2   O6    S    
C15   H15   S    
C1    C22   S    
C25   O11   A    
C16   H3    S    
C19   O4    S    
C9    C11   A    
C12   C23   S    
C19   H13   S    
N2    O4    S    
C15   C21   A    
C17   H5    S    
Cu1   O8    S    
N1    O3    S    
C12   O7    A    
C19   H11   S    
C17   O2    S    
C8    C10   A    
C22   H18   S    
Cu2   O5    S    
Cu1   O1    S    
N1    N2    D    
C8    C15   A    
C5    H1    S    
C16   O12   S    
Cu2   O10   S    
Cu1   O7    S    
C4    C24   S    
C1    O6    A    
C18   O3    S    
C12   O5    A    
C23   H19   S    
C17   H6    S    
C16   H2    S    
C24   O8    A    
C14   C20   A    
C3    C25   S    
C6    H12   S    
C26   O12   S    
C18   H7    S    
C7    C9    A    
C4    C6    A    
C9    C10   A    
Cu2   O9    S    
Cu1   Cu2   S    
C5    C7    A    
C2    C13   A    
C22   C23   D    
C6    C8    A    
C25   O9    A    
C13   C20   A    
C20   H16   S    
C18   H8    S    
C18   H9    S    
C7    C14   A    
C17   H4    S    
C3    C5    A    
C10   C13   A    
Cu1   O11   S    
