data_mof_unit_23643.cif
_audit_creation_date              2012-10-26T20:51:36-0400
_audit_creation_method            fapswitch 2.2
_symmetry_space_group_name_H-M    P1
_symmetry_Int_Tables_number       1
_space_group_crystal_system       triclinic
_cell_length_a                    9.549406
_cell_length_b                    10.835247
_cell_length_c                    13.870384
_cell_angle_alpha                 90.372758
_cell_angle_beta                  84.998284
_cell_angle_gamma                 90.194343
_cell_volume                      1429.67001769

loop_
_atom_site_label
_atom_site_type_symbol
_atom_type_description
_atom_site_fract_x
_atom_site_fract_y
_atom_site_fract_z
_atom_type_partial_charge
C1    C     C_R   0.499414 0.737179 0.509358 0.543612
C2    C     C_3   0.230123 0.927808 0.555034 0.069658
C3    C     C_R   0.936183 0.468942 0.418449 0.147251
C4    C     C_R   0.477412 0.499405 0.682903 0.522195
C5    C     C_R   0.916035 0.540758 0.578068 -0.039483
C6    C     C_R   0.064521 0.539976 0.578329 -0.048223
C7    C     C_R   0.083726 0.469821 0.417627 0.161410
C8    C     C_3   0.093576 0.349149 0.363069 -0.127368
C9    C     C_3   0.933532 0.349701 0.365257 -0.260899
C10   C     C_R   0.499030 0.262873 0.507936 0.548983
C11   C     C_R   0.522716 0.499912 0.317103 0.550677
C12   C     C_1   0.464481 0.498383 0.785924 -0.052251
C13   C     C_1   0.537245 0.495839 0.214096 -0.063761
C14   C     C_2   0.567818 0.483936 0.023269 0.159830
C15   C     C_2   0.451255 0.495793 0.976360 -0.108271
C16   C     C_1   0.456356 0.497264 0.872705 -0.065478
C17   C     C_1   0.551243 0.490787 0.127370 -0.044301
C18   C     C_3   0.168390 0.358223 0.259672 -0.269272
C19   C     C_3   0.281426 0.259250 0.242273 -0.434140
C20   C     C_3   0.818065 0.427742 0.026380 -0.311447
C21   C     C_3   0.728786 0.871781 0.611112 -0.252045
C22   C     C_3   0.670545 0.814200 0.706630 -0.424515
C23   C     C_R   0.378235 0.935592 0.505957 -0.000007
C24   C     C_3   0.681836 0.189062 0.696603 -0.295994
C25   C     C_3   0.214709 0.144834 0.650659 -0.269796
C26   C     C_3   0.070502 0.205644 0.665823 -0.454774
C27   C     C_3   0.227719 0.862300 0.655459 -0.256646
C28   C     C_3   0.083238 0.857881 0.712336 -0.464873
C29   C     C_3   0.123110 0.869442 0.489037 -0.248200
C30   C     C_3   0.153415 0.891262 0.380024 -0.435960
C31   C     C_R   0.498390 0.870584 0.525904 -0.033859
C32   C     C_R   0.613037 0.936629 0.561525 0.016567
C33   C     C_R   0.611859 0.067218 0.559300 0.122246
C34   C     C_R   0.497171 0.129965 0.523736 -0.012962
C35   C     C_R   0.377680 0.062895 0.505383 -0.052870
C36   C     C_3   0.230121 0.070934 0.553469 -0.064938
Cu1   Cu    Cu3+1 0.359330 0.500020 0.500000 0.903247
Cu2   Cu    Cu3+1 0.640670 0.499980 0.500000 0.909410
H1    H     H_    0.349131 0.507049 0.016608 0.091905
H2    H     H_    0.336675 0.270577 0.169034 0.134985
H3    H     H_    0.093278 0.345469 0.203556 0.128138
H4    H     H_    0.216778 0.450648 0.246986 0.171138
H5    H     H_    0.707453 0.434847 0.903048 0.250179
H6    H     H_    0.917052 0.424003 0.978069 0.126960
H7    H     H_    0.794194 0.333848 0.055204 0.137654
H8    H     H_    0.834609 0.492437 0.086833 0.159735
H9    H     H_    0.586382 0.746487 0.695155 0.162375
H10   H     H_    0.755929 0.766163 0.740677 0.128587
H11   H     H_    0.626805 0.887337 0.756969 0.146194
H12   H     H_    0.111474 0.570926 0.642347 0.122244
H13   H     H_    0.784947 0.802757 0.563265 0.161465
H14   H     H_    0.813275 0.936257 0.628546 0.158840
H15   H     H_    0.792567 0.179584 0.556937 0.258799
H16   H     H_    0.749203 0.149639 0.749834 0.130253
H17   H     H_    0.570023 0.171303 0.722409 0.135639
H18   H     H_    0.699901 0.290120 0.693326 0.169633
H19   H     H_    0.058094 0.274213 0.608092 0.165156
H20   H     H_    0.986412 0.135494 0.663596 0.154222
H21   H     H_    0.059006 0.253692 0.737018 0.135200
H22   H     H_    0.231800 0.089262 0.714857 0.140951
H23   H     H_    0.133091 0.274340 0.407595 0.147103
H24   H     H_    0.293353 0.219882 0.651155 0.175429
H25   H     H_    0.038715 0.950922 0.725440 0.159255
H26   H     H_    0.009531 0.801044 0.673193 0.127455
H27   H     H_    0.093172 0.814207 0.783598 0.136555
H28   H     H_    0.260424 0.765030 0.644634 0.168385
H29   H     H_    0.306594 0.902923 0.700750 0.126937
H30   H     H_    0.158377 0.991144 0.363235 0.131585
H31   H     H_    0.253703 0.846673 0.352539 0.167590
H32   H     H_    0.067780 0.849485 0.341300 0.134327
H33   H     H_    0.118619 0.768270 0.499970 0.174276
H34   H     H_    0.889598 0.361262 0.294274 0.123253
H35   H     H_    0.017007 0.906355 0.511660 0.125697
H36   H     H_    0.883342 0.274520 0.410090 0.125646
H37   H     H_    0.160130 0.108435 0.501140 0.128980
H38   H     H_    0.853129 0.572661 0.641808 0.121470
H39   H     H_    0.359535 0.266608 0.296801 0.177516
H40   H     H_    0.232612 0.166070 0.246775 0.135403
N1    N     N_R   0.852140 0.499070 0.499400 -0.233507
N2    N     N_R   0.148050 0.499110 0.499400 -0.240138
N3    N     N_2   0.704542 0.470292 0.972372 -0.502266
N4    N     N_2   0.719153 0.133886 0.602459 -0.531294
O1    O     O_R   0.381190 0.680360 0.500000 -0.505992
O2    O     O_R   0.618770 0.680320 0.499990 -0.498041
O3    O     O_R   0.364410 0.500000 0.637850 -0.510762
O4    O     O_R   0.602000 0.499960 0.637840 -0.515791
O5    O     O_R   0.381230 0.319680 0.500010 -0.508124
O6    O     O_R   0.618810 0.319640 0.500000 -0.493372
O7    O     O_R   0.398000 0.500040 0.362160 -0.492852
O8    O     O_R   0.635590 0.500000 0.362150 -0.487727

loop_
_geom_bond_atom_site_label_1
_geom_bond_atom_site_label_2
_ccdc_geom_bond_type
C22   H10   S    
C35   C36   S    
C9    H34   S    
C3    N1    A    
C7    C8    S    
C24   H17   S    
C10   O6    A    
C29   C30   S    
Cu2   O4    S    
C2    C29   S    
C1    O1    A    
Cu1   O3    S    
C34   C35   A    
C3    C7    A    
C18   H4    S    
C5    C6    A    
C29   H35   S    
Cu2   N1    S    
C24   H16   S    
C15   C16   S    
C1    C31   S    
C18   C19   S    
C19   H39   S    
C24   N4    S    
C30   H32   S    
C12   C16   T    
C8    C9    S    
C2    C27   S    
C25   H22   S    
C5    N1    A    
C26   H21   S    
C20   H7    S    
C8    H23   S    
C22   H9    S    
C20   N3    S    
C14   C17   S    
C20   H6    S    
Cu1   N2    S    
C10   O5    A    
C18   H3    S    
C4    O3    A    
C25   C26   S    
C8    C18   S    
Cu2   O6    S    
H15   N4    S    
C1    O2    A    
C23   C31   A    
C19   H40   S    
Cu1   Cu2   S    
C3    C9    S    
C36   H37   S    
C11   O7    A    
C6    N2    A    
C31   C32   A    
C2    C23   S    
C33   C34   A    
C10   C34   S    
C6    H12   S    
C26   H20   S    
C15   H1    S    
C22   H11   S    
C28   H26   S    
C23   C35   A    
H5    N3    S    
C4    C12   S    
C9    H36   S    
C21   H13   S    
C30   H31   S    
C33   N4    S    
C2    C36   S    
Cu2   O2    S    
Cu1   O5    S    
Cu1   O7    S    
C24   H18   S    
Cu2   O8    S    
C13   C17   T    
C32   C33   A    
C5    H38   S    
C28   H27   S    
C27   H28   S    
C21   C32   S    
C11   C13   S    
C11   O8    A    
C25   H24   S    
C26   H19   S    
C30   H30   S    
C27   H29   S    
C19   H2    S    
C25   C36   S    
C28   H25   S    
C4    O4    A    
C27   C28   S    
C14   C15   D    
Cu1   O1    S    
C14   N3    S    
C21   C22   S    
C21   H14   S    
C20   H8    S    
C7    N2    A    
C29   H33   S    
