data_mof_unit_6783.cif
_audit_creation_date              2013-03-05T15:44:36-0500
_audit_creation_method            fapswitch 2.2
_symmetry_space_group_name_H-M    P1
_symmetry_Int_Tables_number       1
_space_group_crystal_system       triclinic
_cell_length_a                    27.811526
_cell_length_b                    10.924281
_cell_length_c                    9.736535
_cell_angle_alpha                 88.684227
_cell_angle_beta                  91.007889
_cell_angle_gamma                 89.453802
_cell_volume                      2956.77941406

loop_
_atom_site_label
_atom_site_type_symbol
_atom_site_description
_atom_site_fract_x
_atom_site_fract_y
_atom_site_fract_z
_atom_type_partial_charge
O1    O     O_R   0.500010 0.321960 0.617040 -0.587480
O2    O     O_R   0.499990 0.321920 0.382900 -0.581264
C1    C     C_R   0.500493 0.265502 0.501484 0.882231
O3    O     O_R   0.430270 0.500040 0.617060 -0.583102
O4    O     O_R   0.430260 0.500000 0.382910 -0.578913
C2    C     C_R   0.407516 0.500266 0.498893 0.813615
Cu1   Cu    Cu3+1 0.500010 0.500020 0.638630 0.945685
Cu2   Cu    Cu3+1 0.499990 0.499980 0.361370 0.922487
O5    O     O_R   0.500010 0.678080 0.617100 -0.579997
O6    O     O_R   0.499990 0.678040 0.382960 -0.594825
O7    O     O_R   0.569740 0.500000 0.617090 -0.557346
O8    O     O_R   0.569730 0.499960 0.382940 -0.590824
C3    C     C_R   0.502173 0.735014 0.498336 0.827324
C4    C     C_R   0.592293 0.502693 0.500936 0.851232
C5    C     C_R   0.177572 0.397412 0.482750 0.516931
O9    O     O_2   0.202099 0.290970 0.471918 -0.536585
N1    N     N_R   0.202003 0.504872 0.492946 -0.470271
C6    C     C_R   0.178420 0.614247 0.505525 0.537446
C7    C     C_R   0.278975 0.496002 0.616658 -0.137765
C8    C     C_R   0.329028 0.495214 0.619275 -0.218544
C9    C     C_R   0.328968 0.507703 0.370366 -0.227543
C10   C     C_R   0.278528 0.509146 0.366532 0.195178
C11   C     C_R   0.253521 0.502755 0.491438 0.340673
C12   C     C_R   0.101907 0.509214 0.495017 -0.048507
C13   C     C_R   0.127101 0.397634 0.482718 -0.018658
C14   C     C_R   0.101532 0.288930 0.471367 -0.144570
C15   C     C_R   0.127972 0.618437 0.507171 -0.022496
C16   C     C_R   0.354505 0.500932 0.496188 -0.072991
H1    H     H_    0.348185 0.512128 0.274549 0.162337
H2    H     H_    0.120058 0.201663 0.464203 0.186998
C17   C     C_R   0.645121 0.510404 0.502996 -0.128942
C18   C     C_R   0.974024 0.404816 0.469407 0.058832
C19   C     C_R   0.974843 0.625174 0.519249 -0.041577
C20   C     C_R   0.949098 0.516181 0.494336 0.068017
C21   C     C_R   0.946827 0.300630 0.435921 -0.200750
C22   C     C_R   0.896983 0.303930 0.434150 -0.131978
C23   C     C_R   0.872143 0.411033 0.465610 -0.004164
C24   C     C_R   0.897901 0.518143 0.494919 -0.090407
C25   C     C_R   0.872386 0.626619 0.524996 -0.131961
C26   C     C_R   0.821784 0.621379 0.535637 0.549177
N2    N     N_R   0.797694 0.516985 0.503144 -0.450347
C27   C     C_R   0.821783 0.413344 0.466991 0.552389
C28   C     C_R   0.722175 0.436599 0.594543 -0.194758
C29   C     C_R   0.671792 0.432077 0.593551 0.353065
C30   C     C_R   0.668983 0.595957 0.416176 0.034934
C31   C     C_R   0.719559 0.595659 0.417425 -0.102410
C32   C     C_R   0.746002 0.516628 0.505562 0.258808
O10   O     O_2   0.796993 0.312659 0.432256 -0.537018
C33   C     C_R   0.025088 0.401204 0.477163 0.042315
C34   C     C_R   0.050776 0.511547 0.495118 0.073409
C35   C     C_R   0.025944 0.624180 0.512889 0.066369
C36   C     C_R   0.051590 0.290372 0.468844 -0.207509
H3    H     H_    0.743097 0.376652 0.663226 0.154681
H4    H     H_    0.877938 0.221192 0.408591 0.192481
H5    H     H_    0.962919 0.215037 0.407517 0.142411
H6    H     H_    0.034870 0.202089 0.463315 0.139747
O11   O     O_2   0.203756 0.718454 0.516299 -0.539960
C37   C     C_R   0.103266 0.729276 0.519677 -0.148773
H7    H     H_    0.347721 0.490008 0.717784 0.164015
H8    H     H_    0.259755 0.491613 0.712403 0.143096
H9    H     H_    0.122459 0.814776 0.527324 0.187488
C38   C     C_R   0.948453 0.732201 0.548841 -0.207838
C39   C     C_R   0.898444 0.735058 0.547635 0.430086
O12   O     O_2   0.796752 0.717913 0.581993 -0.511825
C40   C     C_R   0.053356 0.732401 0.522480 -0.204578
H10   H     H_    0.965504 0.817323 0.572727 0.163490
H11   H     H_    0.739282 0.656012 0.349881 0.162837
H12   H     H_    0.037490 0.822216 0.529411 0.137639
C41   C     C_2   0.514627 0.940631 0.384030 0.181010
C42   C     C_2   0.509686 0.867452 0.497435 -0.392813
H13   H     H_    0.513756 0.905831 0.598793 0.149094
C43   C     C_2   0.521096 0.072945 0.402853 -0.130875
C44   C     C_2   0.499999 0.133296 0.503896 -0.358524
H14   H     H_    0.540860 0.124646 0.326272 0.176361
H15   H     H_    0.479933 0.087376 0.584170 0.147157
C45   C     C_2   0.477042 0.576496 0.922505 0.012745
N3    N     N_2   0.499480 0.498660 0.846910 -0.171517
H16   H     H_    0.451968 0.640514 0.872438 0.124546
C46   C     C_2   0.485605 0.589145 0.074248 -0.103024
N4    N     N_2   0.499460 0.498630 0.153040 -0.288387
H17   H     H_    0.478731 0.676825 0.118268 0.145552
H18   H     H_    0.489660 0.414152 0.118608 0.214197
C47   C     C_3   0.639974 0.686864 0.325668 -0.367781
C48   C     C_3   0.668061 0.793912 0.263949 -0.822052
H19   H     H_    0.687780 0.843028 0.345832 0.272739
H20   H     H_    0.693525 0.761066 0.185978 0.251607
H21   H     H_    0.642552 0.859429 0.211816 0.244388
H22   H     H_    0.622766 0.637092 0.240025 0.220993
H23   H     H_    0.611086 0.727474 0.388243 0.196659
O13   O     O_3   0.876572 0.846933 0.566089 -0.685083
H24   H     H_    0.852300 0.858425 0.491017 0.350169
C49   C     C_3   0.511818 0.891888 0.238624 -0.343172
C50   C     C_3   0.518809 0.985717 0.121640 -0.896225
H25   H     H_    0.492049 0.061535 0.127097 0.261933
H26   H     H_    0.555888 0.022527 0.125095 0.252406
H27   H     H_    0.513589 0.940296 0.021639 0.246188
H28   H     H_    0.539690 0.819463 0.227121 0.216277
H29   H     H_    0.475361 0.853466 0.224000 0.209206
C51   C     C_3   0.252567 0.517523 0.228761 -0.410859
C52   C     C_3   0.256340 0.645792 0.164694 -0.797672
H30   H     H_    0.240271 0.714329 0.233348 0.283330
H31   H     H_    0.294513 0.669224 0.146540 0.244885
H32   H     H_    0.236555 0.649722 0.064608 0.244635
H33   H     H_    0.268413 0.449780 0.158626 0.204664
H34   H     H_    0.213921 0.494958 0.237586 0.216025
C53   C     C_3   0.544067 0.437285 0.895422 -0.058612
C54   C     C_3   0.584614 0.527606 0.926053 -0.756283
H35   H     H_    0.585913 0.600953 0.845491 0.259618
H36   H     H_    0.579742 0.570759 0.026736 0.227116
H37   H     H_    0.619684 0.478078 0.929851 0.233768
H38   H     H_    0.539547 0.370148 0.979830 0.106357
H39   H     H_    0.556469 0.376408 0.813900 0.233575
O14   O     O_3   0.647909 0.349915 0.677436 -0.740836
H40   H     H_    0.671758 0.302422 0.734348 0.325569

loop_
_geom_bond_atom_site_label_1
_geom_bond_atom_site_label_2
_geom_bond_distance
_ccdc_geom_bond_type
C12   C13   1.408707 A    
C50   H25   1.111016 S    
C44   H15   1.084727 S    
N2    C27   1.366291 A    
C7    C8    1.391785 A    
C45   C46   1.502097 S    
C4    C17   1.472244 S    
C49   H29   1.109171 S    
Cu1   Cu2   2.699552 S    
C53   H39   1.104885 S    
C30   C31   1.406387 A    
Cu1   O7    1.954265 S    
N1    C11   1.433116 S    
N3    C53   1.469461 S    
C23   C24   1.409923 A    
C45   H16   1.084491 S    
O4    C2    1.304079 A    
O7    C4    1.302721 A    
C5    C13   1.403641 A    
C53   C54   1.535285 S    
C5    O9    1.349653 S    
C5    N1    1.366672 A    
C35   C40   1.416825 A    
C23   C27   1.400887 A    
O5    C3    1.302973 A    
C49   C50   1.530954 S    
C6    O11   1.349666 S    
C28   H3    1.083320 S    
C2    C16   1.474018 S    
C47   C48   1.529865 S    
C19   C38   1.412544 A    
C54   H35   1.109635 S    
C48   H21   1.110946 S    
C42   H13   1.085592 S    
C41   C49   1.524960 S    
Cu1   N3    2.027952 S    
C33   C36   1.416096 A    
C37   H9    1.083603 S    
C51   H33   1.111653 S    
C50   H26   1.110666 S    
O1    Cu1   1.961296 S    
C9    C10   1.402571 A    
C54   H36   1.107362 S    
C30   C47   1.527491 S    
O3    Cu1   1.947237 S    
C47   H23   1.111904 S    
C49   H28   1.111239 S    
C19   C20   1.418665 A    
C53   H38   1.098563 S    
C12   C34   1.422040 A    
C51   H34   1.109358 S    
C17   C29   1.410675 A    
C38   H10   1.076173 S    
C21   H5    1.076713 S    
C18   C21   1.413731 A    
C40   H12   1.076000 S    
C48   H19   1.110915 S    
N4    H18   1.026713 S    
C25   C26   1.414552 A    
C46   H17   1.075156 S    
C8    C16   1.403388 A    
C34   C35   1.420793 A    
C13   C14   1.395518 A    
C9    H1    1.083661 S    
O6    C3    1.297471 A    
C52   H32   1.110416 S    
O1    C1    1.295646 A    
C21   C22   1.386140 A    
C18   C20   1.422325 A    
C41   C43   1.473507 S    
C7    C11   1.399121 A    
C28   C29   1.402463 A    
C38   C39   1.390711 A    
C14   C36   1.388687 A    
C37   C40   1.388914 A    
C51   C52   1.525967 S    
Cu2   O8    1.947231 S    
C12   C15   1.408237 A    
C52   H31   1.110660 S    
N1    C6    1.366536 A    
N2    C32   1.438278 S    
C27   O10   1.350137 S    
C45   N3    1.299600 D    
C8    H7    1.082982 S    
C43   H14   1.085399 S    
C26   N2    1.368645 A    
C9    C16   1.405327 A    
O8    C4    1.300437 A    
C29   O14   1.382268 S    
C14   H2    1.083576 S    
C50   H27   1.110804 S    
C17   C30   1.422602 A    
C54   H37   1.110463 S    
O3    C2    1.303241 A    
O14   H40   0.991712 S    
Cu1   O5    1.951650 S    
C31   C32   1.397981 A    
C22   C23   1.395896 A    
C10   C51   1.512650 S    
C20   C24   1.423926 A    
O2    Cu2   1.951650 S    
C6    C15   1.403732 A    
C48   H20   1.110485 S    
C43   C44   1.337739 D    
C15   C37   1.395322 A    
O4    Cu2   1.954268 S    
C7    H8    1.083065 S    
C19   C35   1.423571 A    
C25   C39   1.414171 A    
C26   O12   1.348848 S    
O2    C1    1.296042 A    
C31   H11   1.080625 S    
O13   H24   0.991227 S    
C24   C25   1.414502 A    
C39   O13   1.376853 S    
C52   H30   1.110976 S    
C47   H22   1.109846 S    
C41   C42   1.357961 D    
C1    C44   1.444107 S    
C18   C33   1.420965 A    
C22   H4    1.083635 S    
C46   N4    1.289281 D    
Cu2   O6    1.961296 S    
C33   C34   1.419747 A    
C3    C42   1.463616 S    
Cu2   N4    2.028600 S    
C10   C11   1.412224 A    
C28   C32   1.396601 A    
C36   H6    1.076704 S    
