data_mof_unit_52879.cif
_audit_creation_date              2012-12-11T15:22:50-0500
_audit_creation_method            fapswitch 2.2
_symmetry_space_group_name_H-M    P1
_symmetry_Int_Tables_number       1
_space_group_crystal_system       triclinic
_cell_length_a                    22.466057
_cell_length_b                    12.986962
_cell_length_c                    26.847861
_cell_angle_alpha                 90.31339
_cell_angle_beta                  90.678939
_cell_angle_gamma                 89.918257
_cell_volume                      7832.61402439

loop_
_atom_site_label
_atom_site_type_symbol
_atom_type_description
_atom_site_fract_x
_atom_site_fract_y
_atom_site_fract_z
_atom_type_partial_charge
C1    C     C_R   0.721326 0.346233 0.179040 0.608592
C2    C     C_R   0.278710 0.346366 0.821015 0.612744
C3    C     C_R   0.221325 0.846237 0.179041 0.608536
C4    C     C_R   0.778709 0.846371 0.821014 0.612714
C5    C     C_R   0.484671 0.163612 0.868359 0.004248
C6    C     C_R   0.517369 0.161596 0.130049 0.058973
C7    C     C_R   0.984666 0.663615 0.868362 0.004241
C8    C     C_R   0.017361 0.661586 0.130053 0.058984
C9    C     C_R   0.509929 0.256469 0.105624 0.202856
C10   C     C_R   0.492463 0.258521 0.893220 0.211577
C11   C     C_R   0.009900 0.756457 0.105632 0.202858
C12   C     C_R   0.992445 0.758524 0.893226 0.211561
C13   C     C_R   0.507973 0.260162 0.052588 0.068272
C14   C     C_R   0.496057 0.261788 0.946358 0.068499
C15   C     C_R   0.007940 0.760157 0.052595 0.068279
C16   C     C_R   0.996031 0.761787 0.946364 0.068480
C17   C     C_R   0.501950 0.166563 0.025565 0.035626
C18   C     C_R   0.498038 0.167304 0.972678 0.032563
C19   C     C_R   0.001936 0.666557 0.025569 0.035632
C20   C     C_R   0.998024 0.667301 0.972683 0.032556
C21   C     C_R   0.511084 0.353941 0.025663 0.019976
C22   C     C_R   0.497156 0.355295 0.974195 0.014800
C23   C     C_R   0.011032 0.853941 0.025672 0.019956
C24   C     C_R   0.997110 0.855291 0.974203 0.014767
C25   C     C_R   0.738589 0.964803 0.126501 0.034258
C26   C     C_R   0.261743 0.966294 0.873724 0.033609
C27   C     C_R   0.238569 0.464904 0.126482 0.034325
C28   C     C_R   0.761747 0.466336 0.873731 0.033655
C29   C     C_R   0.776883 0.019471 0.093693 0.026318
C30   C     C_R   0.222679 0.020264 0.906547 0.020229
C31   C     C_R   0.276714 0.519796 0.093635 0.026364
C32   C     C_R   0.722769 0.520439 0.906578 0.020250
C33   C     C_R   0.767141 0.013181 0.042385 -0.015335
C34   C     C_R   0.231664 0.013714 0.957969 -0.019620
C35   C     C_R   0.266959 0.513362 0.042334 -0.015374
C36   C     C_R   0.731767 0.513812 0.957996 -0.019552
C37   C     C_R   0.724623 0.946662 0.022398 -0.000412
C38   C     C_R   0.274711 0.948469 0.978016 0.000742
C39   C     C_R   0.224562 0.446572 0.022391 -0.000472
C40   C     C_R   0.774750 0.448409 0.978016 0.000756
C41   C     C_R   0.690020 0.886551 0.053754 -0.116603
C42   C     C_R   0.310452 0.889678 0.946591 -0.115162
C43   C     C_R   0.190090 0.386307 0.053781 -0.116596
C44   C     C_R   0.810409 0.389518 0.946567 -0.115191
C45   C     C_R   0.550936 0.156993 0.178558 0.605122
C46   C     C_R   0.449745 0.157498 0.820797 0.567621
C47   C     C_R   0.050932 0.656991 0.178560 0.605102
C48   C     C_R   0.949744 0.657498 0.820798 0.567612
C49   C     C_R   0.697052 0.893358 0.105582 0.011127
C50   C     C_R   0.303856 0.896112 0.894725 0.016007
C51   C     C_R   0.197145 0.393214 0.105605 0.010978
C52   C     C_R   0.803793 0.396004 0.894705 0.015954
C53   C     C_R   0.775374 0.843602 0.959667 0.207082
C54   C     C_R   0.225709 0.842933 0.040313 0.211943
C55   C     C_R   0.275361 0.343577 0.959666 0.206954
C56   C     C_R   0.725733 0.342888 0.040314 0.211697
C57   C     C_R   0.788463 0.818963 0.910705 0.173393
C58   C     C_R   0.212820 0.817707 0.089149 0.182028
C59   C     C_R   0.288460 0.318949 0.910706 0.173187
C60   C     C_R   0.712846 0.317659 0.089150 0.181662
C61   C     C_R   0.717028 0.947253 0.881014 0.168052
C62   C     C_R   0.281292 0.950275 0.119651 0.160477
C63   C     C_R   0.217016 0.447222 0.881011 0.168017
C64   C     C_R   0.781301 0.450254 0.119651 0.160430
C65   C     C_R   0.700372 0.967840 0.930979 0.021567
C66   C     C_R   0.297957 0.971479 0.069814 0.000082
C67   C     C_R   0.200339 0.467774 0.930974 0.021508
C68   C     C_R   0.797984 0.471431 0.069815 0.000008
C69   C     C_R   0.731283 0.916995 0.970017 -0.066125
C70   C     C_R   0.268228 0.918899 0.030386 -0.068050
C71   C     C_R   0.231236 0.416910 0.970013 -0.066211
C72   C     C_R   0.768263 0.418839 0.030387 -0.068222
C73   C     C_R   0.762041 0.874518 0.871575 0.020361
C74   C     C_R   0.238114 0.874472 0.128626 0.020806
C75   C     C_R   0.262039 0.374504 0.871575 0.020294
C76   C     C_R   0.738121 0.374454 0.128626 0.020669
C77   C     C_R   0.521619 0.173546 0.369564 -0.006213
C78   C     C_R   0.482973 0.168334 0.632807 0.001520
C79   C     C_R   0.021618 0.673547 0.369564 -0.006218
C80   C     C_R   0.982973 0.668335 0.632807 0.001517
C81   C     C_R   0.530910 0.265443 0.397953 -0.009755
C82   C     C_R   0.485046 0.264253 0.607691 -0.017469
C83   C     C_R   0.030910 0.765442 0.397954 -0.009755
C84   C     C_R   0.985044 0.764253 0.607690 -0.017475
C85   C     C_R   0.526070 0.262865 0.449578 -0.142108
C86   C     C_R   0.489383 0.265276 0.555876 -0.139168
C87   C     C_R   0.026067 0.762864 0.449579 -0.142102
C88   C     C_R   0.989377 0.765276 0.555876 -0.139169
C89   C     C_R   0.731293 0.002594 0.178574 0.596741
C90   C     C_R   0.268832 0.003174 0.821560 0.592097
C91   C     C_R   0.231286 0.502629 0.178564 0.596944
C92   C     C_R   0.768834 0.503191 0.821564 0.592238
C93   C     C_R   0.504475 0.175732 0.473725 0.009402
C94   C     C_R   0.499752 0.174370 0.528873 0.009580
C95   C     C_R   0.004468 0.675732 0.473725 0.009405
C96   C     C_R   0.999745 0.674370 0.528872 0.009578
C97   C     C_R   0.485941 0.090958 0.444859 -0.042494
C98   C     C_R   0.508788 0.082597 0.555048 -0.069681
C99   C     C_R   0.985933 0.590961 0.444857 -0.042495
C100  C     C_R   0.008785 0.582597 0.555047 -0.069710
C101  C     C_R   0.493906 0.088743 0.393027 0.000400
C102  C     C_R   0.501556 0.078465 0.606772 -0.005272
C103  C     C_R   0.993901 0.588745 0.393025 0.000405
C104  C     C_R   0.001556 0.578467 0.606772 -0.005303
C105  C     C_R   0.744927 0.951941 0.370781 0.043950
C106  C     C_R   0.254623 0.942222 0.631114 0.048723
C107  C     C_R   0.244928 0.451940 0.370781 0.043951
C108  C     C_R   0.754630 0.442231 0.631111 0.048725
C109  C     C_R   0.719167 0.855319 0.383118 -0.024564
C110  C     C_R   0.300935 0.887229 0.606659 -0.032082
C111  C     C_R   0.219166 0.355320 0.383119 -0.024567
C112  C     C_R   0.800958 0.387310 0.606639 -0.032102
C113  C     C_R   0.721841 0.821838 0.432640 -0.088496
C114  C     C_R   0.298108 0.875507 0.555066 -0.114510
C115  C     C_R   0.221841 0.321838 0.432640 -0.088514
C116  C     C_R   0.798119 0.375612 0.555045 -0.114499
C117  C     C_R   0.750995 0.881385 0.468763 0.020129
C118  C     C_R   0.248099 0.908887 0.528694 0.014580
C119  C     C_R   0.250998 0.381383 0.468762 0.020117
C120  C     C_R   0.748088 0.408943 0.528688 0.014592
C121  C     C_R   0.779683 0.971898 0.455837 -0.092354
C122  C     C_R   0.198414 0.945840 0.553547 -0.087824
C123  C     C_R   0.279688 0.471894 0.455836 -0.092355
C124  C     C_R   0.698396 0.445822 0.553556 -0.087834
C125  C     C_R   0.777789 0.007271 0.407650 0.136820
C126  C     C_R   0.200796 0.961867 0.604572 0.154181
C127  C     C_R   0.277793 0.507267 0.407649 0.136820
C128  C     C_R   0.700788 0.461828 0.604583 0.154185
C129  C     C_R   0.811388 0.842788 0.541806 -0.128312
C130  C     C_R   0.206432 0.818610 0.457027 -0.143743
C131  C     C_R   0.311389 0.342784 0.541806 -0.128326
C132  C     C_R   0.706422 0.318654 0.457026 -0.143746
C133  C     C_R   0.721256 0.348094 0.321416 0.543413
C134  C     C_R   0.280151 0.343388 0.676881 0.548938
C135  C     C_R   0.221256 0.848091 0.321417 0.543420
C136  C     C_R   0.780151 0.843388 0.676881 0.548940
C137  C     C_R   0.819097 0.847464 0.592761 -0.129693
C138  C     C_R   0.199686 0.805071 0.406359 -0.108121
C139  C     C_R   0.319097 0.347459 0.592761 -0.129698
C140  C     C_R   0.699686 0.305090 0.406359 -0.108105
C141  C     C_R   0.712206 0.859211 0.603389 -0.071869
C142  C     C_R   0.270059 0.943392 0.391232 -0.067096
C143  C     C_R   0.212207 0.359213 0.603389 -0.071852
C144  C     C_R   0.770047 0.443427 0.391225 -0.067102
C145  C     C_R   0.704239 0.857972 0.551692 0.181728
C146  C     C_R   0.276625 0.958144 0.442559 0.192580
C147  C     C_R   0.204240 0.357976 0.551692 0.181742
C148  C     C_R   0.776604 0.458201 0.442551 0.192542
C149  C     C_R   0.754400 0.851854 0.520859 0.051633
C150  C     C_R   0.244697 0.894761 0.475275 0.045780
C151  C     C_R   0.254402 0.351854 0.520858 0.051613
C152  C     C_R   0.744677 0.394823 0.475269 0.045774
C153  C     C_R   0.769873 0.857688 0.623895 0.002545
C154  C     C_R   0.231366 0.867139 0.373571 0.033408
C155  C     C_R   0.269873 0.357687 0.623895 0.002537
C156  C     C_R   0.731366 0.367152 0.373568 0.033432
C157  C     C_R   0.552633 0.159912 0.321083 0.521758
C158  C     C_R   0.448512 0.158846 0.679730 0.531863
C159  C     C_R   0.052633 0.659912 0.321083 0.521750
C160  C     C_R   0.948512 0.658846 0.679730 0.531849
C161  C     C_R   0.732216 0.002299 0.323046 0.602809
C162  C     C_R   0.267187 0.998530 0.677993 0.590642
C163  C     C_R   0.232216 0.502299 0.323046 0.602861
C164  C     C_R   0.767188 0.498531 0.677992 0.590660
C165  C     C_R   0.504253 0.069356 0.103680 0.011981
C166  C     C_R   0.498420 0.071846 0.893763 0.003984
C167  C     C_R   0.004262 0.569341 0.103680 0.012024
C168  C     C_R   0.998420 0.571850 0.893764 0.003999
C169  C     C_R   0.498844 0.071487 0.051284 -0.002866
C170  C     C_R   0.496569 0.072518 0.946168 0.042835
C171  C     C_R   0.998850 0.571477 0.051285 -0.002856
C172  C     C_R   0.996568 0.572516 0.946169 0.042812
C173  C     C_R   0.489538 0.980663 0.972478 -0.105441
C174  C     C_R   0.490049 0.980159 0.023859 -0.162973
C175  C     C_R   0.989550 0.480656 0.972478 -0.105459
C176  C     C_R   0.990067 0.480147 0.023859 -0.162986
Cr1   Cr    Cr6+3 0.756570 0.170940 0.251190 1.134405
Cr2   Cr    Cr6+3 0.243430 0.170940 0.748810 1.125834
Cr3   Cr    Cr6+3 0.256570 0.670940 0.251190 1.134393
Cr4   Cr    Cr6+3 0.743430 0.670940 0.748810 1.125809
Cr5   Cr    Cr6+3 0.623740 0.299110 0.249580 1.165897
Cr6   Cr    Cr6+3 0.376260 0.299110 0.750420 1.169583
Cr7   Cr    Cr6+3 0.123740 0.799110 0.249580 1.165855
Cr8   Cr    Cr6+3 0.876260 0.799110 0.750420 1.169557
Cr9   Cr    Cr6+3 0.625990 0.036240 0.250480 1.130978
Cr10  Cr    Cr6+3 0.374010 0.036240 0.749520 1.118885
Cr11  Cr    Cr6+3 0.125990 0.536240 0.250480 1.130902
Cr12  Cr    Cr6+3 0.874010 0.536240 0.749520 1.118863
H1    H     H_    0.660279 0.829494 0.037514 0.128801
H2    H     H_    0.340800 0.833724 0.962771 0.123500
H3    H     H_    0.160441 0.329068 0.037570 0.128851
H4    H     H_    0.840701 0.333457 0.962728 0.123505
H5    H     H_    0.521820 0.013822 0.535048 0.196919
H6    H     H_    0.465057 0.026149 0.462841 0.193469
H7    H     H_    0.021816 0.513822 0.535047 0.196918
H8    H     H_    0.965046 0.526154 0.462838 0.193440
H9    H     H_    0.539564 0.330197 0.470770 0.101890
H10   H     H_    0.484407 0.338106 0.536889 0.104987
H11   H     H_    0.039562 0.830194 0.470771 0.101898
H12   H     H_    0.984400 0.838105 0.536888 0.104993
H13   H     H_    0.850321 0.838182 0.518392 0.147241
H14   H     H_    0.181549 0.770212 0.482109 0.132702
H15   H     H_    0.350322 0.338175 0.518392 0.147233
H16   H     H_    0.681542 0.270255 0.482109 0.132697
H17   H     H_    0.863672 0.840238 0.607913 0.129071
H18   H     H_    0.169796 0.745669 0.392518 0.116463
H19   H     H_    0.363672 0.340230 0.607913 0.129071
H20   H     H_    0.669804 0.245674 0.392520 0.116469
H21   H     H_    0.480612 0.908366 0.953724 0.170665
H22   H     H_    0.483634 0.906458 0.041402 0.114765
H23   H     H_    0.980631 0.408357 0.953724 0.170759
H24   H     H_    0.983665 0.406441 0.041401 0.114828
H25   H     H_    0.701944 0.749168 0.443073 0.155916
H26   H     H_    0.334208 0.838308 0.535361 0.153313
H27   H     H_    0.201942 0.249171 0.443074 0.155898
H28   H     H_    0.834229 0.338469 0.535328 0.153336
H29   H     H_    0.673825 0.862375 0.627410 0.172298
H30   H     H_    0.293973 0.991649 0.365494 0.157205
H31   H     H_    0.173826 0.362380 0.627409 0.172318
H32   H     H_    0.793958 0.491683 0.365484 0.157205
H33   H     H_    0.803032 0.016851 0.484069 0.151199
H34   H     H_    0.158055 0.964261 0.532894 0.145378
H35   H     H_    0.303039 0.516845 0.484067 0.151186
H36   H     H_    0.658022 0.464201 0.532915 0.145360
H37   H     H_    0.796597 0.053222 0.017277 0.181227
H38   H     H_    0.201453 0.052873 0.983027 0.176726
H39   H     H_    0.296311 0.553567 0.017201 0.181207
H40   H     H_    0.701618 0.553065 0.983072 0.176788
O1    O     O_R   0.769900 0.064540 0.196060 -0.526865
O2    O     O_R   0.230100 0.064540 0.803940 -0.523847
O3    O     O_R   0.269900 0.564540 0.196060 -0.526854
O4    O     O_R   0.730100 0.564540 0.803940 -0.523837
O5    O     O_R   0.574760 0.239320 0.300850 -0.457786
O6    O     O_R   0.425240 0.239320 0.699150 -0.463272
O7    O     O_R   0.074760 0.739320 0.300850 -0.457781
O8    O     O_R   0.925240 0.739320 0.699150 -0.463272
O9    O     O_R   0.566290 0.069580 0.305400 -0.525889
O10   O     O_R   0.433710 0.069580 0.694600 -0.536292
O11   O     O_R   0.066290 0.569580 0.305400 -0.525895
O12   O     O_R   0.933710 0.569580 0.694600 -0.536299
O13   O     O_R   0.680760 0.993330 0.302620 -0.470194
O14   O     O_R   0.319240 0.993330 0.697380 -0.462459
O15   O     O_R   0.180760 0.493330 0.302620 -0.470191
O16   O     O_R   0.819240 0.493330 0.697380 -0.462457
O17   O     O_3   0.668770 0.168760 0.250420 -0.299615
O18   O     O_3   0.331230 0.168760 0.749580 -0.291086
O19   O     O_3   0.168770 0.668760 0.250420 -0.299631
O20   O     O_3   0.831230 0.668760 0.749580 -0.291090
O21   O     O_R   0.750800 0.274080 0.199250 -0.479754
O22   O     O_R   0.249200 0.274080 0.800750 -0.476403
O23   O     O_R   0.250800 0.774080 0.199250 -0.479738
O24   O     O_R   0.749200 0.774080 0.800750 -0.476401
O25   O     O_R   0.669990 0.371670 0.194150 -0.443545
O26   O     O_R   0.330010 0.371670 0.805850 -0.443052
O27   O     O_R   0.169990 0.871670 0.194150 -0.443627
O28   O     O_R   0.830010 0.871670 0.805850 -0.443084
O29   O     O_R   0.574600 0.238480 0.197800 -0.435644
O30   O     O_R   0.425400 0.238480 0.802200 -0.419508
O31   O     O_R   0.074600 0.738480 0.197800 -0.435623
O32   O     O_R   0.925400 0.738480 0.802200 -0.419506
O33   O     O_R   0.566130 0.068680 0.194240 -0.494389
O34   O     O_R   0.433870 0.068680 0.805760 -0.543586
O35   O     O_R   0.066130 0.568680 0.194240 -0.494418
O36   O     O_R   0.933870 0.568680 0.805760 -0.543575
O37   O     O_R   0.680610 0.992490 0.199570 -0.447209
O38   O     O_R   0.319390 0.992490 0.800430 -0.443117
O39   O     O_R   0.180610 0.492490 0.199570 -0.447294
O40   O     O_R   0.819390 0.492490 0.800430 -0.443167
O41   O     O_R   0.770060 0.065440 0.307230 -0.455777
O42   O     O_R   0.229940 0.065440 0.692770 -0.462356
O43   O     O_R   0.270060 0.565440 0.307230 -0.455745
O44   O     O_R   0.729940 0.565440 0.692770 -0.462349
O45   O     O_R   0.750960 0.274920 0.302300 -0.463757
O46   O     O_R   0.249040 0.274920 0.697700 -0.494256
O47   O     O_R   0.250960 0.774920 0.302300 -0.463766
O48   O     O_R   0.749040 0.774920 0.697700 -0.494277
O49   O     O_R   0.670160 0.372580 0.305320 -0.505957
O50   O     O_R   0.329840 0.372580 0.694680 -0.497696
O51   O     O_R   0.170160 0.872580 0.305320 -0.505946
O52   O     O_R   0.829840 0.872580 0.694680 -0.497690
C177  C     C_2   0.522358 0.981860 0.864870 0.292807
H41   H     H_    0.524796 0.984703 0.824624 0.160473
O53   O     O_2   0.544648 0.907159 0.885258 -0.487419
C178  C     C_2   0.494612 0.971290 0.130979 0.293240
H42   H     H_    0.515381 0.900255 0.118751 0.081189
O54   O     O_2   0.463121 0.969678 0.167719 -0.415911
C179  C     C_2   0.022360 0.481870 0.864868 0.292851
H43   H     H_    0.024803 0.484724 0.824623 0.160471
O55   O     O_2   0.044648 0.407162 0.885253 -0.487407
C180  C     C_2   0.994647 0.471261 0.130974 0.293229
H44   H     H_    0.015453 0.400254 0.118750 0.081306
O56   O     O_2   0.963140 0.469606 0.167703 -0.415925
Br1   Br    Br    0.678794 0.012646 0.824534 -0.364308
Br2   Br    Br    0.315911 0.020620 0.176649 -0.294237
Br3   Br    Br    0.178795 0.512638 0.824532 -0.364353
Br4   Br    Br    0.815907 0.520623 0.176649 -0.294292
C181  C     C_2   0.662680 0.819656 0.135889 0.276889
H45   H     H_    0.621949 0.786246 0.120859 0.095923
O57   O     O_2   0.680882 0.791243 0.176591 -0.406703
C182  C     C_2   0.339441 0.823255 0.864457 0.283544
H46   H     H_    0.380817 0.792329 0.879442 0.114182
O58   O     O_2   0.321578 0.792683 0.823878 -0.419826
C183  C     C_2   0.162921 0.319377 0.135952 0.276802
H47   H     H_    0.122256 0.285689 0.120942 0.096192
O59   O     O_2   0.181174 0.291173 0.176674 -0.406614
C184  C     C_2   0.839285 0.323056 0.864411 0.283534
H48   H     H_    0.880620 0.291952 0.879386 0.114270
O60   O     O_2   0.821385 0.292609 0.823820 -0.419843
C185  C     C_2   0.545361 0.366984 0.376264 0.280013
H49   H     H_    0.576012 0.418348 0.395652 0.097052
O61   O     O_2   0.519963 0.397213 0.338621 -0.427000
C186  C     C_2   0.484148 0.365491 0.633543 0.284862
H50   H     H_    0.467694 0.433145 0.614164 0.112254
O62   O     O_2   0.505178 0.375771 0.675421 -0.408905
C187  C     C_2   0.045365 0.866982 0.376266 0.280008
H51   H     H_    0.076020 0.918341 0.395654 0.097049
O63   O     O_2   0.019969 0.897216 0.338624 -0.427017
C188  C     C_2   0.984151 0.865491 0.633543 0.284849
H52   H     H_    0.967696 0.933146 0.614166 0.112279
O64   O     O_2   0.005186 0.875769 0.675419 -0.408949
C189  C     C_2   0.515604 0.980722 0.632943 0.267705
H53   H     H_    0.525958 0.981168 0.672511 0.141911
O65   O     O_2   0.516656 0.898686 0.610525 -0.464735
C190  C     C_2   0.470932 0.999301 0.363920 0.284919
H54   H     H_    0.465891 0.003935 0.323773 0.154793
O66   O     O_2   0.456133 0.919883 0.384528 -0.451185
C191  C     C_2   0.015614 0.480729 0.632945 0.267665
H55   H     H_    0.025961 0.481179 0.672513 0.141931
O67   O     O_2   0.016683 0.398694 0.610527 -0.464734
C192  C     C_2   0.970927 0.499306 0.363918 0.284911
H56   H     H_    0.965890 0.503939 0.323770 0.154789
O68   O     O_2   0.956123 0.419889 0.384525 -0.451199
C193  C     C_2   0.691020 0.785231 0.345922 0.265129
H57   H     H_    0.660611 0.725883 0.358193 0.121143
O69   O     O_2   0.703511 0.789091 0.301843 -0.423691
C194  C     C_2   0.352139 0.838606 0.632787 0.268374
H58   H     H_    0.394093 0.828855 0.613666 0.147969
O70   O     O_2   0.346948 0.803022 0.674514 -0.432903
C195  C     C_2   0.191016 0.285234 0.345924 0.265118
H59   H     H_    0.160604 0.225890 0.358195 0.121126
O71   O     O_2   0.203507 0.289090 0.301845 -0.423604
C196  C     C_2   0.852194 0.338743 0.632747 0.268389
H60   H     H_    0.894151 0.329099 0.613620 0.148000
O72   O     O_2   0.847028 0.303088 0.674462 -0.432894
Br5   Br    Br    0.625202 0.870931 0.524843 -0.483171
Br6   Br    Br    0.326293 0.068298 0.466467 -0.551194
Br7   Br    Br    0.125204 0.370941 0.524841 -0.483143
Br8   Br    Br    0.826262 0.568375 0.466452 -0.551260
Br9   Br    Br    0.819659 0.135131 0.398017 -0.427340
Br10  Br    Br    0.128372 0.010575 0.634326 -0.387482
Br11  Br    Br    0.319667 0.635122 0.398014 -0.427333
Br12  Br    Br    0.628359 0.510442 0.634362 -0.387461
Br13  Br    Br    0.515234 0.373281 0.851765 -0.365251
Br14  Br    Br    0.485952 0.372119 0.146703 -0.372456
Br15  Br    Br    0.015211 0.873298 0.851778 -0.365367
Br16  Br    Br    0.985910 0.872088 0.146718 -0.372604
C197  C     C_2   0.477361 0.454265 0.952178 0.275171
H61   H     H_    0.504200 0.523172 0.956515 0.115210
O73   O     O_2   0.429444 0.459940 0.930385 -0.432587
C198  C     C_2   0.534986 0.449655 0.048858 0.276253
H62   H     H_    0.513039 0.523085 0.042951 0.107160
O74   O     O_2   0.581024 0.447364 0.073485 -0.439036
C199  C     C_2   0.977298 0.954253 0.952187 0.275236
H63   H     H_    0.004122 0.023175 0.956530 0.115358
O75   O     O_2   0.929385 0.959901 0.930387 -0.432692
C200  C     C_2   0.034909 0.949669 0.048871 0.276261
H64   H     H_    0.012938 0.023081 0.042971 0.107405
O76   O     O_2   0.080951 0.947412 0.073492 -0.439153
C201  C     C_2   0.829319 0.080162 0.110932 0.283965
H65   H     H_    0.854393 0.057162 0.143796 0.171090
O77   O     O_2   0.846073 0.155213 0.087740 -0.510390
C202  C     C_2   0.170118 0.080299 0.889174 0.282749
H66   H     H_    0.145560 0.057018 0.855988 0.174403
O78   O     O_2   0.152643 0.155104 0.912631 -0.491682
C203  C     C_2   0.328984 0.580976 0.110820 0.283704
H67   H     H_    0.354234 0.558119 0.143614 0.170957
O79   O     O_2   0.345402 0.656292 0.087656 -0.510641
C204  C     C_2   0.670291 0.580731 0.889242 0.282614
H68   H     H_    0.645640 0.557538 0.856089 0.174345
O80   O     O_2   0.652990 0.655663 0.912697 -0.491802
Br17  Br    Br    0.821122 0.780961 0.012834 -0.435651
Br18  Br    Br    0.181955 0.777121 0.986684 -0.436452
Br19  Br    Br    0.321171 0.281070 0.012833 -0.435583
Br20  Br    Br    0.681936 0.277159 0.986688 -0.436515
Br21  Br    Br    0.839702 0.703430 0.897885 -0.483794
Br22  Br    Br    0.162205 0.701542 0.101425 -0.495962
Br23  Br    Br    0.339704 0.203422 0.897890 -0.483864
Br24  Br    Br    0.662265 0.201448 0.101427 -0.496095
C205  C     C_2   0.651528 0.040433 0.943670 0.344943
H69   H     H_    0.631773 0.038504 0.980346 0.126277
O81   O     O_2   0.633341 0.104707 0.914250 -0.413733
C206  C     C_2   0.345722 0.046125 0.057564 0.311179
H70   H     H_    0.362853 0.049416 0.019997 0.132913
O82   O     O_2   0.366387 0.105743 0.088416 -0.397539
C207  C     C_2   0.151493 0.540364 0.943663 0.344951
H71   H     H_    0.131716 0.538397 0.980330 0.126243
O83   O     O_2   0.133332 0.604679 0.914253 -0.413740
C208  C     C_2   0.845754 0.546068 0.057566 0.311221
H72   H     H_    0.862890 0.549351 0.020001 0.132897
O84   O     O_2   0.866417 0.605689 0.088418 -0.397578

loop_
_geom_bond_atom_site_label_1
_geom_bond_atom_site_label_2
_ccdc_geom_bond_type
C99   C103  A    
C7    C168  A    
C197  H61   S    
C125  Br9   S    
C148  Br8   S    
C142  C146  A    
C77   C101  A    
C19   C20   A    
C127  Br11  S    
C116  H28   S    
C53   C69   A    
C38   C70   S    
C183  O59   D    
C193  H57   S    
C108  C164  S    
Cr12  O40   S    
C35   H39   S    
C178  H42   S    
C55   Br19  S    
C55   C59   A    
C26   C50   A    
C95   C99   A    
Cr5   O29   S    
C92   O4    A    
C29   C33   A    
C100  C104  A    
C133  O49   A    
C202  H66   S    
C3    C74   S    
C9    C13   A    
C50   C182  S    
Cr2   O18   S    
C131  C151  A    
C12   C16   A    
C190  H54   S    
C56   C72   A    
C169  C174  A    
C179  O55   D    
C161  O13   A    
C130  H14   S    
C172  C175  A    
C141  C145  A    
C138  C154  A    
C203  O79   D    
C6    C165  A    
C21   C22   A    
Cr8   O20   S    
C58   Br22  S    
C91   O39   A    
C2    O26   A    
C41   C49   A    
C18   C170  A    
C25   C29   A    
C120  C152  S    
C192  H56   S    
C27   C31   A    
C28   C32   A    
C4    O24   A    
C206  O82   D    
Cr10  O14   S    
C62   C66   A    
C196  H60   S    
C167  C171  A    
C98   C102  A    
C123  H35   S    
C60   C76   A    
C176  H24   S    
C98   H5    S    
Cr12  O12   S    
C112  C196  S    
C78   C82   A    
C168  C179  S    
C183  H47   S    
C54   C70   A    
Cr3   O47   S    
C16   C20   A    
C63   Br3   S    
C184  H48   S    
C137  C153  A    
C64   Br4   S    
C30   C202  S    
C49   C181  S    
C54   Br18  S    
C22   C197  S    
C158  O10   A    
Cr4   O20   S    
C20   C172  A    
C205  H69   S    
C132  C152  A    
Cr3   O3    S    
C130  C138  A    
C145  Br5   S    
C182  H46   S    
C48   O32   A    
C34   H38   S    
C21   C198  S    
C84   C88   A    
Cr7   O27   S    
C194  H58   S    
C203  H67   S    
Cr7   O51   S    
C119  C123  A    
C26   C90   S    
C5    C46   S    
C33   H37   S    
C105  C125  A    
C7    C48   S    
C128  Br12  S    
C8    C47   S    
C107  C127  A    
C44   H4    S    
C51   C183  S    
C136  C153  S    
C66   C70   A    
C62   Br2   S    
Cr5   O17   S    
Cr6   O6    S    
C92   O40   A    
C32   C204  S    
C129  C137  A    
C189  H53   S    
C122  H34   S    
C163  O43   A    
C39   C71   S    
C105  C161  S    
C117  C149  S    
C204  H68   S    
C55   C71   A    
C2    C75   S    
C11   Br16  S    
C46   O30   A    
C114  H26   S    
C6    C9    A    
Cr9   O37   S    
Cr6   O50   S    
Cr10  O34   S    
C167  C180  S    
C121  C125  A    
C31   C203  S    
C64   C68   A    
C3    O23   A    
C144  H32   S    
C1    O21   A    
C186  H50   S    
C118  C122  A    
C57   C73   A    
C142  H30   S    
C110  C194  S    
C143  C155  A    
C78   C158  S    
Cr9   O9    S    
C124  H36   S    
C87   C95   A    
C130  C150  A    
C23   C24   A    
C27   C91   S    
C175  H23   S    
C110  C114  A    
C135  O47   A    
C129  H13   S    
C44   C52   A    
C146  C150  A    
C181  O57   D    
C165  C178  S    
C79   C103  A    
C11   C15   A    
C198  H62   S    
C27   C51   A    
C25   C49   A    
C185  O61   D    
C7    C12   A    
Cr6   O30   S    
C133  O45   A    
C30   C34   A    
C13   C21   A    
C10   C14   A    
C191  O67   D    
C108  C128  A    
C116  C120  A    
C91   O3    A    
C88   C96   A    
C144  C156  A    
C147  C151  A    
C129  C149  A    
C61   C65   A    
C37   C69   S    
C123  C127  A    
C139  C155  A    
C60   Br24  S    
C54   C58   A    
C17   C18   A    
C5    C166  A    
C142  C154  A    
C59   Br23  S    
C4    C73   S    
C139  H19   S    
C42   C50   A    
C113  C117  A    
C57   Br21  S    
C107  C163  S    
C166  C170  A    
C115  C119  A    
C160  O8    A    
C208  O84   D    
C4    O28   A    
C117  C121  A    
C93   C97   A    
C112  C116  A    
C58   C74   A    
C105  C109  A    
C159  O11   A    
C40   C72   S    
C84   C188  S    
C1    C76   S    
C107  C111  A    
C173  H21   S    
C148  C152  A    
Cr1   O41   S    
C26   C30   A    
Cr3   O43   S    
C177  O53   D    
C171  C176  A    
C13   C17   A    
C14   C22   A    
C178  O54   D    
C158  O6    A    
Cr4   O24   S    
C141  C153  A    
C63   C75   A    
C96   C100  A    
C202  O78   D    
C89   O37   A    
Cr8   O28   S    
C37   C41   A    
C131  C139  A    
C143  H31   S    
C40   C44   A    
C56   C60   A    
C190  O66   D    
C90   O2    A    
C166  C177  S    
C81   C85   A    
Cr7   O7    S    
C201  O77   D    
C83   C87   A    
C126  Br10  S    
C6    C45   S    
C78   C102  A    
C133  C156  S    
C87   H11   S    
C45   O33   A    
C80   C84   A    
C138  H18   S    
Cr1   O45   S    
C24   C199  S    
C15   C19   A    
Cr8   O32   S    
C135  C154  S    
C192  O68   D    
C80   C104  A    
C135  O51   A    
C136  O52   A    
Cr6   O18   S    
C79   C159  S    
C196  O72   D    
C80   C160  S    
Cr10  O18   S    
C147  Br7   S    
C94   C98   A    
C180  H44   S    
C188  O64   D    
C118  C150  S    
C200  H64   S    
Cr8   O8    S    
C141  H29   S    
Cr1   O17   S    
C47   O31   A    
C184  O60   D    
C199  H63   S    
C162  O14   A    
C131  H15   S    
C81   C185  S    
C124  C128  A    
Cr10  O38   S    
C187  H51   S    
C197  O73   D    
C174  H22   S    
C165  C169  A    
C159  O7    A    
C140  H20   S    
C182  O58   D    
C193  O69   D    
C132  H16   S    
C134  O50   A    
Cr11  O15   S    
C53   C57   A    
Cr9   O13   S    
C61   C73   A    
C82   C86   A    
C99   H8    S    
Cr2   O2    S    
C65   C205  S    
C108  C112  A    
C97   H6    S    
C35   C39   A    
C9    Br14  S    
C8    C167  A    
Cr3   O23   S    
C195  H59   S    
C77   C81   A    
Cr1   O21   S    
Cr7   O19   S    
Cr4   O44   S    
Cr5   O25   S    
C85   H9    S    
C61   Br1   S    
C31   C35   A    
Cr12  O16   S    
Cr8   O52   S    
C204  O80   D    
C146  Br6   S    
C32   C36   A    
C100  H7    S    
C206  H70   S    
Cr11  O11   S    
C207  H71   S    
C68   C208  S    
C132  C140  A    
C194  O70   D    
C67   C207  S    
C106  C126  A    
C25   C89   S    
C83   C187  S    
C161  O41   A    
C88   H12   S    
C191  H55   S    
C79   C83   A    
C43   C51   A    
C65   C69   A    
C186  O62   D    
C67   C71   A    
C106  C162  S    
C104  C191  S    
C33   C37   A    
Cr5   O5    S    
C168  C172  A    
C205  O81   D    
C121  H33   S    
C62   C74   A    
C145  C149  A    
Cr2   O42   S    
C170  C173  A    
C10   Br13  S    
Cr5   O49   S    
C93   C94   S    
C207  O83   D    
C181  H45   S    
C14   C18   A    
C95   C96   S    
C113  H25   S    
C144  C148  A    
Cr9   O33   S    
C198  O74   D    
C137  H17   S    
C173  C174  A    
C143  C147  A    
C53   Br17  S    
C66   C206  S    
C90   O38   A    
C19   C171  A    
C38   C42   A    
C45   O29   A    
C2    O22   A    
Cr1   O1    S    
C17   C169  A    
C23   C200  S    
C42   H2    S    
C29   C201  S    
C86   C94   A    
Cr10  O10   S    
C175  C176  A    
C189  O65   D    
Cr2   O22   S    
Cr11  O19   S    
C68   C72   A    
Cr2   O46   S    
C15   C23   A    
C164  O44   A    
C43   H3    S    
C16   C24   A    
C199  O75   D    
C136  O48   A    
C85   C93   A    
C3    O27   A    
C56   Br20  S    
C119  C151  S    
C63   C67   A    
C187  O63   D    
C115  H27   S    
C102  C189  S    
C36   C40   A    
C39   C43   A    
C47   O35   A    
C177  H41   S    
C48   O36   A    
C122  C126  A    
C188  H52   S    
C1    O25   A    
Cr6   O26   S    
C101  C190  S    
Cr11  O39   S    
C64   C76   A    
C103  C192  S    
C28   C92   S    
C163  O15   A    
C114  C118  A    
C134  C155  S    
C195  O71   D    
C140  C156  A    
C179  H43   S    
C134  O46   A    
C111  C195  S    
C59   C75   A    
Cr9   O17   S    
C201  H65   S    
C106  C110  A    
C157  O9    A    
C82   C186  S    
Cr4   O4    S    
C12   Br15  S    
C160  O12   A    
C34   C38   A    
Cr3   O19   S    
C41   H1    S    
C52   C184  S    
C109  C113  A    
C46   O34   A    
C162  O42   A    
Cr12  O36   S    
Cr7   O31   S    
C5    C10   A    
Cr4   O48   S    
C109  C193  S    
C28   C52   A    
C157  O5    A    
C8    C11   A    
Cr11  O35   S    
Cr12  O20   S    
C185  H49   S    
C180  O56   D    
C86   H10   S    
C200  O76   D    
C36   H40   S    
C208  H72   S    
C111  C115  A    
C89   O1    A    
C97   C101  A    
C120  C124  A    
C77   C157  S    
C164  O16   A    
