data_mof_unit_51635.cif
_audit_creation_date              2012-12-11T20:52:56-0500
_audit_creation_method            fapswitch 2.2
_symmetry_space_group_name_H-M    P1
_symmetry_Int_Tables_number       1
_space_group_crystal_system       triclinic
_cell_length_a                    8.343198
_cell_length_b                    22.92367
_cell_length_c                    26.908262
_cell_angle_alpha                 95.686141
_cell_angle_beta                  92.775986
_cell_angle_gamma                 89.539046
_cell_volume                      5115.02667627

loop_
_atom_site_label
_atom_site_type_symbol
_atom_type_description
_atom_site_fract_x
_atom_site_fract_y
_atom_site_fract_z
_atom_type_partial_charge
Ba1   Ba    Ba6+2 0.848110 0.472730 0.522970 1.707121
Ba2   Ba    Ba6+2 0.341700 0.527220 0.477020 1.731709
C1    C     C_3   0.683844 0.256291 0.641023 0.256308
C2    C     C_R   0.894398 0.550705 0.174377 0.687611
C3    C     C_2   0.755077 0.534962 0.272099 -0.111817
C4    C     C_3   0.087915 0.346857 0.661591 0.607233
C5    C     C_3   0.749121 0.558469 0.326317 -0.014004
C6    C     C_1   0.975926 0.492161 0.342835 -0.003258
C7    C     C_2   0.010154 0.488009 0.294527 -0.055642
C8    C     C_2   0.890666 0.508115 0.255540 0.242432
C9    C     C_R   0.998669 0.496967 0.099852 -0.085833
C10   C     C_R   0.022179 0.448100 0.127112 -0.090583
C11   C     C_R   0.071743 0.395349 0.101625 -0.033368
C12   C     C_3   0.654289 0.318639 0.626851 0.364183
C13   C     C_R   0.927997 0.547630 0.123322 -0.024705
C14   C     C_2   0.852259 0.523363 0.360448 -0.288090
C15   C     C_2   0.341905 0.481193 0.640560 -0.228582
C16   C     C_3   0.024718 0.335814 0.712056 -0.236200
C17   C     C_R   0.155144 0.442687 0.973940 0.049068
C18   C     C_R   0.068999 0.545918 0.972665 -0.030625
C19   C     C_R   0.129640 0.493332 0.947722 0.012550
C20   C     C_R   0.244199 0.396211 0.950049 -0.030307
C21   C     C_R   0.280783 0.394604 0.899912 -0.043874
C22   C     C_R   0.242155 0.441746 0.872174 -0.036180
C23   C     C_3   0.539016 0.611598 0.630138 0.297613
C24   C     C_R   0.172668 0.492198 0.896655 -0.082239
C25   C     C_R   0.151262 0.542170 0.870579 -0.090484
C26   C     C_R   0.189704 0.540051 0.819758 0.606123
C27   C     C_R   0.279705 0.440698 0.821267 0.594760
C28   C     C_3   0.156866 0.349808 0.416870 0.334800
C29   C     C_2   0.443779 0.475588 0.728964 0.000382
C30   C     C_3   0.488747 0.482145 0.675823 -0.048557
C31   C     C_1   0.209930 0.507218 0.656684 0.031875
C32   C     C_2   0.170208 0.505917 0.703881 -0.095647
C33   C     C_2   0.292387 0.488754 0.743035 0.210086
C34   C     C_3   0.537092 0.629516 0.686153 -0.354172
C35   C     C_R   0.103525 0.442220 0.024143 -0.029428
C36   C     C_R   0.041519 0.494890 0.048714 0.015141
C37   C     C_R   0.014786 0.545057 0.022137 0.050205
C38   C     C_R   0.101789 0.391000 0.050607 0.344174
C39   C     C_R   0.885663 0.593650 0.094736 -0.015617
C40   C     C_3   0.151686 0.283398 0.405000 0.241396
C41   C     C_R   0.074056 0.597917 0.947528 0.342087
C42   C     C_R   0.104087 0.594697 0.896797 -0.041440
C43   C     C_R   0.922036 0.591101 0.044770 -0.028928
C44   C     C_R   0.365173 0.335799 0.519695 -0.306686
C45   C     C_3   0.101277 0.649778 0.341227 0.337409
C46   C     C_R   0.513848 0.930369 0.498908 -0.045182
C47   C     C_R   0.558362 0.870638 0.491386 0.652297
C48   C     C_R   0.833632 0.898046 0.486828 0.611401
C49   C     C_R   0.788383 0.957369 0.486862 -0.014622
C50   C     C_R   0.629491 0.973850 0.495637 -0.045449
C51   C     C_R   0.356813 0.947752 0.510352 -0.028242
C52   C     C_3   0.087854 0.658417 0.590611 0.235510
C53   C     C_R   0.315420 0.007143 0.516809 -0.065738
C54   C     C_R   0.427434 0.050726 0.510005 -0.015213
C55   C     C_R   0.586254 0.034117 0.501145 -0.043545
C56   C     C_3   0.139294 0.668081 0.289744 0.613963
C57   C     C_R   0.900125 0.000882 0.479689 -0.062432
C58   C     C_R   0.859103 0.060199 0.486455 -0.035642
C59   C     C_R   0.702433 0.077516 0.498302 -0.029659
C60   C     C_R   0.659393 0.137151 0.507186 0.609975
C61   C     C_R   0.383376 0.110361 0.511130 0.620771
C62   C     C_2   0.901243 0.770210 0.466437 0.079828
C63   C     C_3   0.965006 0.711386 0.479217 0.015308
C64   C     C_3   0.176180 0.714669 0.611098 0.165163
C65   C     C_1   0.705140 0.693141 0.510604 0.028281
C66   C     C_2   0.671188 0.750141 0.515279 -0.030623
C67   C     C_3   0.556256 0.689246 0.333137 0.878162
C68   C     C_2   0.766971 0.792314 0.488610 0.220000
C69   C     C_R   0.321287 0.237878 0.542124 -0.026667
C70   C     C_R   0.271342 0.296243 0.541520 0.017781
C71   C     C_R   0.497453 0.316267 0.492932 -0.000798
C72   C     C_R   0.536056 0.256418 0.488125 -0.119186
C73   C     C_R   0.453282 0.216151 0.514369 0.169314
C74   C     C_2   0.827155 0.670979 0.485284 -0.243455
C75   C     C_3   0.652895 0.402126 0.372420 0.315214
C76   C     C_3   0.642577 0.387885 0.315968 -0.308295
C77   C     C_3   0.596753 0.691177 0.278703 -0.216685
C78   C     C_R   0.984661 0.451795 0.178386 0.627569
Cl1   Cl    Cl    0.949634 0.258522 0.395133 -0.595002
Cl2   Cl    Cl    0.298437 0.346861 0.669357 -0.668359
Cl3   Cl    Cl    0.195833 0.765052 0.565681 -0.680455
Cl4   Cl    Cl    0.515322 0.227573 0.668479 -0.542360
Cl5   Cl    Cl    0.192569 0.606516 0.248165 -0.686664
Cl6   Cl    Cl    0.979109 0.707071 0.262544 -0.544580
Cl7   Cl    Cl    0.731899 0.691241 0.372910 -0.752658
Cl8   Cl    Cl    0.455040 0.755737 0.353130 -0.538198
Cl9   Cl    Cl    0.097787 0.318345 0.021679 -0.617669
Cl10  Cl    Cl    0.083380 0.669778 0.978228 -0.609334
H1    H     H_    0.218692 0.270327 0.370967 0.085041
H2    H     H_    0.718390 0.349062 0.305200 0.170183
H3    H     H_    0.685017 0.425452 0.297468 0.049031
H4    H     H_    0.542608 0.319181 0.603176 0.034348
H5    H     H_    0.708600 0.227163 0.606784 0.055603
H6    H     H_    0.413875 0.602949 0.615643 -0.013119
H7    H     H_    0.612264 0.571128 0.623649 0.042820
H8    H     H_    0.480273 0.673318 0.693269 0.146168
H9    H     H_    0.467236 0.597786 0.704744 0.064604
H10   H     H_    0.661714 0.631374 0.702714 0.134393
H11   H     H_    0.186529 0.615198 0.351415 0.066867
H12   H     H_    0.208104 0.261759 0.436500 -0.010976
H13   H     H_    0.981273 0.630314 0.338766 0.026076
H14   H     H_    0.240955 0.698462 0.293060 0.113544
H15   H     H_    0.657768 0.732929 0.273879 0.198018
H16   H     H_    0.486293 0.688389 0.253965 0.124796
H17   H     H_    0.046150 0.390579 0.652378 0.037040
H18   H     H_    0.675299 0.653868 0.266773 0.136845
H19   H     H_    0.076589 0.355793 0.120637 0.175476
H20   H     H_    0.536818 0.465738 0.756533 0.094796
H21   H     H_    0.345036 0.356834 0.883389 0.150940
H22   H     H_    0.295801 0.361799 0.970091 0.157432
H23   H     H_    0.962625 0.669609 0.579678 -0.007770
H24   H     H_    0.660993 0.547567 0.245966 0.117254
H25   H     H_    0.819629 0.631371 0.110546 0.155470
H26   H     H_    0.101763 0.634901 0.878681 0.173813
H27   H     H_    0.049872 0.517968 0.714629 0.126384
H28   H     H_    0.869268 0.624620 0.023799 0.151924
H29   H     H_    0.949319 0.092442 0.481434 0.183203
H30   H     H_    0.018902 0.988785 0.468057 0.121005
H31   H     H_    0.196606 0.019261 0.528384 0.116712
H32   H     H_    0.254769 0.210009 0.563779 0.165516
H33   H     H_    0.266871 0.915512 0.515599 0.192260
H34   H     H_    0.146344 0.637420 0.557484 0.069801
H35   H     H_    0.072148 0.369404 0.741519 0.124831
H36   H     H_    0.584873 0.766827 0.542122 0.129390
H37   H     H_    0.969639 0.794760 0.442425 0.160743
H38   H     H_    0.629471 0.241706 0.463319 0.173355
H39   H     H_    0.329449 0.381365 0.520950 0.080412
H40   H     H_    0.893053 0.339037 0.711691 0.103504
H41   H     H_    0.283003 0.363348 0.424544 -0.083543
H42   H     H_    0.086475 0.362006 0.450363 0.055960
H43   H     H_    0.755118 0.329743 0.604349 0.017024
H44   H     H_    0.516246 0.378486 0.302887 0.134740
H45   H     H_    0.110681 0.736889 0.642654 0.102497
H46   H     H_    0.061690 0.291628 0.722052 0.175318
H47   H     H_    0.126350 0.471386 0.283197 0.141187
H48   H     H_    0.842899 0.533949 0.400394 0.084691
H49   H     H_    0.342901 0.457556 0.603552 0.081799
H50   H     H_    0.820934 0.627507 0.465201 0.083526
H51   H     H_    0.298408 0.703759 0.625338 0.080798
H52   H     H_    0.779597 0.410168 0.384880 0.015340
H53   H     H_    0.579803 0.441978 0.382069 0.052055
H54   H     H_    0.789375 0.254745 0.667416 0.084127
N1    N     N_R   0.923827 0.503243 0.202062 -0.416529
N2    N     N_R   0.251271 0.489388 0.795280 -0.434072
N3    N     N_R   0.718989 0.854259 0.487926 -0.430742
N4    N     N_R   0.499164 0.153897 0.511206 -0.421623
O1    O     O_2   0.919820 0.530450 0.618560 -0.453543
O2    O     O_2   0.291907 0.701866 0.457387 -0.349330
O3    O     O_3   0.107077 0.699396 0.376629 -0.546821
O4    O     O_3   0.151800 0.530410 0.558380 -0.500809
O5    O     O_3   0.542410 0.431140 0.474010 -0.495961
O6    O     O_2   0.406930 0.639920 0.526240 -0.460137
O7    O     O_3   0.606048 0.657439 0.607405 -0.631648
O8    O     O_2   0.422378 0.527898 0.325093 -0.470750
O9    O     O_3   0.450990 0.642031 0.337243 -0.616053
O10   O     O_2   0.003850 0.408850 0.201544 -0.578787
O11   O     O_2   0.337111 0.396304 0.800091 -0.535015
O12   O     O_3   0.595071 0.354110 0.394236 -0.602277
O13   O     O_2   0.841702 0.596536 0.194404 -0.537261
O14   O     O_2   0.171368 0.583853 0.797596 -0.584037
O15   O     O_2   0.453312 0.833444 0.487381 -0.495039
O16   O     O_3   0.654050 0.426350 0.586890 -0.500311
O17   O     O_2   0.976357 0.886030 0.487791 -0.583116
O18   O     O_2   0.765551 0.173933 0.512176 -0.554301
O19   O     O_2   0.241019 0.123017 0.510403 -0.597674
O20   O     O_2   0.815629 0.453568 0.672418 -0.524254
O21   O     O_3   0.085058 0.622988 0.630045 -0.643675
O22   O     O_3   0.642589 0.359013 0.669663 -0.541431
O23   O     O_3   0.036857 0.302062 0.624674 -0.620894
O24   O     O_2   0.782760 0.360070 0.473730 -0.432116
O25   O     O_3   0.056430 0.397060 0.562000 -0.504333
O26   O     O_2   0.940366 0.292347 0.529907 -0.429088
O27   O     O_2   0.269870 0.469530 0.381410 -0.460892
O28   O     O_3   0.037890 0.469550 0.441610 -0.499652
O29   O     O_3   0.535640 0.573600 0.413100 -0.437152
O30   O     O_3   0.094376 0.376167 0.375406 -0.607883
O31   O     O_3   0.647280 0.568810 0.525990 -0.480158
O32   O     O_3   0.133260 0.602900 0.438000 -0.519292
P1    P     P_3+3 0.092730 0.547450 0.611370 0.989291
P2    P     P_3+3 0.606840 0.368620 0.459370 1.034177
P3    P     P_3+3 0.076363 0.321460 0.564731 1.006178
P4    P     P_3+3 0.096970 0.452510 0.388620 1.004496
P5    P     P_3+3 0.124010 0.678859 0.438022 1.109404
P6    P     P_3+3 0.649198 0.430801 0.651872 0.993524
P7    P     P_3+3 0.591707 0.641468 0.542425 0.995170
P8    P     P_3+3 0.542468 0.574961 0.348674 1.009336

loop_
_geom_bond_atom_site_label_1
_geom_bond_atom_site_label_2
_ccdc_geom_bond_type
C48   N3    Am   
C43   H28   S    
C53   C54   A    
C53   H31   S    
Ba1   O28   S    
C57   H30   S    
C45   H11   S    
C3    H24   S    
C23   O7    S    
C71   C72   A    
C69   H32   S    
O9    P8    S    
C12   O22   S    
O2    P5    D    
C26   O14   D    
O32   P5    S    
C27   O11   D    
C64   H51   S    
C75   C76   S    
C10   C11   A    
C47   N3    Am   
C24   C25   A    
C63   C74   S    
C15   C31   D    
C58   H29   S    
C4    Cl2   S    
O23   P3    S    
C17   C19   A    
C22   C24   A    
Ba1   Ba2   S    
C35   C38   A    
O16   P6    S    
C16   H35   S    
C36   C37   A    
O31   P7    S    
C76   H3    S    
C28   H41   S    
C52   H23   S    
C56   Cl6   S    
C54   C55   A    
C77   H15   S    
Ba1   O4    S    
O3    P5    S    
C32   C33   S    
C22   C27   A    
C11   C38   A    
C11   H19   S    
C17   C35   A    
Ba2   O28   S    
C64   Cl3   S    
C75   H52   S    
C9    C13   A    
C25   C42   A    
C72   H38   S    
Ba1   O16   S    
C6    C7    D    
C67   O9    S    
C21   C22   A    
Ba1   O1    S    
Ba2   O29   S    
C62   C68   D    
C38   Cl9   S    
C7    C8    S    
C14   H48   S    
C44   C70   A    
C67   Cl7   S    
C37   C43   A    
C6    P4    S    
C32   H27   S    
C61   O19   D    
C57   C58   A    
Ba2   O6    S    
C60   N4    Am   
O1    P1    D    
C65   C74   D    
C52   O21   S    
C40   Cl1   S    
Ba2   O32   S    
C44   H39   S    
C40   H12   S    
O12   P2    S    
C19   C24   A    
C65   P7    S    
C31   C32   D    
C4    O23   S    
O8    P8    D    
Ba2   O4    S    
C46   C51   A    
C4    C16   S    
C63   P5    S    
C41   Cl10  S    
C45   H13   S    
C72   C73   A    
C39   H25   S    
C49   C50   A    
C5    P8    S    
C17   C20   A    
O20   P6    D    
C13   C39   A    
C34   H10   S    
C51   H33   S    
C27   N2    Am   
C3    C5    S    
C18   C37   A    
Ba1   P1    S    
C75   O12   S    
C76   H2    S    
C65   C66   D    
C77   H16   S    
C58   C59   A    
C33   N2    S    
C9    C36   A    
Ba1   O5    S    
C41   C42   A    
C75   H53   S    
C35   C36   A    
Ba2   O27   S    
C78   O10   D    
C29   C30   S    
C4    H17   S    
C62   H37   S    
Ba1   O25   S    
O22   P6    S    
C48   O17   D    
C48   C49   A    
C28   O30   S    
C54   C61   A    
C15   H49   S    
Ba2   P4    S    
C18   C19   A    
C16   H46   S    
C76   H44   S    
O21   P1    S    
C67   Cl8   S    
C23   H7    S    
C78   N1    Am   
C60   O18   D    
C45   O3    S    
Ba2   O5    S    
C20   H22   S    
C31   P1    S    
C15   C30   S    
C29   C33   D    
C67   C77   S    
C56   H14   S    
Ba2   O31   S    
C74   H50   S    
C56   Cl5   S    
C66   H36   S    
C61   N4    Am   
C25   C26   A    
C18   C41   A    
O28   P4    S    
C52   H34   S    
C46   C47   A    
C2    O13   D    
C51   C53   A    
C5    C14   S    
C1    H54   S    
C70   P3    S    
O26   P3    D    
C1    H5    S    
Ba1   P2    S    
C55   C59   A    
C52   C64   S    
C12   H43   S    
C1    C12   S    
C73   N4    S    
C21   H21   S    
O6    P7    D    
Ba1   O24   S    
C26   N2    Am   
C30   P6    S    
C62   C63   S    
C2    C13   A    
C7    H47   S    
C3    C8    D    
O7    P7    S    
C45   C56   S    
C69   C73   A    
C71   P2    S    
Ba1   O31   S    
C28   H42   S    
C2    N1    Am   
C10   C78   A    
C29   H20   S    
C77   H18   S    
C34   H9    S    
C59   C60   A    
C47   O15   D    
C16   H40   S    
C50   C55   A    
C23   C34   S    
C64   H45   S    
O24   P2    D    
C46   C50   A    
C49   C57   A    
O5    P2    S    
C42   H26   S    
C23   H6    S    
C6    C14   D    
C8    N1    S    
C1    Cl4   S    
C66   C68   S    
C39   C43   A    
C20   C21   A    
C28   C40   S    
O25   P3    S    
C34   H8    S    
C68   N3    S    
C69   C70   A    
O4    P1    S    
O29   P8    S    
C12   H4    S    
C44   C71   A    
O30   P4    S    
C40   H1    S    
C9    C10   A    
O27   P4    D    
