data_mof_unit_54306.cif
_audit_creation_date              2012-12-10T17:37:27-0500
_audit_creation_method            fapswitch 2.2
_symmetry_space_group_name_H-M    P1
_symmetry_Int_Tables_number       1
_space_group_crystal_system       triclinic
_cell_length_a                    11.977846
_cell_length_b                    12.906565
_cell_length_c                    16.508857
_cell_angle_alpha                 90.84427
_cell_angle_beta                  80.304599
_cell_angle_gamma                 93.280116
_cell_volume                      2511.54372392

loop_
_atom_site_label
_atom_site_type_symbol
_atom_type_description
_atom_site_fract_x
_atom_site_fract_y
_atom_site_fract_z
_atom_type_partial_charge
C1    C     C_R   0.522117 0.700510 0.499947 0.893763
C2    C     C_R   0.561771 0.132484 0.486934 -0.296075
C3    C     C_R   0.446452 0.974462 0.517342 0.132691
C4    C     C_R   0.555547 0.025733 0.494515 0.102967
C5    C     C_R   0.964283 0.397663 0.427504 -0.334989
C6    C     C_R   0.035461 0.601621 0.573043 -0.335861
C7    C     C_R   0.846920 0.408025 0.434226 0.020266
C8    C     C_R   0.152919 0.591583 0.566130 0.024293
C9    C     C_R   0.853684 0.544655 0.531158 -0.054710
C10   C     C_R   0.146284 0.455217 0.468938 -0.049726
C11   C     C_R   0.971975 0.537050 0.526468 0.094257
C12   C     C_R   0.477925 0.299482 0.500874 0.898564
C13   C     C_R   0.027923 0.462590 0.473778 0.091901
C14   C     C_R   0.483620 0.504219 0.654612 0.859767
C15   C     C_R   0.517197 0.502154 0.345260 0.858205
C16   C     C_R   0.473659 0.534138 0.740290 -0.017814
C17   C     C_R   0.534435 0.529428 0.258885 -0.025274
C18   C     C_R   0.540378 0.490379 0.790728 -0.237061
C19   C     C_R   0.450013 0.504484 0.212019 -0.218619
C20   C     C_R   0.538539 0.528367 0.869961 -0.157322
C21   C     C_R   0.461151 0.542525 0.132751 -0.147191
C22   C     C_R   0.474700 0.614359 0.897746 0.152303
C23   C     C_R   0.464609 0.188262 0.503741 -0.079852
C24   C     C_R   0.554509 0.610092 0.100796 0.133830
C25   C     C_R   0.405036 0.655485 0.847889 -0.156561
C26   C     C_R   0.640515 0.632182 0.147138 -0.153141
C27   C     C_R   0.404018 0.615187 0.769558 -0.208414
C28   C     C_R   0.630882 0.591648 0.225677 -0.208222
C29   C     C_2   0.474737 0.657284 0.980733 0.256865
C30   C     C_2   0.568399 0.649764 0.016291 0.256853
C31   C     C_3   0.707259 0.742152 0.926958 0.068584
C32   C     C_3   0.784371 0.719840 0.845680 -0.296082
C33   C     C_3   0.816755 0.818147 0.794968 -0.999360
C34   C     C_R   0.535937 0.811766 0.501513 -0.094766
C35   C     C_3   0.377434 0.782921 0.057388 0.057995
C36   C     C_3   0.259838 0.810415 0.100803 -0.290459
C37   C     C_3   0.261994 0.919795 0.137089 -0.984524
C38   C     C_3   0.773487 0.025371 0.460137 -0.436528
C39   C     C_3   0.875836 0.956791 0.451360 -0.343603
C40   C     C_3   0.987369 0.022525 0.435911 -0.893410
C41   C     C_3   0.228894 0.982116 0.562702 -0.439379
C42   C     C_3   0.212549 0.950595 0.653382 -0.329775
C43   C     C_3   0.095061 0.898712 0.681127 -0.911015
C44   C     C_R   0.655883 0.969474 0.479565 0.105229
C45   C     C_R   0.347005 0.031444 0.534601 0.108235
C46   C     C_R   0.643414 0.861433 0.482843 -0.217584
C47   C     C_R   0.358018 0.138710 0.527001 -0.246559
C48   C     C_R   0.439265 0.867533 0.520748 -0.300047
H1    H     H_    0.593616 0.427274 0.768804 0.148612
H2    H     H_    0.714308 0.681763 0.122968 0.151802
H3    H     H_    0.396775 0.518216 0.096628 0.174077
H4    H     H_    0.587839 0.490816 0.909083 0.173444
H5    H     H_    0.642735 0.173748 0.467776 0.161568
H6    H     H_    0.357900 0.826077 0.537032 0.173918
H7    H     H_    0.283610 0.183970 0.541092 0.160069
H8    H     H_    0.716282 0.814663 0.469548 0.155603
H9    H     H_    0.190609 0.398449 0.428646 0.122688
H10   H     H_    0.809386 0.601483 0.571421 0.127241
H11   H     H_    0.754433 0.794185 0.965320 0.144307
H12   H     H_    0.375645 0.455935 0.236796 0.144064
H13   H     H_    0.633896 0.784156 0.913093 0.113920
H14   H     H_    0.862681 0.685407 0.858187 0.224358
H15   H     H_    0.739770 0.662941 0.809324 0.233099
H16   H     H_    0.739598 0.853587 0.781431 0.269153
H17   H     H_    0.870289 0.798221 0.735797 0.267821
H18   H     H_    0.865214 0.875166 0.828572 0.268328
H19   H     H_    0.406563 0.839057 0.006433 0.123809
H20   H     H_    0.436681 0.789736 0.102676 0.141342
H21   H     H_    0.199705 0.805183 0.056243 0.220527
H22   H     H_    0.229239 0.754011 0.151005 0.229413
H23   H     H_    0.201547 0.641685 0.602043 0.124424
H24   H     H_    0.319929 0.926093 0.183091 0.267754
H25   H     H_    0.175387 0.937325 0.168020 0.266270
H26   H     H_    0.290726 0.977730 0.087799 0.263485
H27   H     H_    0.993877 0.067789 0.378431 0.260602
H28   H     H_    0.992981 0.076776 0.488116 0.257654
H29   H     H_    0.059639 0.971154 0.429508 0.249843
H30   H     H_    0.872875 0.911625 0.508608 0.223899
H31   H     H_    0.874303 0.902438 0.398642 0.220618
H32   H     H_    0.778836 0.068789 0.401801 0.197906
H33   H     H_    0.781811 0.082026 0.510489 0.208337
H34   H     H_    0.798183 0.357747 0.398534 0.126926
H35   H     H_    0.028369 0.952809 0.674364 0.271197
H36   H     H_    0.083550 0.827796 0.643938 0.256522
H37   H     H_    0.085695 0.876337 0.746713 0.255096
H38   H     H_    0.277149 0.896077 0.663674 0.216205
H39   H     H_    0.222593 0.020796 0.691916 0.226046
H40   H     H_    0.163705 0.037940 0.555993 0.203505
H41   H     H_    0.211986 0.915079 0.522730 0.198462
H42   H     H_    0.004744 0.339394 0.386567 0.143713
H43   H     H_    0.994587 0.659136 0.614477 0.139353
H44   H     H_    0.696520 0.612604 0.261731 0.154222
H45   H     H_    0.352627 0.650375 0.730516 0.142416
H46   H     H_    0.353316 0.719922 0.868916 0.149308
N1    N     N_R   0.206400 0.519440 0.514690 -0.096469
N2    N     N_R   0.793600 0.480560 0.485310 -0.098216
O1    O     O_R   0.421320 0.658850 0.503920 -0.627047
O2    O     O_3   0.370555 0.680583 0.026318 -0.660293
O3    O     O_R   0.578680 0.341150 0.496080 -0.626052
O4    O     O_R   0.609840 0.646370 0.494500 -0.629913
O5    O     O_R   0.390160 0.353630 0.505500 -0.624823
O6    O     O_R   0.394600 0.506990 0.621070 -0.617548
O7    O     O_R   0.605400 0.493010 0.378930 -0.620729
O8    O     O_R   0.583120 0.494520 0.611640 -0.610489
O9    O     O_R   0.416880 0.505480 0.388360 -0.609391
O10   O     O_3   0.676198 0.647313 0.969176 -0.660537
Zn1   Zn    Zn3+2 0.374120 0.508330 0.506290 0.940546
Zn2   Zn    Zn3+2 0.625880 0.491670 0.493710 0.935388

loop_
_geom_bond_atom_site_label_1
_geom_bond_atom_site_label_2
_ccdc_geom_bond_type
O5    Zn1   S    
C41   H41   S    
C37   H26   S    
C22   C29   S    
C43   H35   S    
C41   C42   S    
C31   H13   S    
C35   C36   S    
O8    Zn2   S    
C33   H17   S    
C48   H6    S    
C7    N2    A    
O9    Zn1   S    
C12   C23   S    
C29   O2    S    
C10   N1    A    
C36   C37   S    
C19   C21   A    
C24   C26   A    
C26   H2    S    
C38   C39   S    
C14   O6    A    
C6    H43   S    
C3    C48   A    
C9    H10   S    
C31   H11   S    
C12   O3    A    
C36   H22   S    
C22   C25   A    
C1    C34   S    
O7    Zn2   S    
C34   C46   A    
O1    Zn1   S    
C35   O2    S    
C5    C13   A    
C5    H42   S    
C16   C27   A    
N2    Zn2   S    
C25   H46   S    
C30   O10   S    
C43   H36   S    
C8    N1    A    
C1    O4    A    
C44   C46   A    
C33   H18   S    
C45   C47   A    
O4    Zn2   S    
C23   C47   A    
C43   H37   S    
C39   H30   S    
C10   H9    S    
C1    O1    A    
C6    C11   A    
C5    C7    A    
C6    C8    A    
C4    C44   A    
C3    C45   A    
C40   H28   S    
C39   H31   S    
C2    C4    A    
C38   C44   S    
C29   C30   D    
O3    Zn2   S    
C2    H5    S    
C14   O8    A    
C31   C32   S    
C35   H19   S    
O6    Zn1   S    
C28   H44   S    
C9    C11   A    
C9    N2    A    
N1    Zn1   S    
C42   H38   S    
C20   C22   A    
C38   H33   S    
C31   O10   S    
C14   C16   S    
C27   H45   S    
C34   C48   A    
C42   C43   S    
C21   C24   A    
C3    C4    A    
C21   H3    S    
C36   H21   S    
C47   H7    S    
C15   C17   S    
C41   H40   S    
C37   H25   S    
C8    H23   S    
C17   C28   A    
C32   H15   S    
C10   C13   A    
C19   H12   S    
C25   C27   A    
C26   C28   A    
C40   H27   S    
C32   C33   S    
C15   O9    A    
C32   H14   S    
C12   O5    A    
C20   H4    S    
C11   C13   A    
C38   H32   S    
C35   H20   S    
C33   H16   S    
C17   C19   A    
C18   C20   A    
C24   C30   S    
C39   C40   S    
C7    H34   S    
C16   C18   A    
C37   H24   S    
C46   H8    S    
C2    C23   A    
C41   C45   S    
C40   H29   S    
C42   H39   S    
C15   O7    A    
C18   H1    S    
