data_mof_unit_56654.cif
_audit_creation_date              2012-12-11T15:20:37-0500
_audit_creation_method            fapswitch 2.2
_symmetry_space_group_name_H-M    P1
_symmetry_Int_Tables_number       1
_space_group_crystal_system       triclinic
_cell_length_a                    12.941625
_cell_length_b                    13.051325
_cell_length_c                    15.341439
_cell_angle_alpha                 116.120875
_cell_angle_beta                  63.521012
_cell_angle_gamma                 96.814968
_cell_volume                      2072.79435317

loop_
_atom_site_label
_atom_site_type_symbol
_atom_type_description
_atom_site_fract_x
_atom_site_fract_y
_atom_site_fract_z
_atom_type_partial_charge
C1    C     C_R   0.019694 0.834123 0.032320 -0.136397
C2    C     C_R   0.321507 0.521667 0.782675 -0.148424
C3    C     C_R   0.242873 0.483111 0.109262 0.028913
C4    C     C_R   0.700763 0.405885 0.211686 -0.127992
C5    C     C_R   0.980790 0.301685 0.699909 -0.189528
C6    C     C_R   0.335267 0.545162 0.079091 0.109021
C7    C     C_R   0.926076 0.206087 0.700827 0.157797
C8    C     C_R   0.333473 0.451320 0.678967 0.019364
C9    C     C_R   0.079062 0.144488 0.976400 0.004969
C10   C     C_R   0.067853 0.968346 0.434827 -0.182285
C11   C     C_R   0.050397 0.064930 0.527199 -0.275340
C12   C     C_R   0.707032 0.433229 0.307476 0.045253
C13   C     C_R   0.937155 0.109791 0.605717 0.035934
C14   C     C_R   0.839772 0.058429 0.595304 0.527337
C15   C     C_R   0.858235 0.961058 0.500282 -0.354700
C16   C     C_R   0.738726 0.579819 0.949866 -0.137980
C17   C     C_R   0.971873 0.919249 0.421116 0.121450
C18   C     C_R   0.635850 0.460651 0.494698 -0.171421
C19   C     C_R   0.543104 0.464856 0.587340 -0.160803
C20   C     C_R   0.444125 0.412242 0.581583 0.146311
C21   C     C_R   0.449625 0.335557 0.480301 -0.158855
C22   C     C_R   0.542047 0.333099 0.386871 -0.168182
C23   C     C_R   0.636255 0.564794 0.025698 0.139245
C24   C     C_R   0.630526 0.403964 0.395337 0.141572
C25   C     C_2   0.428642 0.568781 0.110663 -0.199972
C26   C     C_2   0.522297 0.610089 0.057034 -0.176334
C27   C     C_2   0.881839 0.967568 0.038584 0.467656
C28   C     C_R   0.961562 0.716611 0.316184 -0.201839
C29   C     C_2   0.870406 0.055108 0.131931 -0.121333
C30   C     C_R   0.660786 0.484501 0.050951 -0.094414
C31   C     C_R   0.053583 0.816159 0.220242 0.499098
C32   C     C_R   0.803384 0.491412 0.304413 -0.125547
C33   C     C_R   0.923854 0.749215 0.933413 -0.089901
C34   C     C_R   0.990594 0.823322 0.323327 -0.083230
C35   C     C_R   0.943623 0.855310 0.999289 -0.092950
C36   C     C_R   0.321967 0.580952 0.012628 -0.130859
C37   C     C_R   0.905450 0.199818 0.793354 -0.125837
C38   C     C_R   0.222288 0.443168 0.684631 0.048660
C39   C     C_R   0.094237 0.250300 0.047748 -0.111332
C40   C     C_R   0.995841 0.167137 0.951268 -0.049892
H1    H     H_    0.060250 0.898606 0.076060 0.170026
H2    H     H_    0.785563 0.919073 0.487060 0.136075
H3    H     H_    0.704916 0.512554 0.504397 0.108435
H4    H     H_    0.545971 0.519513 0.663166 0.110263
H5    H     H_    0.379775 0.283972 0.472819 0.119098
H6    H     H_    0.539708 0.282380 0.309985 0.121494
H7    H     H_    0.431190 0.527206 0.157276 0.124364
H8    H     H_    0.519086 0.656062 0.014112 0.128969
H9    H     H_    0.907546 0.050074 0.181047 0.071039
H10   H     H_    0.746016 0.626926 0.905228 0.093970
H11   H     H_    0.921078 0.690392 0.380833 0.131617
H12   H     H_    0.856700 0.138754 0.822116 0.125751
H13   H     H_    0.602014 0.447815 0.103386 0.089402
H14   H     H_    0.844973 0.509823 0.356351 0.087202
H15   H     H_    0.879062 0.734329 0.885032 0.082409
H16   H     H_    0.366932 0.645092 0.986867 0.107835
H17   H     H_    0.185338 0.333351 0.562721 0.089270
H18   H     H_    0.122229 0.469720 0.624400 0.101171
H19   H     H_    0.270380 0.400182 0.181783 0.090554
H20   H     H_    0.197076 0.531343 0.266737 0.104946
H21   H     H_    0.672125 0.057622 0.655537 0.314400
H22   H     H_    0.850904 0.916629 0.914026 0.302312
H23   H     H_    0.153777 0.264320 0.082624 0.118484
H24   H     H_    0.100669 0.969152 0.253539 0.309484
H25   H     H_    0.965028 0.104618 0.895862 0.126422
H26   H     H_    0.388933 0.547548 0.808803 0.103922
H27   H     H_    0.993394 0.337763 0.645160 0.104541
H28   H     H_    0.155512 0.932447 0.373797 0.153420
H29   H     H_    0.125007 0.104111 0.538420 0.150609
H30   H     H_    0.644625 0.348235 0.181813 0.099069
N1    N     N_R   0.037310 0.720000 0.995790 -0.033185
N2    N     N_R   0.824890 0.517960 0.936420 -0.043034
N3    N     N_R   0.003210 0.648190 0.211380 -0.066211
N4    N     N_R   0.774330 0.457010 0.995840 -0.044238
N5    N     N_R   0.053760 0.709140 0.151960 -0.067897
N6    N     N_R   0.853860 0.498840 0.211410 -0.038121
N7    N     N_R   0.974240 0.667310 0.936390 -0.042961
N8    N     N_R   0.225670 0.542990 0.004160 -0.054545
N9    N     N_3   0.197988 0.419991 0.595854 -0.219339
N10   N     N_3   0.205070 0.455805 0.198756 -0.224909
N11   N     N_R   0.946240 0.290860 0.848040 -0.052451
N12   N     N_R   0.146140 0.501160 0.788590 -0.058517
N13   N     N_R   0.025760 0.332690 0.063610 -0.043610
N14   N     N_R   0.962690 0.280000 0.004210 -0.046945
N15   N     N_R   0.209210 0.553840 0.847990 -0.045093
N16   N     N_R   0.175110 0.482040 0.063580 -0.051890
N17   N     N_R   0.996790 0.351810 0.788620 -0.044699
N18   N     N_R   0.790790 0.446160 0.152010 -0.042883
Ni1   Ni    Ni4+2 0.130310 0.630310 0.999970 0.247061
Ni2   Ni    Ni4+2 0.869690 0.369690 0.000030 0.232968
Ni3   Ni    Ni4+2 0.985640 0.509470 0.863740 0.203460
Ni4   Ni    Ni4+2 0.014360 0.490530 0.136260 0.210629
O1    O     O_3   0.729940 0.105193 0.677054 -0.766907
O2    O     O_3   0.825849 0.982672 0.986140 -0.760132
O3    O     O_3   0.125228 0.893237 0.190158 -0.800339

loop_
_geom_bond_atom_site_label_1
_geom_bond_atom_site_label_2
_ccdc_geom_bond_type
C33   H15   S    
N17   Ni3   S    
C27   C29   D    
H17   N9    S    
C19   C20   A    
C16   N2    A    
C5    H27   S    
C3    C6    A    
C4    H30   S    
C29   H9    S    
N13   Ni4   S    
C8    C20   S    
C8    C38   A    
C18   C24   A    
C16   H10   S    
C30   N4    A    
C28   H11   S    
H21   O1    S    
C6    C25   S    
C38   N9    S    
C3    N10   S    
C10   C17   A    
C9    C39   A    
C15   H2    S    
C2    N15   A    
C18   C19   A    
C23   C26   S    
C40   N14   A    
N7    Ni3   S    
C4    C12   A    
N6    N18   A    
C14   O1    S    
C26   H8    S    
N8    N16   A    
C28   C34   A    
C13   C14   A    
C12   C32   A    
C3    N16   A    
N3    N5    A    
C37   N11   A    
N14   Ni2   S    
C28   N3    A    
C32   H14   S    
C21   H5    S    
N8    Ni1   S    
C30   H13   S    
C37   H12   S    
C23   C30   A    
N3    Ni4   S    
N2    N4    A    
C5    C7    A    
N2    Ni3   S    
N15   Ni1   S    
C27   C35   S    
C25   C26   D    
C9    C40   A    
N12   Ni3   S    
C36   H16   S    
C31   N5    A    
N13   N14   A    
N1    Ni1   S    
C7    C37   A    
C31   C34   A    
C1    N1    A    
N11   N17   A    
H18   N9    S    
N6    Ni4   S    
N11   Ni2   S    
C1    H1    S    
C22   H6    S    
N18   Ni2   S    
C16   C23   A    
C40   H25   S    
H22   O2    S    
C22   C24   A    
C17   C34   S    
N1    N7    A    
C19   H4    S    
C1    C35   A    
C15   C17   A    
C25   H7    S    
H20   N10   S    
C2    C8    A    
H24   O3    S    
C2    H26   S    
H19   N10   S    
C32   N6    A    
C11   H29   S    
C4    N18   A    
C10   H28   S    
N12   N15   A    
C39   H23   S    
C12   C24   S    
N4    Ni2   S    
C39   N13   A    
N16   Ni4   S    
C18   H3    S    
C11   C13   A    
C33   N7    A    
C31   O3    S    
C33   C35   A    
C6    C36   A    
C10   C11   A    
N5    Ni1   S    
C5    N17   A    
C7    C13   S    
C20   C21   A    
C14   C15   A    
C27   O2    S    
C36   N8    A    
C21   C22   A    
C38   N12   A    
