data_mof_unit_28979.cif
_audit_creation_date              2012-12-11T20:21:45-0500
_audit_creation_method            fapswitch 2.2
_symmetry_space_group_name_H-M    P1
_symmetry_Int_Tables_number       1
_space_group_crystal_system       triclinic
_cell_length_a                    8.280453
_cell_length_b                    17.407532
_cell_length_c                    26.996025
_cell_angle_alpha                 100.035315
_cell_angle_beta                  92.303967
_cell_angle_gamma                 81.666494
_cell_volume                      3790.82891569

loop_
_atom_site_label
_atom_site_type_symbol
_atom_type_description
_atom_site_fract_x
_atom_site_fract_y
_atom_site_fract_z
_atom_type_partial_charge
Ba1   Ba    Ba6+2 0.860160 0.462360 0.521850 1.660465
Ba2   Ba    Ba6+2 0.329680 0.537570 0.478140 1.716248
Br1   Br    Br    0.137644 0.837146 0.621817 -0.515069
C1    C     C_3   0.591509 0.195096 0.647321 -0.326159
C2    C     C_R   0.881812 0.570779 0.180514 0.578159
C3    C     C_2   0.736808 0.524089 0.270991 -0.071597
C4    C     C_3   0.095793 0.277796 0.643467 0.339064
C5    C     C_3   0.691209 0.517100 0.323759 -0.102316
C6    C     C_1   0.983766 0.487262 0.342829 0.004455
C7    C     C_2   0.024400 0.487922 0.295521 -0.095671
C8    C     C_2   0.895546 0.507758 0.256525 0.200571
C9    C     C_R   0.017860 0.504704 0.102478 -0.077527
C10   C     C_R   0.075350 0.440371 0.126725 -0.034337
C11   C     C_R   0.171905 0.375071 0.099557 -0.060491
C12   C     C_3   0.590158 0.274902 0.631598 0.295345
C13   C     C_R   0.920641 0.570311 0.129764 -0.030400
C14   C     C_2   0.838278 0.521260 0.359080 -0.293800
C15   C     C_2   0.349367 0.481092 0.640110 -0.281689
C16   C     C_3   0.126249 0.249325 0.693575 -0.367159
C17   C     C_R   0.187624 0.433696 0.971657 0.019321
C18   C     C_R   0.040850 0.568471 0.976065 0.019579
C19   C     C_R   0.133325 0.500377 0.948355 0.051026
C20   C     C_R   0.275165 0.366712 0.941827 -0.097914
C21   C     C_R   0.310484 0.365771 0.891621 -0.058099
C22   C     C_R   0.260847 0.431508 0.868461 -0.034699
C23   C     C_3   0.488076 0.661783 0.634347 0.318209
C24   C     C_R   0.172001 0.498977 0.896749 -0.077587
C25   C     C_R   0.121906 0.565080 0.873417 -0.035275
C26   C     C_R   0.162858 0.563370 0.822671 0.589616
C27   C     C_R   0.297943 0.430898 0.817505 0.588923
C28   C     C_3   0.204046 0.280814 0.390922 0.265582
C29   C     C_2   0.451782 0.481018 0.728305 -0.072776
C30   C     C_3   0.495630 0.487298 0.675011 -0.059249
C31   C     C_1   0.205268 0.515172 0.657174 0.042908
C32   C     C_2   0.164226 0.515536 0.704409 -0.094019
C33   C     C_2   0.293472 0.496477 0.743013 0.210872
C34   C     C_3   0.470052 0.690813 0.690638 -0.334973
C35   C     C_R   0.152301 0.435855 0.023516 0.019656
C36   C     C_R   0.056793 0.503285 0.050885 0.050542
C37   C     C_R   0.999387 0.569255 0.027227 0.019973
C38   C     C_R   0.209657 0.372765 0.049376 -0.098768
C39   C     C_R   0.863139 0.634285 0.105723 -0.060087
C40   C     C_3   0.095985 0.215535 0.387825 -0.300710
C41   C     C_R   0.993486 0.633844 0.951352 -0.099236
C42   C     C_R   0.033138 0.632054 0.901432 -0.058796
C43   C     C_R   0.901220 0.633912 0.055859 -0.099428
C44   C     C_2   0.428818 0.275671 0.504999 -0.276655
C45   C     C_3   0.006325 0.720224 0.348905 0.290625
C46   C     C_3   0.304576 0.218914 0.501052 0.028361
C47   C     C_2   0.386656 0.138065 0.507536 -0.078792
C48   C     C_2   0.549044 0.117417 0.500068 -0.052244
C49   C     C_2   0.645072 0.177154 0.486103 -0.082483
C50   C     C_1   0.573657 0.250160 0.485093 0.121972
C51   C     C_R   0.785290 0.862810 0.469926 -0.064675
C52   C     C_3   0.966884 0.704096 0.593410 0.300383
C53   C     C_R   0.855299 0.785340 0.470947 0.033974
C54   C     C_R   0.619822 0.762467 0.514002 0.003319
C55   C     C_R   0.548774 0.840603 0.513774 -0.113293
C56   C     C_3   0.046598 0.735748 0.297466 -0.363556
C57   C     C_R   0.633055 0.891490 0.492454 0.046611
C58   C     C_2   0.632298 0.038320 0.507729 -0.049805
C59   C     C_2   0.557959 0.973513 0.491514 -0.061108
C60   C     C_R   0.772656 0.736450 0.493157 -0.265014
C61   C     C_3   0.934746 0.792860 0.611697 0.094218
C62   C     C_3   0.708908 0.355143 0.366995 0.267271
C63   C     C_3   0.747022 0.322795 0.311847 -0.369092
C64   C     C_2   0.825676 0.578673 0.404975 0.790782
C65   C     C_2   0.791109 0.035529 0.535959 0.480211
C66   C     C_2   0.364728 0.242900 0.368485 0.474913
C67   C     C_3   0.495796 0.739454 0.373769 0.320749
C68   C     C_3   0.473932 0.819428 0.357160 -0.356041
C69   C     C_R   0.034564 0.442243 0.177566 0.590773
H1    H     H_    0.650895 0.264188 0.594585 0.032968
H2    H     H_    0.605034 0.403631 0.369665 0.037161
H3    H     H_    0.719038 0.165103 0.648966 0.119512
H4    H     H_    0.835526 0.267836 0.308669 0.147510
H5    H     H_    0.801855 0.365374 0.294185 0.089349
H6    H     H_    0.633478 0.309609 0.290841 0.108438
H7    H     H_    0.461454 0.302665 0.628047 0.003838
H8    H     H_    0.520852 0.157716 0.619550 0.102737
H9    H     H_    0.368660 0.646213 0.618831 0.040713
H10   H     H_    0.582238 0.608812 0.628157 0.011370
H11   H     H_    0.383218 0.746362 0.697519 0.180733
H12   H     H_    0.104673 0.177027 0.350266 0.100123
H13   H     H_    0.422164 0.646455 0.708737 0.062729
H14   H     H_    0.590379 0.701741 0.707937 0.116423
H15   H     H_    0.536320 0.202540 0.684940 0.145558
H16   H     H_    0.043517 0.286880 0.722285 0.114963
H17   H     H_    0.045361 0.656607 0.349631 0.061291
H18   H     H_    0.872372 0.735398 0.354206 0.010802
H19   H     H_    0.179959 0.720899 0.291079 0.151133
H20   H     H_    0.982049 0.698688 0.267912 0.136872
H21   H     H_    0.007826 0.798731 0.294836 0.122477
H22   H     H_    0.610835 0.733536 0.395906 -0.008646
H23   H     H_    0.131340 0.178403 0.417016 0.078725
H24   H     H_    0.392263 0.737534 0.398048 0.107998
H25   H     H_    0.467541 0.866798 0.390657 0.072173
H26   H     H_    0.359172 0.827488 0.334765 0.144500
H27   H     H_    0.965026 0.276363 0.633050 0.096728
H28   H     H_    0.578742 0.823984 0.333933 0.123299
H29   H     H_    0.150580 0.471604 0.284269 0.136601
H30   H     H_    0.219268 0.324802 0.117110 0.122765
H31   H     H_    0.548888 0.470016 0.755491 0.099833
H32   H     H_    0.377962 0.312711 0.870877 0.124348
H33   H     H_    0.317426 0.313032 0.955875 0.071501
H34   H     H_    0.967055 0.240646 0.392254 0.146279
H35   H     H_    0.285987 0.320346 0.032117 0.070849
H36   H     H_    0.640050 0.534993 0.243695 0.110581
H37   H     H_    0.787294 0.685543 0.125508 0.123360
H38   H     H_    0.926587 0.688364 0.969615 0.071415
H39   H     H_    0.124293 0.339200 0.648476 0.046944
H40   H     H_    0.993490 0.684072 0.884760 0.125977
H41   H     H_    0.037721 0.530766 0.715586 0.124271
H42   H     H_    0.849412 0.685508 0.040813 0.070564
H43   H     H_    0.362959 0.450658 0.601495 0.067610
H44   H     H_    0.436848 0.980173 0.474448 0.072408
H45   H     H_    0.848765 0.682285 0.584202 -0.044862
H46   H     H_    0.769578 0.158826 0.473436 0.079219
H47   H     H_    0.849159 0.900648 0.452209 0.070207
H48   H     H_    0.312787 0.097105 0.518278 0.079195
H49   H     H_    0.102620 0.187359 0.689796 0.139347
H50   H     H_    0.431540 0.862197 0.531135 0.133869
H51   H     H_    0.397519 0.336913 0.522331 0.057042
H52   H     H_    0.832226 0.678674 0.496803 0.097765
H53   H     H_    0.254357 0.253148 0.706298 0.143924
H54   H     H_    0.218747 0.309738 0.430473 -0.020077
H55   H     H_    0.821427 0.639893 0.402671 -0.362627
H56   H     H_    0.044546 0.691908 0.559570 0.061782
H57   H     H_    0.857379 0.085727 0.540893 0.021753
H58   H     H_    0.412424 0.265441 0.337867 0.041454
H59   H     H_    0.867172 0.805634 0.647586 0.104458
H60   H     H_    0.859913 0.822261 0.583620 0.058984
H61   H     H_    0.818103 0.377111 0.385937 0.043507
N1    N     N_R   0.939103 0.507238 0.204250 -0.423640
N2    N     N_R   0.250349 0.496739 0.795138 -0.425723
O1    O     O_2   0.906370 0.542040 0.619810 -0.468689
O2    O     O_2   0.189994 0.780413 0.478904 -0.466652
O3    O     O_3   0.090148 0.767257 0.385724 -0.613882
O4    O     O_3   0.138370 0.541980 0.559630 -0.482357
O5    O     O_3   0.572820 0.404940 0.471170 -0.479589
O6    O     O_2   0.345130 0.693150 0.532000 -0.436562
O7    O     O_3   0.535898 0.721972 0.612325 -0.619501
O8    O     O_2   0.344402 0.561117 0.329563 -0.500681
O9    O     O_3   0.501875 0.680001 0.331107 -0.595433
O10   O     O_2   0.081838 0.385176 0.197686 -0.598901
O11   O     O_2   0.371620 0.371402 0.792965 -0.596732
O12   O     O_3   0.666610 0.293868 0.388511 -0.628962
O13   O     O_2   0.797135 0.628171 0.203582 -0.603998
O14   O     O_2   0.122317 0.621785 0.803260 -0.591709
O15   O     O_3   0.686580 0.398330 0.583860 -0.483088
O16   O     O_2   0.836611 0.439486 0.670728 -0.500620
O17   O     O_3   0.044167 0.667990 0.631913 -0.619488
O18   O     O_3   0.675469 0.322354 0.667920 -0.591673
O19   O     O_2   0.844570 0.306830 0.467970 -0.484043
O20   O     O_3   0.101900 0.357890 0.557750 -0.485029
O21   O     O_2   0.979161 0.223874 0.533561 -0.514216
O22   O     O_2   0.800430 0.558705 0.444567 -0.544511
O23   O     O_3   0.196464 0.228554 0.606771 -0.627887
O24   O     O_2   0.845611 0.979681 0.556317 -0.548375
O25   O     O_2   0.440719 0.185285 0.383075 -0.613208
O26   O     O_2   0.283330 0.457940 0.380160 -0.486370
O27   O     O_3   0.051340 0.457960 0.440360 -0.449213
O28   O     O_3   0.503130 0.601610 0.416130 -0.465163
O29   O     O_3   0.132138 0.333668 0.360265 -0.670494
O30   O     O_3   0.616890 0.595000 0.528820 -0.439565
O31   O     O_3   0.087820 0.642040 0.442240 -0.480793
P1    P     P_3+3 0.071770 0.565500 0.613330 1.010827
P2    P     P_3+3 0.664870 0.318630 0.453960 1.009216
P3    P     P_3+3 0.142461 0.255946 0.548214 0.934050
P4    P     P_3+3 0.117940 0.434440 0.386660 0.997305
P5    P     P_3+3 0.056222 0.744578 0.444735 0.976748
P6    P     P_3+3 0.672584 0.414143 0.649451 0.958055
P7    P     P_3+3 0.530504 0.694674 0.546847 1.005555
P8    P     P_3+3 0.507932 0.588008 0.349876 0.979185

loop_
_geom_bond_atom_site_label_1
_geom_bond_atom_site_label_2
_ccdc_geom_bond_type
O5    P2    S    
O29   P4    S    
C32   C33   S    
C48   C58   S    
Ba2   O27   S    
C60   H52   S    
C42   H40   S    
C52   O17   S    
C44   C46   S    
C4    O23   S    
C51   C57   A    
Br1   C61   S    
C49   C50   D    
C37   C43   A    
C68   H25   S    
C4    H27   S    
C47   H48   S    
Ba2   O4    S    
C29   C33   D    
C34   H13   S    
C25   C26   A    
C67   H22   S    
C39   H37   S    
C51   H47   S    
C1    H8    S    
C35   C36   A    
C31   C32   D    
C5    P8    S    
C11   H30   S    
Ba1   P1    S    
C55   C57   A    
C69   O10   D    
C20   H33   S    
O21   P3    D    
C66   O25   D    
C57   C59   S    
Ba1   Ba2   S    
C39   C43   A    
Ba1   O20   S    
C1    H3    S    
C69   N1    Am   
C12   H7    S    
C23   C34   S    
C9    C13   A    
C66   H58   S    
C2    C13   A    
C40   H23   S    
C20   C21   A    
C17   C20   A    
C54   C60   A    
C67   C68   S    
C62   O12   S    
C65   O24   D    
C6    C7    D    
Ba2   O31   S    
C58   C59   D    
Ba1   O4    S    
C44   C50   D    
O31   P5    S    
C23   H10   S    
C2    O13   D    
C45   H18   S    
C10   C11   A    
O6    P7    D    
C40   H12   S    
O19   P2    D    
C6    P4    S    
Ba1   O19   S    
Ba2   O26   S    
C27   O11   D    
O7    P7    S    
C2    N1    Am   
C63   H6    S    
C68   H26   S    
C51   C53   A    
C25   C42   A    
C55   H50   S    
C14   C64   S    
C43   H42   S    
C48   C49   S    
C12   O18   S    
C61   H60   S    
C34   H14   S    
C21   C22   A    
C35   C38   A    
C16   H16   S    
C7    C8    S    
C8    N1    S    
C3    C8    D    
C1    H15   S    
C3    C5    S    
Ba1   P2    S    
C16   H53   S    
O16   P6    D    
C21   H32   S    
C40   H34   S    
C15   H43   S    
C67   H24   S    
C59   H44   S    
C64   H55   S    
C18   C41   A    
C17   C35   A    
O20   P3    S    
C50   P2    S    
C44   H51   S    
O27   P4    S    
C61   H59   S    
Ba1   O30   S    
C63   H4    S    
C52   C61   S    
C47   C48   D    
C29   H31   S    
Ba1   O15   S    
C64   O22   D    
C56   H19   S    
C9    C10   A    
O4    P1    S    
C15   C31   D    
Ba2   O30   S    
Ba1   O5    S    
C28   C40   S    
Ba2   P4    S    
C11   C38   A    
C54   P7    S    
O26   P4    D    
C6    C14   D    
C26   N2    Am   
O15   P6    S    
Ba1   O27   S    
C46   C47   S    
C23   H9    S    
C4    C16   S    
C45   H17   S    
C53   P5    S    
C31   P1    S    
Ba1   O1    S    
C33   N2    S    
C13   C39   A    
C36   C37   A    
O17   P1    S    
C41   C42   A    
C45   C56   S    
C52   H45   S    
C22   C27   A    
C63   H5    S    
C28   O29   S    
C16   H49   S    
C38   H35   S    
C12   H1    S    
O3    P5    S    
C7    H29   S    
C17   C19   A    
Ba2   O28   S    
O23   P3    S    
C10   C69   A    
C22   C24   A    
C68   H28   S    
C67   O9    S    
C5    C14   S    
C28   H54   S    
C45   O3    S    
C19   C24   A    
Ba2   O5    S    
C29   C30   S    
C9    C36   A    
C23   O7    S    
C46   P3    S    
C30   P6    S    
C58   C65   S    
C54   C55   A    
C18   C37   A    
C1    C12   S    
C53   C60   A    
O18   P6    S    
C4    H39   S    
C32   H41   S    
C56   H20   S    
C62   C63   S    
C65   H57   S    
C15   C30   S    
O2    P5    D    
O1    P1    D    
O12   P2    S    
C62   H2    S    
C26   O14   D    
C28   C66   S    
C52   H56   S    
C27   N2    Am   
O9    P8    S    
C24   C25   A    
Ba2   O6    S    
C3    H36   S    
C34   H11   S    
C56   H21   S    
O8    P8    D    
C18   C19   A    
O28   P8    S    
O30   P7    S    
C62   H61   S    
C41   H38   S    
C49   H46   S    
