data_mof_unit_43953.cif
_audit_creation_date              2012-12-10T17:33:54-0500
_audit_creation_method            fapswitch 2.2
_symmetry_space_group_name_H-M    P1
_symmetry_Int_Tables_number       1
_space_group_crystal_system       triclinic
_cell_length_a                    10.610915
_cell_length_b                    12.06753
_cell_length_c                    12.80255
_cell_angle_alpha                 94.418893
_cell_angle_beta                  91.598149
_cell_angle_gamma                 86.595664
_cell_volume                      1631.12990148

loop_
_atom_site_label
_atom_site_type_symbol
_atom_type_description
_atom_site_fract_x
_atom_site_fract_y
_atom_site_fract_z
_atom_type_partial_charge
C1    C     C_R   0.499163 0.522791 0.700315 0.887140
C2    C     C_3   0.121292 0.499698 0.488308 0.152378
C3    C     C_3   0.076046 0.394822 0.423653 -0.425534
C4    C     C_3   0.061440 0.607622 0.439972 -0.041147
C5    C     C_R   0.508688 0.463391 0.188154 -0.041734
C6    C     C_R   0.496289 0.537593 0.811980 -0.050985
C7    C     C_R   0.405863 0.628010 0.968388 -0.224407
C8    C     C_R   0.422491 0.625156 0.861306 -0.213190
C9    C     C_R   0.558534 0.455952 0.868747 -0.284876
C10   C     C_R   0.542366 0.457836 0.975161 0.190896
C11   C     C_R   0.463973 0.543713 0.025052 0.193065
C12   C     C_R   0.741908 0.499827 0.496374 0.837756
C13   C     C_R   0.446103 0.544508 0.131110 -0.291458
C14   C     C_R   0.586777 0.378477 0.139517 -0.206625
C15   C     C_R   0.602564 0.374912 0.032297 -0.226847
C16   C     C_R   0.379672 0.948504 0.401356 -0.349326
C17   C     C_R   0.392569 0.834352 0.410834 0.008495
C18   C     C_R   0.549876 0.860037 0.544095 -0.047092
C19   C     C_R   0.541155 0.976573 0.536941 0.066434
C20   C     C_R   0.456371 0.021895 0.463021 0.092808
C21   C     C_R   0.451162 0.138890 0.452843 0.181616
C22   C     C_R   0.603636 0.163513 0.592021 -0.009901
C23   C     C_R   0.502340 0.477334 0.299702 0.857397
C24   C     C_R   0.614848 0.048098 0.601418 -0.342344
C25   C     C_R   0.258171 0.498918 0.492977 0.810889
C26   C     C_3   0.933675 0.493221 0.604428 -0.425143
C27   C     C_3   0.077406 0.497877 0.602748 -0.424600
C28   C     C_3   0.931188 0.398974 0.420363 -0.393626
C29   C     C_3   0.917123 0.608585 0.447573 -0.403449
C30   C     C_3   0.878310 0.500018 0.492189 0.159540
H1    H     H_    0.908936 0.414270 0.636440 0.176307
H2    H     H_    0.895671 0.406134 0.338368 0.155724
H3    H     H_    0.112833 0.388894 0.342807 0.151017
H4    H     H_    0.386391 0.610113 0.170107 0.144184
H5    H     H_    0.639061 0.318147 0.184675 0.143367
H6    H     H_    0.346461 0.694499 0.006408 0.141492
H7    H     H_    0.663499 0.309341 0.994606 0.135540
H8    H     H_    0.373773 0.688016 0.816605 0.155751
H9    H     H_    0.617027 0.389398 0.829474 0.142763
H10   H     H_    0.893595 0.563416 0.657238 0.160041
H11   H     H_    0.660045 0.217961 0.642709 0.131889
H12   H     H_    0.309536 0.976551 0.345161 0.158177
H13   H     H_    0.680339 0.015069 0.659229 0.146011
H14   H     H_    0.335573 0.778726 0.362234 0.138758
H15   H     H_    0.615068 0.823182 0.599945 0.119964
H16   H     H_    0.106584 0.573701 0.650283 0.161042
H17   H     H_    0.122013 0.424393 0.640039 0.184631
H18   H     H_    0.899794 0.319293 0.446277 0.186106
H19   H     H_    0.112094 0.318153 0.460484 0.186161
H20   H     H_    0.869128 0.616552 0.369845 0.172506
H21   H     H_    0.884344 0.682557 0.499350 0.163466
H22   H     H_    0.093017 0.681413 0.489488 0.158616
N1    N     N_R   0.523380 0.207800 0.519350 -0.113657
N2    N     N_R   0.476620 0.792180 0.480650 -0.097811
O1    O     O_R   0.506240 0.421700 0.658830 -0.615139
O2    O     O_R   0.491240 0.609310 0.646410 -0.619411
O3    O     O_R   0.692710 0.406190 0.506230 -0.631000
O4    O     O_R   0.677700 0.593810 0.493810 -0.626747
O5    O     O_R   0.508760 0.390690 0.353590 -0.636934
O6    O     O_R   0.493760 0.578300 0.341170 -0.622579
O7    O     O_R   0.322300 0.406190 0.506190 -0.642038
O8    O     O_R   0.307290 0.593810 0.493770 -0.634212
Zn1   Zn    Zn3+2 0.510020 0.374730 0.508290 0.916966
Zn2   Zn    Zn3+2 0.489980 0.625270 0.491710 0.925926
C31   C     C_3   0.100796 0.620703 0.325383 -0.418961
C32   C     C_3   0.065786 0.738633 0.291720 -0.354189
C33   C     C_3   0.114637 0.754106 0.183129 -0.908575
H23   H     H_    0.219348 0.748728 0.184449 0.246810
H24   H     H_    0.079060 0.689739 0.124752 0.266707
H25   H     H_    0.081549 0.837554 0.158968 0.250606
H26   H     H_    0.961646 0.754549 0.289880 0.225232
H27   H     H_    0.106359 0.801762 0.348759 0.212560
H28   H     H_    0.204165 0.603982 0.317443 0.207094
H29   H     H_    0.054165 0.559105 0.270436 0.207263
C34   C     C_3   0.367258 0.185046 0.366399 -0.410293
C35   C     C_3   0.423243 0.155922 0.257540 -0.352446
C36   C     C_3   0.337923 0.203155 0.171725 -0.877436
H30   H     H_    0.245390 0.164435 0.169047 0.252177
H31   H     H_    0.322015 0.294751 0.186339 0.262584
H32   H     H_    0.383025 0.184981 0.094587 0.257752
H33   H     H_    0.517623 0.190214 0.255432 0.234867
H34   H     H_    0.436756 0.064647 0.240119 0.218499
H35   H     H_    0.270576 0.155285 0.369895 0.161317
H36   H     H_    0.351810 0.274576 0.376430 0.265424

loop_
_geom_bond_atom_site_label_1
_geom_bond_atom_site_label_2
_ccdc_geom_bond_type
C11   C13   A    
C7    H6    S    
C19   C20   A    
C26   H10   S    
C6    C9    A    
C3    H19   S    
C7    C8    A    
C36   H30   S    
C23   O5    A    
C26   C27   S    
C4    H22   S    
C3    C28   S    
C1    O2    A    
C10   C15   A    
C4    C31   S    
C34   H36   S    
C22   H11   S    
C3    H3    S    
C9    H9    S    
C31   H28   S    
C18   C19   A    
O7    Zn1   S    
C15   H7    S    
O8    Zn2   S    
C32   H27   S    
C16   C17   A    
O1    Zn1   S    
O2    Zn2   S    
C2    C27   S    
C9    C10   A    
C5    C13   A    
C4    C29   S    
C12   O4    A    
C32   C33   S    
C26   H1    S    
C8    H8    S    
O3    Zn1   S    
C22   N1    A    
C29   H20   S    
C36   H31   S    
O4    Zn2   S    
C23   O6    A    
C33   H23   S    
C28   H2    S    
C35   C36   S    
C35   H34   S    
C14   H5    S    
C6    C8    A    
C31   H29   S    
C1    C6    S    
C33   H24   S    
C2    C4    S    
C34   C35   S    
C29   C30   S    
C7    C11   A    
C32   H26   S    
C5    C23   S    
C16   C20   A    
C25   O7    A    
C5    C14   A    
C12   O3    A    
C27   H16   S    
C26   C30   S    
C22   C24   A    
C18   H15   S    
C16   H12   S    
C29   H21   S    
C36   H32   S    
C27   H17   S    
C28   H18   S    
C12   C30   S    
C35   H33   S    
C21   C34   S    
O5    Zn1   S    
O6    Zn2   S    
C33   H25   S    
C28   C30   S    
C19   C24   A    
C1    O1    A    
C17   H14   S    
C13   H4    S    
C21   N1    A    
N1    Zn1   S    
C34   H35   S    
N2    Zn2   S    
C2    C3    S    
C2    C25   S    
C25   O8    A    
C10   C11   A    
C18   N2    A    
C20   C21   A    
C31   C32   S    
C24   H13   S    
C14   C15   A    
C17   N2    A    
