data_mof_unit_10179.cif
_audit_creation_date              2013-03-05T16:44:39-0500
_audit_creation_method            fapswitch 2.2
_symmetry_space_group_name_H-M    P1
_symmetry_Int_Tables_number       1
_space_group_crystal_system       triclinic
_cell_length_a                    27.626529
_cell_length_b                    10.679722
_cell_length_c                    9.830415
_cell_angle_alpha                 89.993662
_cell_angle_beta                  90.340485
_cell_angle_gamma                 90.750622
_cell_volume                      2900.10141154

loop_
_atom_site_label
_atom_site_type_symbol
_atom_site_description
_atom_site_fract_x
_atom_site_fract_y
_atom_site_fract_z
_atom_type_partial_charge
O1    O     O_R   0.500010 0.316790 0.614690 -0.624882
O2    O     O_R   0.500000 0.316760 0.385350 -0.611854
C1    C     C_R   0.498990 0.259794 0.499976 0.889124
O3    O     O_R   0.428760 0.500040 0.614660 -0.631906
O4    O     O_R   0.428750 0.500000 0.385310 -0.589985
C2    C     C_R   0.406171 0.498351 0.499534 0.928656
Zn1   Zn    Zn3+2 0.500000 0.500020 0.653130 0.942428
Zn2   Zn    Zn3+2 0.500000 0.499980 0.346870 0.959710
O5    O     O_R   0.500000 0.683240 0.614650 -0.621988
O6    O     O_R   0.499990 0.683210 0.385310 -0.631246
O7    O     O_R   0.571250 0.500000 0.614690 -0.623069
O8    O     O_R   0.571240 0.499960 0.385340 -0.621056
C3    C     C_R   0.498604 0.740088 0.500004 0.878483
C4    C     C_R   0.594114 0.501417 0.500345 0.900129
C5    C     C_R   0.177197 0.360919 0.519760 0.491748
O9    O     O_2   0.201283 0.268718 0.583934 -0.595819
N1    N     N_R   0.202170 0.458790 0.462464 -0.340872
C6    C     C_R   0.179143 0.551534 0.392624 0.534093
C7    C     C_R   0.275142 0.563682 0.557468 0.059684
C8    C     C_R   0.325589 0.572730 0.564128 -0.364385
C9    C     C_R   0.332433 0.383520 0.427559 0.458241
C10   C     C_R   0.282112 0.377914 0.414800 -0.221698
C11   C     C_R   0.253517 0.466485 0.479559 0.213357
C12   C     C_R   0.102103 0.458296 0.454076 -0.064183
C13   C     C_R   0.126582 0.357880 0.514864 -0.014757
C14   C     C_R   0.100103 0.259409 0.573208 -0.153342
C15   C     C_R   0.128645 0.554835 0.389970 -0.019508
C16   C     C_R   0.353919 0.484968 0.497099 -0.143067
H1    H     H_    0.264954 0.305107 0.354111 0.156276
H2    H     H_    0.118157 0.181318 0.621125 0.180437
C17   C     C_R   0.646995 0.506861 0.500703 -0.094625
C18   C     C_R   0.973024 0.365346 0.510524 0.012301
C19   C     C_R   0.977754 0.586212 0.438593 -0.076768
C20   C     C_R   0.950041 0.479317 0.477301 0.018078
C21   C     C_R   0.944001 0.259172 0.539214 -0.321945
C22   C     C_R   0.893456 0.264504 0.537827 0.532283
C23   C     C_R   0.870764 0.380591 0.517803 -0.122541
C24   C     C_R   0.899120 0.487486 0.485765 -0.122651
C25   C     C_R   0.876532 0.603081 0.462346 -0.072006
C26   C     C_R   0.826206 0.610392 0.470521 0.569734
N2    N     N_R   0.799382 0.506063 0.500178 -0.337259
C27   C     C_R   0.820222 0.393288 0.526138 0.547662
C28   C     C_R   0.723038 0.506268 0.623471 -0.183006
C29   C     C_R   0.672786 0.503451 0.623954 -0.228649
C30   C     C_R   0.672056 0.516073 0.377260 -0.328605
C31   C     C_R   0.722634 0.522048 0.376428 0.525528
C32   C     C_R   0.747893 0.513513 0.500203 0.235337
O10   O     O_2   0.791791 0.294451 0.559566 -0.517253
C33   C     C_R   0.024276 0.361589 0.514248 0.082287
C34   C     C_R   0.051117 0.463373 0.459259 0.072903
C35   C     C_R   0.027485 0.571541 0.411347 0.032153
C36   C     C_R   0.049792 0.260331 0.571679 -0.225759
H3    H     H_    0.654224 0.496660 0.720468 0.173782
H4    H     H_    0.742830 0.500539 0.718633 0.162834
H5    H     H_    0.959632 0.169342 0.559849 0.150652
H6    H     H_    0.031917 0.182894 0.621641 0.141345
O11   O     O_2   0.205173 0.641295 0.328331 -0.569621
C37   C     C_R   0.104263 0.652817 0.326339 -0.174413
H7    H     H_    0.342830 0.648640 0.620356 0.168603
H8    H     H_    0.123727 0.725318 0.271313 0.189147
C38   C     C_R   0.954694 0.704507 0.433135 0.470341
C39   C     C_R   0.904535 0.709880 0.436141 -0.238834
O12   O     O_2   0.804092 0.720858 0.450171 -0.612955
C40   C     C_R   0.054315 0.660785 0.336314 -0.195969
H9    H     H_    0.652591 0.517485 0.281386 0.170765
H10   H     H_    0.887819 0.799946 0.423664 0.183794
H11   H     H_    0.037084 0.736517 0.282653 0.201259
C41   C     C_R   0.492517 0.063599 0.623251 0.125467
C42   C     C_R   0.491966 0.128121 0.500328 -0.097906
C43   C     C_R   0.481762 0.064117 0.378723 -0.220272
H12   H     H_    0.477216 0.113014 0.283036 0.169631
C44   C     C_R   0.481337 0.934661 0.378894 -0.246160
H13   H     H_    0.476658 0.885470 0.283244 0.174001
C45   C     C_R   0.491197 0.871175 0.500649 -0.103478
C46   C     C_R   0.492114 0.936009 0.623497 0.138020
C47   C     C_3   0.526836 0.929733 0.740506 -0.487679
C48   C     C_3   0.527236 0.071765 0.740123 -0.469067
H14   H     H_    0.509780 0.888890 0.832842 0.200530
H15   H     H_    0.562180 0.888770 0.712084 0.203972
H16   H     H_    0.510395 0.112798 0.832094 0.200372
H17   H     H_    0.562795 0.113656 0.711303 0.209673
C49   C     C_R   0.480027 0.401646 0.070980 0.195957
N3    N     N_R   0.499670 0.499140 0.142800 -0.106841
C50   C     C_R   0.523969 0.590605 0.072495 -0.135463
H18   H     H_    0.542509 0.664942 0.127391 0.146953
C51   C     C_R   0.524019 0.590523 0.928254 -0.132741
H19   H     H_    0.542707 0.664569 0.873953 0.145124
N4    N     N_R   0.499670 0.499180 0.857150 -0.102910
C52   C     C_R   0.480046 0.401654 0.928237 0.213043
C53   C     C_3   0.428724 0.357171 0.921205 -0.533781
C54   C     C_3   0.428649 0.357370 0.075802 -0.445471
H20   H     H_    0.404153 0.427681 0.875857 0.230280
H21   H     H_    0.425430 0.261732 0.876640 0.200357
H22   H     H_    0.404086 0.428115 0.119915 0.238875
H23   H     H_    0.425188 0.262044 0.120395 0.208936
O13   O     O_3   0.361478 0.292665 0.370451 -0.658532
C55   C     C_3   0.352010 0.173767 0.429775 0.063676
H24   H     H_    0.374530 0.104874 0.375078 0.178062
H25   H     H_    0.313805 0.142702 0.414233 0.145819
C56   C     C_3   0.365592 0.169987 0.581928 -0.369347
H26   H     H_    0.402590 0.209102 0.596901 0.226061
H27   H     H_    0.340228 0.228269 0.641259 0.224402
C57   C     C_3   0.363363 0.036701 0.637518 -0.933350
H28   H     H_    0.325661 0.999918 0.632289 0.262448
H29   H     H_    0.375526 0.036487 0.745382 0.264676
H30   H     H_    0.387231 0.974440 0.578245 0.264963
C58   C     C_R   0.245650 0.658120 0.628496 0.146891
C59   C     C_R   0.209908 0.620886 0.721857 -0.166943
C60   C     C_R   0.181093 0.710318 0.784837 -0.128889
C61   C     C_R   0.187860 0.837413 0.755691 -0.100867
C62   C     C_R   0.223597 0.875337 0.663911 -0.137588
C63   C     C_R   0.252491 0.786196 0.600708 -0.114052
H31   H     H_    0.204387 0.522827 0.745929 0.150961
H32   H     H_    0.153486 0.681060 0.856236 0.140042
H33   H     H_    0.165429 0.906489 0.804256 0.133286
H34   H     H_    0.228746 0.973792 0.641196 0.164806
H35   H     H_    0.279566 0.816688 0.528197 0.136581
O14   O     O_3   0.979808 0.817777 0.431719 -0.672394
C64   C     C_3   0.002322 0.840041 0.559772 0.064497
H36   H     H_    0.028743 0.918283 0.545960 0.172608
H37   H     H_    0.023570 0.758641 0.596154 0.148261
C65   C     C_3   0.965643 0.878347 0.668511 -0.383854
H38   H     H_    0.943607 0.956993 0.630314 0.232893
H39   H     H_    0.940940 0.798282 0.691453 0.224603
C66   C     C_3   0.991067 0.918411 0.799976 -0.926582
H40   H     H_    0.012796 0.840162 0.841336 0.261858
H41   H     H_    0.963657 0.944815 0.876621 0.276448
H42   H     H_    0.015215 0.000497 0.781363 0.254072
O15   O     O_3   0.748016 0.523303 0.255227 -0.651970
C67   C     C_3   0.738781 0.634103 0.180466 0.118715
H43   H     H_    0.773749 0.685338 0.167949 0.184055
H44   H     H_    0.713617 0.700513 0.230977 0.132257
C68   C     C_3   0.718968 0.599692 0.039508 -0.373871
H45   H     H_    0.745547 0.540358 0.985867 0.237927
H46   H     H_    0.684666 0.545171 0.050085 0.220149
C69   C     C_3   0.709347 0.716434 0.954472 -0.947738
H47   H     H_    0.682082 0.775886 0.005000 0.264066
H48   H     H_    0.695110 0.688660 0.852948 0.269725
H49   H     H_    0.743358 0.771468 0.940440 0.276739
O16   O     O_3   0.866265 0.158172 0.568145 -0.595873
C70   C     C_3   0.868804 0.069511 0.461312 0.072613
H50   H     H_    0.854509 0.979706 0.502325 0.195016
H51   H     H_    0.906585 0.052040 0.428194 0.130421
C71   C     C_3   0.837215 0.106139 0.338880 -0.313030
H52   H     H_    0.799248 0.118820 0.372272 0.271384
H53   H     H_    0.850673 0.195779 0.294798 0.211616
C72   C     C_3   0.838033 0.005572 0.228647 -0.933879
H54   H     H_    0.875706 0.989894 0.194206 0.268483
H55   H     H_    0.815973 0.036014 0.140089 0.272907
H56   H     H_    0.822584 0.916187 0.267830 0.288672

loop_
_geom_bond_atom_site_label_1
_geom_bond_atom_site_label_2
_geom_bond_distance
_ccdc_geom_bond_type
C10   H1    1.082721 S    
Zn2   N3    2.006080 S    
C58   C63   1.405353 A    
C67   H44   1.118023 S    
C7    C8    1.396902 A    
C47   H15   1.112368 S    
C4    C17   1.461305 S    
C28   C29   1.388270 A    
C31   O15   1.386046 S    
C55   H24   1.110678 S    
C30   C31   1.397969 A    
C41   C46   1.362537 A    
Zn1   O7    2.006541 S    
N1    C11   1.428773 S    
C26   O12   1.349983 S    
C53   H21   1.111894 S    
N3    C50   1.367720 A    
C22   C23   1.409841 A    
C72   H55   1.110765 S    
C47   H14   1.111678 S    
C70   H51   1.113255 S    
O4    C2    1.287743 A    
O7    C4    1.292635 A    
C51   N4    1.367507 A    
C64   C65   1.536429 S    
C37   H8    1.083397 S    
C5    O9    1.349967 S    
C59   C60   1.398264 A    
Zn1   O5    1.992925 S    
N2    C27   1.365116 A    
C23   C27   1.407505 A    
O5    C3    1.280705 A    
C61   C62   1.397449 A    
C6    O11   1.350092 S    
C72   H54   1.111162 S    
O14   C64   1.419467 S    
C29   H3    1.083141 S    
C2    C16   1.448780 S    
C62   C63   1.398377 A    
C41   C42   1.391091 A    
C66   H42   1.110463 S    
C58   C59   1.405651 A    
C12   C15   1.408307 A    
C43   H12   1.083275 S    
C6    C15   1.396097 A    
C20   C24   1.413574 A    
C9    C10   1.395589 A    
C37   C40   1.387652 A    
C42   C43   1.402459 A    
C71   C72   1.526269 S    
C55   H25   1.111907 S    
N1    C6    1.366846 A    
C47   C48   1.516761 S    
C64   H37   1.113131 S    
C12   C34   1.411547 A    
C17   C29   1.402638 A    
C39   H10   1.079095 S    
C21   H5    1.075999 S    
C18   C21   1.409600 A    
C72   H56   1.110412 S    
C12   C13   1.406618 A    
C71   H53   1.111317 S    
C45   C46   1.392056 A    
C70   C71   1.536085 S    
C25   C26   1.396343 A    
C51   H19   1.081353 S    
C71   H52   1.110885 S    
C8    C16   1.396677 A    
O3    Zn1   2.001913 S    
C13   C14   1.398114 A    
O6    C3    1.281778 A    
C56   C57   1.525306 S    
C49   C54   1.491223 S    
O1    C1    1.281523 A    
C21   C22   1.398266 A    
C18   C20   1.417405 A    
C59   H31   1.082675 S    
C7    C11   1.414034 A    
C46   C47   1.495415 S    
C40   H11   1.079831 S    
C23   C24   1.412639 A    
C14   C36   1.390068 A    
C68   C69   1.526336 S    
C68   H45   1.111597 S    
C28   H4    1.082863 S    
C53   H20   1.111870 S    
Zn1   N4    2.005695 S    
C48   H17   1.112292 S    
Zn2   O8    2.001913 S    
C33   C36   1.414289 A    
O13   C55   1.419098 S    
C56   H27   1.111289 S    
C34   C35   1.413703 A    
N2    C32   1.425738 S    
C57   H29   1.110419 S    
C27   O10   1.349219 S    
C50   H18   1.081654 S    
C8    H7    1.084665 S    
C22   O16   1.386700 S    
C62   H34   1.082628 S    
C60   H32   1.082611 S    
C44   C45   1.402584 A    
C26   N2    1.362509 A    
C9    C16   1.404280 A    
O8    C4    1.291881 A    
C14   H2    1.083611 S    
C30   H9    1.082528 S    
C66   H40   1.110935 S    
O3    C2    1.289156 A    
C65   H39   1.110977 S    
C55   C56   1.540574 S    
C69   H48   1.109534 S    
C68   H46   1.111101 S    
O15   C67   1.418077 S    
C48   H16   1.111926 S    
C41   C48   1.494102 S    
C5    N1    1.367976 A    
C25   C39   1.394620 A    
C31   C32   1.402613 A    
C1    C42   1.417041 S    
C38   O14   1.386741 S    
O1    Zn1   1.993043 S    
O2    Zn2   1.992926 S    
C35   C40   1.410574 A    
C50   C51   1.417960 A    
C44   H13   1.083382 S    
C15   C37   1.397606 A    
O4    Zn2   2.006543 S    
C64   H36   1.111146 S    
C9    O13   1.387971 S    
C19   C35   1.412055 A    
C63   H35   1.083295 S    
C65   C66   1.525799 S    
C67   H43   1.111474 S    
C52   C53   1.490618 S    
C60   C61   1.397604 A    
C69   H49   1.111018 S    
C54   H22   1.111924 S    
C53   C54   1.519767 S    
C24   C25   1.408854 A    
C49   C52   1.403225 A    
C19   C38   1.423180 A    
O16   C70   1.416782 S    
C56   H26   1.108136 S    
C19   C20   1.419402 A    
O2    C1    1.280788 A    
C57   H30   1.110214 S    
C38   C39   1.388165 A    
C18   C33   1.417269 A    
C5    C13   1.398794 A    
C54   H23   1.111570 S    
C67   C68   1.529901 S    
N4    C52   1.362584 A    
Zn2   O6    1.993042 S    
C33   C34   1.416745 A    
C17   C30   1.403489 A    
C57   H28   1.109273 S    
C66   H41   1.110425 S    
C10   C11   1.396343 A    
C69   H47   1.110985 S    
C43   C44   1.382450 A    
C49   N3    1.363034 A    
C65   H38   1.108010 S    
C70   H50   1.109170 S    
C28   C32   1.397980 A    
C61   H33   1.082462 S    
C36   H6    1.077554 S    
C3    C45   1.417524 S    
C7    C58   1.482243 S    
