data_mof_unit_9668.cif
_audit_creation_date              2012-12-10T19:12:17-0500
_audit_creation_method            fapswitch 2.2
_symmetry_space_group_name_H-M    P1
_symmetry_Int_Tables_number       1
_space_group_crystal_system       triclinic
_cell_length_a                    7.773908
_cell_length_b                    9.095231
_cell_length_c                    17.084628
_cell_angle_alpha                 89.615059
_cell_angle_beta                  92.189959
_cell_angle_gamma                 90.021127
_cell_volume                      1207.06745524

loop_
_atom_site_label
_atom_site_type_symbol
_atom_type_description
_atom_site_fract_x
_atom_site_fract_y
_atom_site_fract_z
_atom_type_partial_charge
C1    C     C_R   0.499968 0.219978 0.500031 0.861369
C2    C     C_R   0.500031 0.780021 0.499969 0.861368
C3    C     C_R   0.518212 0.499231 0.651389 0.849016
C4    C     C_R   0.481788 0.500769 0.348611 0.849016
C5    C     C_R   0.517935 0.513506 0.737041 -0.127375
C6    C     C_R   0.482065 0.486494 0.262959 -0.127375
C7    C     C_R   0.379355 0.590783 0.767737 -0.232258
C8    C     C_R   0.620645 0.409217 0.232263 -0.232258
C9    C     C_R   0.363241 0.608225 0.848199 -0.039251
C10   C     C_R   0.636760 0.391775 0.151801 -0.039252
C11   C     C_R   0.489485 0.545891 0.899542 0.293637
C12   C     C_R   0.510516 0.454110 0.100458 0.293638
C13   C     C_R   0.633702 0.474919 0.868987 -0.183560
C14   C     C_R   0.366299 0.525082 0.131013 -0.183560
C15   C     C_R   0.648011 0.455375 0.788256 -0.063477
C16   C     C_R   0.351989 0.544626 0.211744 -0.063478
C17   C     C_1   0.499976 0.065359 0.500012 -0.149247
C18   C     C_1   0.500024 0.934641 0.499988 -0.149247
Cu1   Cu    Cu3+1 0.669080 0.500010 0.500000 1.041624
Cu2   Cu    Cu3+1 0.330920 0.499990 0.500000 1.041624
H1    H     H_    0.717601 0.361206 0.271913 0.207989
H2    H     H_    0.282398 0.638793 0.728087 0.207988
N1    N     N_1   0.076820 0.499970 0.500010 -0.037934
N2    N     N_1   0.923180 0.500030 0.499990 -0.037934
N3    N     N_2   0.466606 0.552403 0.981348 -0.190304
N4    N     N_2   0.533395 0.447598 0.018652 -0.190303
O1    O     O_R   0.642760 0.288400 0.500000 -0.569966
O2    O     O_R   0.357240 0.711600 0.500000 -0.569966
O3    O     O_R   0.357190 0.288380 0.500000 -0.581759
O4    O     O_R   0.642810 0.711620 0.500000 -0.581759
O5    O     O_R   0.658410 0.498660 0.613920 -0.558183
O6    O     O_R   0.341590 0.501340 0.386080 -0.558183
O7    O     O_R   0.372840 0.498650 0.613930 -0.588178
O8    O     O_R   0.627160 0.501350 0.386070 -0.588179
C19   C     C_2   0.790128 0.312247 0.123490 0.900712
O9    O     O_2   0.793598 0.268982 0.055954 -0.565489
O10   O     O_R   0.931456 0.285475 0.174807 -0.748050
H3    H     H_    0.028033 0.231591 0.148909 0.347228
C20   C     C_2   0.209873 0.687753 0.876510 0.900711
O11   O     O_2   0.206405 0.731023 0.944045 -0.565489
O12   O     O_R   0.068542 0.714520 0.825193 -0.748048
H4    H     H_    0.971965 0.768405 0.851092 0.347227
H5    H     H_    0.732579 0.429673 0.908573 0.216712
H6    H     H_    0.267422 0.570329 0.091427 0.216711
C21   C     C_2   0.793447 0.366193 0.760734 0.894598
O13   O     O_2   0.935782 0.376847 0.793279 -0.563193
O14   O     O_R   0.766764 0.265438 0.699999 -0.754904
H7    H     H_    0.875630 0.210730 0.687157 0.340246
C22   C     C_2   0.206554 0.633807 0.239266 0.894598
O15   O     O_2   0.064219 0.623153 0.206721 -0.563195
O16   O     O_R   0.233237 0.734563 0.300001 -0.754904
H8    H     H_    0.124370 0.789270 0.312843 0.340247

loop_
_geom_bond_atom_site_label_1
_geom_bond_atom_site_label_2
_ccdc_geom_bond_type
C6    C8    A    
N1    N2    T    
O10   H3    S    
C2    C18   S    
C7    H2    S    
Cu1   O1    S    
O12   H4    S    
C1    C17   S    
C19   O9    D    
Cu2   N1    S    
C9    C20   S    
C2    O4    A    
Cu1   O5    S    
Cu1   Cu2   S    
C1    O3    A    
C17   C18   T    
C20   O12   S    
C21   O13   D    
C3    O5    A    
C11   C13   A    
C9    C11   A    
C4    O6    A    
C10   C12   A    
Cu2   O7    S    
C14   H6    S    
C19   O10   S    
C12   C14   A    
Cu1   N2    S    
C4    O8    A    
Cu2   O3    S    
C13   C15   A    
C10   C19   S    
C14   C16   A    
C5    C15   A    
C4    C6    S    
C3    O7    A    
C6    C16   A    
O16   H8    S    
C7    C9    A    
C13   H5    S    
C16   C22   S    
C1    O1    A    
C22   O15   D    
Cu2   O6    S    
C21   O14   S    
C20   O11   D    
C5    C7    A    
C11   N3    S    
C2    O2    A    
Cu2   O2    S    
C3    C5    S    
N3    N4    D    
Cu1   O4    S    
Cu1   O8    S    
C8    C10   A    
O14   H7    S    
C12   N4    S    
C22   O16   S    
C15   C21   S    
C8    H1    S    
