data_mof_unit_52710.cif
_audit_creation_date              2012-12-11T14:21:16-0500
_audit_creation_method            fapswitch 2.2
_symmetry_space_group_name_H-M    P1
_symmetry_Int_Tables_number       1
_space_group_crystal_system       triclinic
_cell_length_a                    11.63414
_cell_length_b                    11.482272
_cell_length_c                    19.506865
_cell_angle_alpha                 90.751186
_cell_angle_beta                  89.860801
_cell_angle_gamma                 59.678758
_cell_volume                      2249.07574864

loop_
_atom_site_label
_atom_site_type_symbol
_atom_type_description
_atom_site_fract_x
_atom_site_fract_y
_atom_site_fract_z
_atom_type_partial_charge
C1    C     C_R   0.641104 0.119530 0.598469 0.544856
C2    C     C_1   0.661299 0.161521 0.664670 0.000367
C3    C     C_R   0.663829 0.663229 0.195607 -0.004847
C4    C     C_R   0.611913 0.746493 0.598579 0.537226
C5    C     C_R   0.540356 0.705259 0.228144 0.024639
C6    C     C_R   0.541832 0.676306 0.297423 0.035759
C7    C     C_R   0.769847 0.629567 0.306044 -0.154369
C8    C     C_R   0.779116 0.618529 0.235350 -0.144615
C9    C     C_R   0.419823 0.756521 0.191694 -0.083351
C10   C     C_R   0.313471 0.749238 0.219181 -0.125354
C11   C     C_R   0.318826 0.707185 0.285955 -0.153408
C12   C     C_1   0.640457 0.704135 0.667910 0.005670
C13   C     C_R   0.433219 0.667156 0.324327 -0.096406
C14   C     C_R   0.649516 0.664305 0.337669 -0.000857
C15   C     C_R   0.169718 0.178813 0.185748 -0.023356
C16   C     C_R   0.298819 0.119810 0.605302 0.562307
C17   C     C_R   0.248166 0.233339 0.207686 0.013146
C18   C     C_R   0.283375 0.224366 0.277661 0.019879
C19   C     C_R   0.209453 0.062392 0.293959 -0.144592
C20   C     C_R   0.152936 0.091250 0.229651 -0.046213
C21   C     C_R   0.283959 0.305471 0.162450 -0.090917
C22   C     C_R   0.322213 0.393692 0.187897 -0.116453
C23   C     C_1   0.147502 0.186834 0.863309 -0.000522
C24   C     C_R   0.335641 0.402111 0.257858 -0.140638
C25   C     C_R   0.326463 0.312695 0.301576 -0.102876
C26   C     C_R   0.268117 0.132585 0.320603 -0.014334
C27   C     C_R   0.668786 0.188309 0.193359 0.011942
C28   C     C_R   0.647282 0.110402 0.402111 0.536177
C29   C     C_R   0.720075 0.054758 0.214709 0.040905
C30   C     C_R   0.747127 0.027168 0.284666 0.045656
C31   C     C_R   0.623119 0.268325 0.311288 -0.166199
C32   C     C_R   0.626509 0.293382 0.242089 -0.141002
C33   C     C_R   0.765281 0.946827 0.166702 -0.072936
C34   C     C_1   0.228793 0.144183 0.735695 -0.030452
C35   C     C_R   0.863275 0.817904 0.184720 -0.095171
C36   C     C_R   0.909645 0.793586 0.251591 -0.122099
C37   C     C_R   0.849206 0.894801 0.301772 -0.070024
C38   C     C_R   0.678275 0.135974 0.333103 0.003066
C39   C     C_R   0.084860 0.228930 0.929389 0.535893
C40   C     C_R   0.618358 0.732365 0.404374 0.536361
C41   C     C_R   0.684093 0.604029 0.929553 0.535067
C42   C     C_R   0.741052 0.231546 0.922964 0.556334
C43   C     C_R   0.086612 0.232942 0.124251 0.533671
C44   C     C_R   0.682241 0.612909 0.125532 0.530131
C45   C     C_1   0.188989 0.162762 0.805180 -0.029377
C46   C     C_R   0.706342 0.210915 0.126037 0.544358
C47   C     C_R   0.304253 0.114479 0.393685 0.558979
C48   C     C_1   0.670617 0.646285 0.860192 0.003706
C49   C     C_1   0.654202 0.683762 0.728376 -0.030849
C50   C     C_1   0.663350 0.666622 0.799700 -0.031348
C51   C     C_1   0.069859 0.035814 0.213683 0.213337
C52   C     C_1   0.259947 0.132639 0.676001 0.000677
C53   C     C_1   0.715442 0.218374 0.852236 0.001897
C54   C     C_1   0.677541 0.186196 0.722881 -0.028989
C55   C     C_1   0.697028 0.205943 0.792481 -0.030888
Cr1   Cr    Cr6+3 0.404720 0.198220 0.499960 1.007760
Cr2   Cr    Cr6+3 0.698290 0.897110 0.500380 1.016762
Cr3   Cr    Cr6+3 0.396970 0.904720 0.499610 1.023484
Cr4   Cr    Cr6+3 0.926180 0.151990 0.028120 1.037169
Cr5   Cr    Cr6+3 0.921330 0.451820 0.027470 1.010555
Cr6   Cr    Cr6+3 0.626260 0.446870 0.028710 1.014410
H1    H     H_    0.855449 0.612037 0.335836 0.129639
H2    H     H_    0.894235 0.868851 0.351547 0.146843
H3    H     H_    0.410775 0.793340 0.140010 0.129853
H4    H     H_    0.877042 0.574272 0.211938 0.148215
H5    H     H_    0.228646 0.772195 0.187744 0.140777
H6    H     H_    0.436807 0.626753 0.374605 0.132500
H7    H     H_    0.195563 0.993727 0.325900 0.153779
H8    H     H_    0.278319 0.297754 0.107376 0.135119
H9    H     H_    0.235594 0.702097 0.307440 0.110846
H10   H     H_    0.341876 0.455043 0.153535 0.125987
H11   H     H_    0.366007 0.469268 0.278206 0.117618
H12   H     H_    0.352055 0.318890 0.353486 0.169994
H13   H     H_    0.577956 0.351880 0.347750 0.110839
H14   H     H_    0.734874 0.964424 0.113615 0.117534
H15   H     H_    0.594267 0.395563 0.226515 0.146257
H16   H     H_    0.906758 0.738138 0.146207 0.119677
H17   H     H_    0.991152 0.695063 0.264968 0.102200
N1    N     N_1   0.004751 0.988996 0.201564 -0.286019
O1    O     O_R   0.267740 0.231960 0.575440 -0.491934
O2    O     O_R   0.596130 0.579390 0.952730 -0.513283
O3    O     O_R   0.639060 0.321160 0.958670 -0.491748
O4    O     O_R   0.527280 0.186640 0.570530 -0.509941
O5    O     O_R   0.821240 0.124200 0.104370 -0.484670
O6    O     O_R   0.036890 0.167040 0.097840 -0.486660
O7    O     O_R   0.056180 0.349610 0.102880 -0.526775
O8    O     O_R   0.797660 0.564870 0.097950 -0.507288
O9    O     O_R   0.595880 0.584250 0.104270 -0.522236
O10   O     O_R   0.638830 0.325670 0.099150 -0.506099
O11   O     O_3   0.824590 0.350230 0.028100 -0.268167
O12   O     O_R   0.685970 0.784660 0.430010 -0.497760
O13   O     O_R   0.728090 0.003450 0.576380 -0.497827
O14   O     O_R   0.682970 0.789190 0.570490 -0.492533
O15   O     O_R   0.499290 0.771880 0.575530 -0.514408
O16   O     O_R   0.285330 0.030870 0.569730 -0.478782
O17   O     O_R   0.270980 0.227080 0.423890 -0.522664
O18   O     O_R   0.530280 0.182120 0.430050 -0.532456
O19   O     O_R   0.731330 0.998570 0.424830 -0.527643
O20   O     O_R   0.502530 0.767000 0.423990 -0.533470
O21   O     O_R   0.288330 0.026350 0.429250 -0.486940
O22   O     O_3   0.499990 0.000020 0.499980 -0.288679
O23   O     O_R   0.821500 0.119340 0.952830 -0.507131
O24   O     O_R   0.037130 0.162530 0.957360 -0.512143
O25   O     O_R   0.056440 0.344740 0.951340 -0.505626
O26   O     O_R   0.797900 0.560360 0.957470 -0.494499

loop_
_geom_bond_atom_site_label_1
_geom_bond_atom_site_label_2
_ccdc_geom_bond_type
C28   O18   A    
C23   C45   T    
Cr2   O13   S    
C27   C29   A    
C9    H3    S    
C53   C55   T    
C19   C20   A    
C42   O3    A    
C40   O20   A    
C12   C49   T    
C11   H9    S    
C7    C8    A    
C46   O10   A    
C41   O26   A    
C36   C37   A    
Cr1   O22   S    
C20   C51   S    
Cr6   O3    S    
C42   C53   S    
C5    C6    A    
C29   C33   A    
C30   C38   A    
C15   C17   A    
C1    C2    S    
C19   C26   A    
C33   H14   S    
C7    C14   A    
C35   C36   A    
C18   C26   A    
C47   O17   A    
C4    C12   S    
C44   O8    A    
C9    C10   A    
C48   C50   T    
C8    H4    S    
Cr2   O14   S    
C21   C22   A    
Cr4   O23   S    
C18   C25   A    
Cr1   O18   S    
C42   O23   A    
C37   H2    S    
Cr5   O8    S    
Cr6   O10   S    
C10   H5    S    
C15   C20   A    
C3    C44   S    
C43   O6    A    
C39   O25   A    
Cr3   O21   S    
Cr4   O5    S    
C3    C8    A    
C2    C54   T    
Cr3   O22   S    
Cr5   O7    S    
C31   H13   S    
C35   H16   S    
C17   C21   A    
C47   O21   A    
C30   C37   A    
C21   H8    S    
C16   O1    A    
Cr4   O11   S    
Cr3   O16   S    
Cr4   O6    S    
C7    H1    S    
C5    C9    A    
C29   C30   A    
Cr6   O9    S    
C6    C14   A    
C31   C32   A    
C28   C38   S    
C41   O2    A    
C17   C18   A    
Cr5   O25   S    
C19   H7    S    
C34   C45   S    
C24   C25   A    
C26   C47   S    
C4    O15   A    
C27   C46   S    
C1    O13   A    
C22   C24   A    
C22   H10   S    
Cr6   O11   S    
C24   H11   S    
Cr1   O4    S    
C13   H6    S    
C28   O19   A    
Cr1   O17   S    
C54   C55   S    
C16   O16   A    
Cr2   O12   S    
C27   C32   A    
C43   O7    A    
Cr3   O20   S    
C16   C52   S    
C3    C5    A    
C32   H15   S    
C39   O24   A    
Cr5   O11   S    
C1    O4    A    
Cr2   O22   S    
C34   C52   T    
Cr1   O1    S    
C31   C38   A    
Cr4   O24   S    
Cr3   O15   S    
C15   C43   S    
C36   H17   S    
C6    C13   A    
C11   C13   A    
C23   C39   S    
Cr2   O19   S    
C33   C35   A    
C41   C48   S    
C46   O5    A    
C25   H12   S    
C40   O12   A    
C51   N1    T    
C10   C11   A    
C14   C40   S    
C4    O14   A    
C49   C50   S    
Cr6   O2    S    
C44   O9    A    
Cr5   O26   S    
