data_mof_unit_57177.cif
_audit_creation_date              2012-12-10T17:40:55-0500
_audit_creation_method            fapswitch 2.2
_symmetry_space_group_name_H-M    P1
_symmetry_Int_Tables_number       1
_space_group_crystal_system       triclinic
_cell_length_a                    14.494529
_cell_length_b                    15.623584
_cell_length_c                    9.940619
_cell_angle_alpha                 90.535001
_cell_angle_beta                  89.862804
_cell_angle_gamma                 90.056949
_cell_volume                      2251.01204873

loop_
_atom_site_label
_atom_site_type_symbol
_atom_type_description
_atom_site_fract_x
_atom_site_fract_y
_atom_site_fract_z
_atom_type_partial_charge
C1    C     C_R   0.381012 0.879659 0.499553 0.847941
C2    C     C_R   0.384838 0.124513 0.501432 0.881689
C3    C     C_R   0.880908 0.379777 0.499466 0.839878
C4    C     C_R   0.884242 0.624127 0.501654 0.877238
C5    C     C_R   0.284299 0.221010 0.382230 -0.234826
C6    C     C_R   0.236482 0.819113 0.560082 -0.234365
C7    C     C_R   0.784494 0.721483 0.383386 -0.229578
C8    C     C_R   0.733852 0.321324 0.551517 -0.203543
C9    C     C_R   0.709919 0.774697 0.380909 -0.218642
C10   C     C_R   0.672358 0.255147 0.552419 -0.171837
C11   C     C_R   0.209673 0.274287 0.380290 -0.211592
C12   C     C_R   0.174993 0.752964 0.560361 -0.197568
C13   C     C_R   0.665340 0.796551 0.500952 -0.124759
C14   C     C_R   0.698304 0.175157 0.502036 -0.099296
C15   C     C_R   0.166348 0.297052 0.500938 -0.133398
C16   C     C_R   0.198945 0.674570 0.502122 -0.092807
C17   C     C_R   0.322531 0.009720 0.128015 0.069487
C18   C     C_R   0.823787 0.482440 0.128725 0.066198
C19   C     C_R   0.244109 0.021155 0.047384 -0.401897
C20   C     C_R   0.747457 0.461879 0.048367 -0.329202
C21   C     C_R   0.248939 0.017090 0.908293 0.510432
C22   C     C_R   0.752169 0.465813 0.910973 0.470472
C23   C     C_R   0.334817 0.007084 0.851177 -0.212744
C24   C     C_R   0.834942 0.487034 0.851514 -0.240279
C25   C     C_R   0.417167 0.004099 0.925451 0.034101
C26   C     C_R   0.917385 0.493481 0.925369 0.052561
C27   C     C_R   0.414828 0.004559 0.070201 0.166235
C28   C     C_R   0.915276 0.492330 0.070318 0.159068
C29   C     C_R   0.579184 0.995451 0.071172 -0.119750
C30   C     C_R   0.079028 0.506514 0.071269 -0.124616
C31   C     C_R   0.625737 0.114033 0.500213 0.850848
C32   C     C_R   0.610798 0.873277 0.499988 0.840868
C33   C     C_R   0.125956 0.613799 0.500175 0.856550
C34   C     C_R   0.111225 0.373471 0.500002 0.837614
C35   C     C_R   0.579101 0.995554 0.928474 -0.101455
C36   C     C_R   0.078972 0.506199 0.928579 -0.109851
C37   C     C_R   0.325364 0.217693 0.754844 -0.159116
C38   C     C_R   0.437200 0.719326 0.380069 -0.210856
C39   C     C_R   0.820053 0.712343 0.757328 -0.174478
C40   C     C_R   0.939313 0.217511 0.390129 -0.201166
C41   C     C_R   0.276182 0.231225 0.873714 -0.186668
C42   C     C_R   0.466583 0.640628 0.331281 -0.207129
C43   C     C_R   0.769358 0.724143 0.875131 -0.220727
C44   C     C_R   0.970349 0.137648 0.348884 -0.192399
C45   C     C_R   0.675892 0.742826 0.867914 -0.171980
C46   C     C_R   0.913706 0.067050 0.362762 -0.102768
C47   C     C_R   0.182049 0.247626 0.868529 -0.114976
C48   C     C_R   0.409909 0.569922 0.343134 -0.100331
C49   C     C_R   0.634613 0.758605 0.743566 0.131287
C50   C     C_R   0.824331 0.075627 0.414135 0.066786
C51   C     C_R   0.138736 0.260367 0.744692 0.150689
C52   C     C_R   0.322138 0.577256 0.400467 0.055521
C53   C     C_R   0.690102 0.757874 0.624189 0.069860
C54   C     C_R   0.789232 0.158275 0.452632 0.051696
C55   C     C_R   0.192921 0.259622 0.624242 0.074589
C56   C     C_R   0.288318 0.658945 0.446063 0.054083
C57   C     C_R   0.281012 0.223485 0.628493 0.096351
C58   C     C_R   0.349096 0.729430 0.439874 0.087391
C59   C     C_R   0.777742 0.720621 0.629701 0.070020
C60   C     C_R   0.850032 0.228664 0.445400 0.086026
C61   C     C_R   0.320170 0.194450 0.505270 -0.122773
C62   C     C_R   0.321316 0.808087 0.498017 -0.086913
C63   C     C_R   0.818703 0.693371 0.506422 -0.119588
C64   C     C_R   0.820823 0.308524 0.497317 -0.096788
H1    H     H_    0.314376 0.201502 0.286862 0.171658
H2    H     H_    0.216974 0.880038 0.604981 0.162772
H3    H     H_    0.816147 0.703538 0.288373 0.167186
H4    H     H_    0.712915 0.383555 0.589571 0.172584
H5    H     H_    0.333543 0.001593 0.745425 0.236699
H6    H     H_    0.831617 0.497476 0.746601 0.221865
H7    H     H_    0.644010 0.991858 0.874785 0.148472
H8    H     H_    0.143788 0.511114 0.875001 0.147270
H9    H     H_    0.398321 0.204700 0.763446 0.169248
H10   H     H_    0.485205 0.771488 0.371597 0.159919
H11   H     H_    0.892827 0.699419 0.768288 0.179732
H12   H     H_    0.986692 0.269950 0.379126 0.156208
H13   H     H_    0.310119 0.224439 0.969938 0.142065
H14   H     H_    0.534601 0.634065 0.287071 0.143712
H15   H     H_    0.801857 0.715433 0.972007 0.148911
H16   H     H_    0.039292 0.130283 0.308152 0.143172
H17   H     H_    0.635107 0.744793 0.959340 0.139978
H18   H     H_    0.939533 0.004549 0.333316 0.142579
H19   H     H_    0.142382 0.249850 0.960981 0.130308
H20   H     H_    0.434868 0.508113 0.308788 0.144922
H21   H     H_    0.689531 0.801127 0.285054 0.168666
H22   H     H_    0.603262 0.266757 0.590783 0.146177
H23   H     H_    0.187905 0.299627 0.284349 0.169133
H24   H     H_    0.107226 0.763468 0.604154 0.146856
H25   H     H_    0.644077 0.991740 0.124262 0.135081
H26   H     H_    0.143814 0.511841 0.124362 0.135496
H27   H     H_    0.178460 0.028965 0.097544 0.145225
H28   H     H_    0.680958 0.449143 0.094306 0.161770
N1    N     N_R   0.498810 1.000000 0.142780 -0.102920
N2    N     N_R   0.998810 0.500000 0.142780 -0.102730
N3    N     N_R   0.498740 0.000000 0.857170 -0.116721
N4    N     N_R   0.998740 0.500000 0.857170 -0.114773
O1    O     O_R   0.408390 0.908380 0.614690 -0.650399
O2    O     O_R   0.408390 0.091620 0.614690 -0.645152
O3    O     O_R   0.908390 0.408380 0.614690 -0.637566
O4    O     O_R   0.908390 0.591620 0.614690 -0.652783
O5    O     O_R   0.408370 0.908380 0.385360 -0.600338
O6    O     O_R   0.408370 0.091620 0.385360 -0.596484
O7    O     O_R   0.908370 0.408380 0.385360 -0.600390
O8    O     O_R   0.908370 0.591620 0.385360 -0.590611
O9    O     O_R   0.591620 0.091610 0.614640 -0.609148
O10   O     O_R   0.591620 0.908390 0.614640 -0.626367
O11   O     O_R   0.091620 0.591610 0.614640 -0.613624
O12   O     O_R   0.091620 0.408390 0.614640 -0.627849
O13   O     O_R   0.591610 0.091610 0.385310 -0.616338
O14   O     O_R   0.591610 0.908390 0.385310 -0.643327
O15   O     O_R   0.091610 0.591610 0.385310 -0.618746
O16   O     O_R   0.091610 0.408390 0.385310 -0.639534
Zn1   Zn    Zn3+2 0.500010 1.000000 0.653130 0.917635
Zn2   Zn    Zn3+2 0.000010 0.500000 0.653130 0.913647
Zn3   Zn    Zn3+2 0.499980 0.000000 0.346870 0.941660
Zn4   Zn    Zn3+2 0.999980 0.500000 0.346870 0.941534
O17   O     O_3   0.174494 0.026535 0.820464 -0.651208
C65   C     C_3   0.087465 0.001878 0.872448 0.108691
H29   H     H_    0.035637 0.017679 0.794358 0.179265
H30   H     H_    0.066723 0.040625 0.961582 0.126977
C66   C     C_3   0.081631 0.904994 0.897308 -0.392131
H31   H     H_    0.102506 0.869896 0.804489 0.228285
H32   H     H_    0.129122 0.886448 0.979467 0.222206
C67   C     C_3   0.983854 0.878103 0.935769 -0.950835
H33   H     H_    0.961562 0.912071 0.028981 0.262385
H34   H     H_    0.982078 0.808108 0.954117 0.265200
H35   H     H_    0.934999 0.892762 0.853186 0.269690
O18   O     O_3   0.676973 0.442148 0.834203 -0.646796
C68   C     C_3   0.625912 0.515633 0.800670 0.059027
H36   H     H_    0.665587 0.555627 0.728518 0.150364
H37   H     H_    0.608761 0.554436 0.892175 0.148749
C69   C     C_3   0.535918 0.486697 0.734389 -0.338417
H38   H     H_    0.551703 0.448502 0.642273 0.216242
H39   H     H_    0.496989 0.445335 0.805123 0.229512
C70   C     C_3   0.475680 0.562506 0.696344 -0.918916
H40   H     H_    0.459636 0.602229 0.786601 0.273903
H41   H     H_    0.409829 0.538747 0.653237 0.268068
H42   H     H_    0.511409 0.602067 0.620030 0.277148
N5    N     N_3   0.535694 0.763770 0.740796 -0.468421
H43   H     H_    0.515018 0.820301 0.788986 0.233757
H44   H     H_    0.510712 0.762596 0.642509 0.186109
N6    N     N_3   0.774216 0.998023 0.429439 -0.472465
H45   H     H_    0.748235 0.994607 0.527293 0.189467
H46   H     H_    0.722839 0.996978 0.356706 0.221809
N7    N     N_3   0.039617 0.261918 0.743537 -0.451799
H47   H     H_    0.017127 0.318409 0.790107 0.226886
H48   H     H_    0.014092 0.259051 0.645597 0.188407
N8    N     N_3   0.273242 0.499039 0.416590 -0.474676
H49   H     H_    0.249380 0.494461 0.515450 0.182944
H50   H     H_    0.220528 0.497764 0.345994 0.225356
N9    N     N_3   0.300704 0.996574 0.265275 -0.347953
H51   H     H_    0.258707 0.046755 0.299465 0.173376
H52   H     H_    0.260321 0.941086 0.271266 0.177937
N10   N     N_3   0.800169 0.501583 0.264152 -0.353700
H53   H     H_    0.757055 0.555256 0.263929 0.159023
H54   H     H_    0.759966 0.451535 0.302122 0.175379

loop_
_geom_bond_atom_site_label_1
_geom_bond_atom_site_label_2
_ccdc_geom_bond_type
C58   C62   A    
C70   H42   S    
C29   N1    A    
C40   C60   A    
C31   O13   A    
C34   O16   A    
C23   H5    S    
C13   C32   S    
C33   O11   A    
C14   C31   S    
C30   H26   S    
C1    C62   S    
O3    Zn2   S    
C29   H25   S    
N7    H47   S    
C53   C59   A    
C24   H6    S    
C70   H40   S    
C54   C60   A    
C3    C64   S    
C20   H28   S    
C4    C63   S    
C50   C54   A    
C32   O14   A    
O9    Zn1   S    
C19   C21   A    
C24   C26   A    
C5    C11   A    
C41   H13   S    
C2    O6    A    
C43   H15   S    
C18   C20   A    
C28   N2    A    
N1    Zn3   S    
O12   Zn2   S    
C9    C13   A    
C65   H29   S    
C66   C67   S    
C21   O17   S    
O6    Zn3   S    
C9    H21   S    
C46   H18   S    
C11   C15   A    
C49   N5    S    
C36   H8    S    
C12   C16   A    
C11   H23   S    
C69   H38   S    
N9    H51   S    
O15   Zn4   S    
C33   O15   A    
C47   H19   S    
C15   C34   S    
N10   H54   S    
C18   N10   S    
C2    C61   S    
C68   C69   S    
N9    H52   S    
C35   H7    S    
C52   N8    S    
O8    Zn4   S    
O18   C68   S    
C31   O9    A    
N4    Zn2   S    
C17   N9    S    
N7    H48   S    
C44   C46   A    
C46   C50   A    
C13   C53   A    
C26   N4    A    
C12   H24   S    
O10   Zn1   S    
C5    C61   A    
C17   C27   A    
C44   H16   S    
C18   C28   A    
N8    H49   S    
C5    H1    S    
C10   C14   A    
C1    O1    A    
N2    Zn4   S    
O2    Zn1   S    
C39   C43   A    
C48   H20   S    
C65   C66   S    
C15   C55   A    
C42   C48   A    
C16   C56   A    
O11   Zn2   S    
C3    O3    A    
C16   C33   S    
C36   N4    A    
C22   O18   S    
C6    H2    S    
C39   C59   A    
C45   C49   A    
C41   C47   A    
O4    Zn2   S    
C38   C58   A    
C57   C61   A    
C43   C45   A    
C7    C63   A    
C66   H31   S    
C8    C64   A    
C67   H35   S    
C69   H39   S    
C14   C54   A    
C20   C22   A    
C25   N3    A    
C39   H11   S    
C21   C23   A    
O5    Zn3   S    
C22   C24   A    
C27   N1    A    
O1    Zn1   S    
C1    O5    A    
O16   Zn4   S    
N6    H46   S    
C67   H34   S    
C68   H36   S    
C38   H10   S    
C3    O7    A    
C70   H41   S    
C37   H9    S    
C10   H22   S    
C59   C63   A    
C45   H17   S    
N8    H50   S    
C47   C51   A    
N5    H43   S    
C42   H14   S    
C35   N3    A    
C25   C27   A    
C29   C35   A    
C26   C28   A    
C4    O4    A    
C30   C36   A    
C60   C64   A    
C34   O12   A    
C6    C62   A    
C8    H4    S    
C55   C57   A    
O7    Zn4   S    
C30   N2    A    
O17   C65   S    
C6    C12   A    
N5    H44   S    
C52   C56   A    
N3    Zn1   S    
C69   C70   S    
C49   C53   A    
C4    O8    A    
C17   C19   A    
C56   C58   A    
C51   C55   A    
C23   C25   A    
C37   C41   A    
C65   H30   S    
C66   H32   S    
C19   H27   S    
O13   Zn3   S    
C7    H3    S    
C38   C42   A    
C7    C9    A    
N10   H53   S    
C48   C52   A    
C2    O2    A    
C8    C10   A    
C40   H12   S    
C40   C44   A    
C51   N7    S    
N6    H45   S    
C32   O10   A    
O14   Zn3   S    
C37   C57   A    
C50   N6    S    
C67   H33   S    
C68   H37   S    
