data_mof_unit_44128.cif
_audit_creation_date              2012-12-11T14:10:22-0500
_audit_creation_method            fapswitch 2.2
_symmetry_space_group_name_H-M    P1
_symmetry_Int_Tables_number       1
_space_group_crystal_system       triclinic
_cell_length_a                    27.618937
_cell_length_b                    27.618946
_cell_length_c                    27.61907
_cell_angle_alpha                 89.936515
_cell_angle_beta                  89.9367
_cell_angle_gamma                 89.937628
_cell_volume                      21067.9521201

loop_
_atom_site_label
_atom_site_type_symbol
_atom_type_description
_atom_site_fract_x
_atom_site_fract_y
_atom_site_fract_z
_atom_type_partial_charge
C1    C     C_R   0.777573 0.275622 0.282677 0.087474
C2    C     C_R   0.213930 0.276895 0.271355 0.106536
C3    C     C_R   0.326868 0.291308 0.851868 0.265788
C4    C     C_R   0.663988 0.140936 0.277476 0.268004
C5    C     C_R   0.336143 0.858936 0.722529 0.267854
C6    C     C_R   0.657521 0.277052 0.853985 0.263634
C7    C     C_R   0.342472 0.722948 0.146010 0.263633
C8    C     C_R   0.312361 0.362198 0.800141 0.261333
C9    C     C_R   0.687659 0.637802 0.199844 0.261335
C10   C     C_R   0.801462 0.363337 0.690632 0.257107
C11   C     C_R   0.198549 0.636669 0.309383 0.257112
C12   C     C_R   0.708792 0.327695 0.150031 0.263249
C13   C     C_R   0.717361 0.222398 0.724389 0.087434
C14   C     C_R   0.291266 0.672477 0.850122 0.263130
C15   C     C_R   0.188409 0.358974 0.302092 0.255781
C16   C     C_R   0.811594 0.641026 0.697911 0.255784
C17   C     C_R   0.712554 0.675139 0.859274 0.263120
C18   C     C_R   0.287448 0.324861 0.140727 0.263111
C19   C     C_R   0.148132 0.673123 0.708700 0.265810
C20   C     C_R   0.851870 0.326856 0.291326 0.265720
C21   C     C_R   0.277474 0.663796 0.141129 0.267812
C22   C     C_R   0.722525 0.336196 0.858879 0.267820
C23   C     C_R   0.853974 0.657493 0.277044 0.263647
C24   C     C_R   0.282638 0.777603 0.275609 0.087428
C25   C     C_R   0.146044 0.342533 0.722959 0.263612
C26   C     C_R   0.830843 0.341558 0.389643 -0.221458
C27   C     C_R   0.169101 0.658511 0.610358 -0.221469
C28   C     C_R   0.660812 0.831990 0.390579 -0.207869
C29   C     C_R   0.339109 0.167944 0.609410 -0.207859
C30   C     C_R   0.120941 0.680765 0.358490 -0.207453
C31   C     C_R   0.879052 0.319234 0.641504 -0.207459
C32   C     C_R   0.333306 0.159977 0.386764 -0.204349
C33   C     C_R   0.666703 0.840032 0.613236 -0.204348
C34   C     C_R   0.885909 0.683721 0.642852 -0.210100
C35   C     C_R   0.206306 0.273329 0.728360 0.089831
C36   C     C_R   0.114092 0.316280 0.357149 -0.210103
C37   C     C_R   0.680789 0.119845 0.641673 -0.224226
C38   C     C_R   0.319211 0.880155 0.358328 -0.224220
C39   C     C_R   0.117848 0.309164 0.631609 -0.219632
C40   C     C_R   0.882119 0.690834 0.368420 -0.219605
C41   C     C_R   0.309744 0.877396 0.626612 -0.210554
C42   C     C_R   0.690244 0.122685 0.373471 -0.210585
C43   C     C_R   0.389638 0.830921 0.341467 -0.221468
C44   C     C_R   0.610362 0.169081 0.658530 -0.221468
C45   C     C_R   0.390578 0.660820 0.831995 -0.207874
C46   C     C_R   0.793689 0.726680 0.271649 0.089855
C47   C     C_R   0.609360 0.338901 0.167787 -0.207924
C48   C     C_R   0.358618 0.121060 0.680804 -0.207473
C49   C     C_R   0.641431 0.878984 0.319213 -0.207499
C50   C     C_R   0.386762 0.333295 0.159967 -0.204341
C51   C     C_R   0.613238 0.666705 0.840032 -0.204348
C52   C     C_R   0.642854 0.885908 0.683720 -0.210101
C53   C     C_R   0.357144 0.114091 0.316283 -0.210102
C54   C     C_R   0.641679 0.680778 0.119851 -0.224227
C55   C     C_R   0.358312 0.319227 0.880155 -0.224231
C56   C     C_R   0.631688 0.117761 0.309156 -0.219757
C57   C     C_R   0.271646 0.793691 0.726683 0.089851
C58   C     C_R   0.368418 0.882120 0.690835 -0.219592
C59   C     C_R   0.626637 0.309745 0.877417 -0.210520
C60   C     C_R   0.373358 0.690256 0.122578 -0.210526
C61   C     C_R   0.341512 0.389643 0.830883 -0.221463
C62   C     C_R   0.658509 0.610356 0.169103 -0.221471
C63   C     C_R   0.831921 0.390542 0.660715 -0.207860
C64   C     C_R   0.168088 0.609462 0.339298 -0.207877
C65   C     C_R   0.680851 0.358744 0.121168 -0.207498
C66   C     C_R   0.319210 0.641428 0.878983 -0.207491
C67   C     C_R   0.159971 0.386763 0.333300 -0.204345
C68   C     C_R   0.728384 0.206287 0.273351 0.089683
C69   C     C_R   0.840031 0.613237 0.666702 -0.204348
C70   C     C_R   0.683722 0.642854 0.885908 -0.210102
C71   C     C_R   0.316279 0.357146 0.114094 -0.210101
C72   C     C_R   0.119848 0.641678 0.680779 -0.224225
C73   C     C_R   0.880161 0.358297 0.319244 -0.224243
C74   C     C_R   0.309173 0.631533 0.117938 -0.219538
C75   C     C_R   0.690826 0.368460 0.882070 -0.219534
C76   C     C_R   0.877396 0.626612 0.309746 -0.210556
C77   C     C_R   0.122625 0.373411 0.690251 -0.210552
C78   C     C_R   0.869933 0.365315 0.368257 0.039457
C79   C     C_R   0.283271 0.724790 0.776354 0.107558
C80   C     C_R   0.130046 0.634704 0.631753 0.039467
C81   C     C_R   0.635556 0.869925 0.368611 0.033253
C82   C     C_R   0.364431 0.130064 0.631391 0.033254
C83   C     C_R   0.130074 0.631395 0.364454 0.033189
C84   C     C_R   0.869927 0.368606 0.635549 0.033187
C85   C     C_R   0.361708 0.124064 0.365583 0.034742
C86   C     C_R   0.638295 0.875939 0.634418 0.034741
C87   C     C_R   0.875940 0.634418 0.638294 0.034740
C88   C     C_R   0.124061 0.365582 0.361707 0.034740
C89   C     C_R   0.631759 0.130036 0.634710 0.039467
C90   C     C_R   0.716705 0.275181 0.223678 0.107491
C91   C     C_R   0.368241 0.869965 0.365289 0.039467
C92   C     C_R   0.111045 0.358066 0.643339 0.043585
C93   C     C_R   0.888951 0.641941 0.356669 0.043592
C94   C     C_R   0.356668 0.888951 0.641941 0.043597
C95   C     C_R   0.643362 0.111040 0.358083 0.043629
C96   C     C_R   0.368610 0.635558 0.869928 0.033249
C97   C     C_R   0.631391 0.364399 0.130043 0.033358
C98   C     C_R   0.365581 0.361704 0.124061 0.034736
C99   C     C_R   0.634419 0.638296 0.875939 0.034741
C100  C     C_R   0.634703 0.631752 0.130049 0.039468
C101  C     C_R   0.276895 0.271350 0.213931 0.106535
C102  C     C_R   0.365302 0.368250 0.869948 0.039463
C103  C     C_R   0.641946 0.356682 0.888942 0.043582
C104  C     C_R   0.358052 0.643316 0.111059 0.043577
C105  C     C_R   0.811069 0.303933 0.312631 0.060276
C106  C     C_R   0.188904 0.696090 0.687386 0.060220
C107  C     C_R   0.697122 0.810726 0.313256 0.040892
C108  C     C_R   0.302865 0.189269 0.686745 0.040917
C109  C     C_R   0.189270 0.686760 0.302897 0.041033
C110  C     C_R   0.810729 0.313243 0.697105 0.041047
C111  C     C_R   0.297869 0.179351 0.308318 0.033645
C112  C     C_R   0.222410 0.724386 0.717348 0.087440
C113  C     C_R   0.723106 0.728650 0.786070 0.106536
C114  C     C_R   0.702134 0.820652 0.691684 0.033647
C115  C     C_R   0.820651 0.691686 0.702130 0.033647
C116  C     C_R   0.179350 0.308314 0.297871 0.033654
C117  C     C_R   0.687396 0.188889 0.696099 0.060204
C118  C     C_R   0.312604 0.811112 0.303899 0.060204
C119  C     C_R   0.161624 0.295993 0.707244 0.040055
C120  C     C_R   0.838369 0.704021 0.292773 0.039993
C121  C     C_R   0.292770 0.838372 0.704023 0.039997
C122  C     C_R   0.707297 0.161595 0.296023 0.040128
C123  C     C_R   0.313253 0.697124 0.810728 0.040887
C124  C     C_R   0.724385 0.717346 0.222414 0.087440
C125  C     C_R   0.686739 0.302823 0.189257 0.040700
C126  C     C_R   0.308313 0.297866 0.179350 0.033670
C127  C     C_R   0.691687 0.702134 0.820650 0.033647
C128  C     C_R   0.696090 0.687384 0.188907 0.060220
C129  C     C_R   0.303916 0.312620 0.811088 0.060241
C130  C     C_R   0.704033 0.292800 0.838349 0.039976
C131  C     C_R   0.295963 0.707196 0.161652 0.039956
C132  C     C_R   0.395499 0.097098 0.396298 0.080777
C133  C     C_R   0.604503 0.902904 0.603703 0.080779
C134  C     C_R   0.899663 0.397376 0.398039 0.080147
C135  C     C_R   0.275617 0.282661 0.777584 0.087453
C136  C     C_R   0.100325 0.602634 0.601968 0.080162
C137  C     C_R   0.603111 0.899701 0.398167 0.082028
C138  C     C_R   0.396883 0.100292 0.601835 0.082052
C139  C     C_R   0.100299 0.601835 0.396893 0.081986
C140  C     C_R   0.899702 0.398165 0.603109 0.081990
C141  C     C_R   0.392491 0.908987 0.607130 0.081351
C142  C     C_R   0.607519 0.091009 0.392877 0.081353
C143  C     C_R   0.902904 0.603703 0.604503 0.080777
C144  C     C_R   0.097096 0.396297 0.395498 0.080776
C145  C     C_R   0.601972 0.100318 0.602637 0.080166
C146  C     C_R   0.726692 0.271657 0.793677 0.089919
C147  C     C_R   0.398028 0.899682 0.397363 0.080167
C148  C     C_R   0.091010 0.392872 0.607511 0.081353
C149  C     C_R   0.908988 0.607130 0.392492 0.081350
C150  C     C_R   0.396297 0.395497 0.097097 0.080779
C151  C     C_R   0.603704 0.604504 0.902904 0.080780
C152  C     C_R   0.398167 0.603112 0.899703 0.082031
C153  C     C_R   0.601838 0.396868 0.100281 0.082124
C154  C     C_R   0.607131 0.392497 0.908983 0.081354
C155  C     C_R   0.392868 0.607502 0.091017 0.081349
C156  C     C_R   0.602633 0.601967 0.100326 0.080161
C157  C     C_R   0.273305 0.728343 0.206323 0.089935
C158  C     C_R   0.397369 0.398034 0.899672 0.080159
C159  C     C_3   0.754858 0.294248 0.387117 -1.000709
C160  C     C_3   0.245060 0.705864 0.612869 -1.000629
C161  C     C_3   0.712742 0.757916 0.387960 -0.981360
C162  C     C_3   0.287104 0.241962 0.611993 -0.981425
C163  C     C_3   0.137921 0.761619 0.320969 -0.998047
C164  C     C_3   0.862061 0.238376 0.679010 -0.998098
C165  C     C_3   0.276419 0.229600 0.384355 -0.980057
C166  C     C_3   0.723596 0.770414 0.615644 -0.980070
C167  C     C_3   0.872943 0.765171 0.680269 -0.992829
C168  C     C_R   0.440840 0.079102 0.385040 -0.124902
C169  C     C_3   0.127059 0.234829 0.319732 -0.992836
C170  C     C_3   0.760638 0.133147 0.681141 -1.010482
C171  C     C_3   0.239362 0.866853 0.318860 -1.010502
C172  C     C_3   0.140998 0.224324 0.651511 -0.999291
C173  C     C_3   0.858922 0.775672 0.348558 -0.999006
C174  C     C_3   0.226024 0.846861 0.639426 -0.987371
C175  C     C_3   0.773954 0.153272 0.360737 -0.987370
C176  C     C_3   0.387129 0.754970 0.294103 -1.000632
C177  C     C_3   0.612872 0.245033 0.705891 -1.000639
C178  C     C_3   0.387960 0.712753 0.757923 -0.981361
C179  C     C_R   0.559162 0.920899 0.614960 -0.124904
C180  C     C_3   0.611839 0.286693 0.241669 -0.981063
C181  C     C_3   0.321278 0.138166 0.761708 -0.998064
C182  C     C_3   0.678856 0.861938 0.238328 -0.997981
C183  C     C_3   0.384353 0.276399 0.229581 -0.980156
C184  C     C_3   0.615646 0.723598 0.770414 -0.980071
C185  C     C_3   0.680275 0.872942 0.765169 -0.992829
C186  C     C_3   0.319718 0.127053 0.234836 -0.992831
C187  C     C_3   0.681162 0.760621 0.133147 -1.010496
C188  C     C_3   0.318815 0.239391 0.866865 -1.010501
C189  C     C_3   0.651703 0.140770 0.224302 -0.999042
C190  C     C_R   0.919151 0.441833 0.385943 -0.126344
C191  C     C_3   0.348554 0.858928 0.775673 -0.999023
C192  C     C_3   0.639475 0.226024 0.846893 -0.987348
C193  C     C_3   0.360515 0.773977 0.153098 -0.987324
C194  C     C_3   0.294173 0.387129 0.754916 -1.000674
C195  C     C_3   0.705860 0.612865 0.245062 -1.000641
C196  C     C_3   0.757770 0.387864 0.712531 -0.981568
C197  C     C_3   0.242261 0.612152 0.287507 -0.981508
C198  C     C_3   0.761809 0.321589 0.138401 -0.997973
C199  C     C_3   0.238323 0.678843 0.861933 -0.997960
C200  C     C_3   0.229592 0.384353 0.276411 -0.980064
C201  C     C_R   0.080843 0.558172 0.614061 -0.126336
C202  C     C_3   0.770412 0.615646 0.723594 -0.980060
C203  C     C_3   0.765173 0.680273 0.872939 -0.992829
C204  C     C_3   0.234830 0.319727 0.127062 -0.992848
C205  C     C_3   0.133143 0.681160 0.760622 -1.010483
C206  C     C_3   0.866888 0.318771 0.239420 -1.010480
C207  C     C_3   0.224343 0.651331 0.141211 -0.999132
C208  C     C_3   0.775657 0.348653 0.858810 -0.999128
C209  C     C_3   0.846858 0.639424 0.226027 -0.987387
C210  C     C_3   0.153181 0.360622 0.773965 -0.987389
C211  C     C_R   0.558747 0.919401 0.385867 -0.131277
C212  C     C_R   0.724789 0.776352 0.283274 0.107557
C213  C     C_R   0.441250 0.080596 0.614133 -0.131261
C214  C     C_R   0.081515 0.557074 0.386172 -0.135444
C215  C     C_R   0.918486 0.442926 0.613828 -0.135443
C216  C     C_R   0.439496 0.924026 0.616241 -0.125131
C217  C     C_R   0.560513 0.075972 0.383758 -0.125145
C218  C     C_R   0.920566 0.558302 0.614744 -0.141045
C219  C     C_R   0.079434 0.441698 0.385256 -0.141047
C220  C     C_R   0.557191 0.081512 0.613711 -0.136156
C221  C     C_R   0.442808 0.918489 0.386289 -0.136158
C222  C     C_R   0.075784 0.439814 0.616259 -0.123539
C223  C     C_R   0.275204 0.223656 0.716722 0.107526
C224  C     C_R   0.924215 0.560188 0.383741 -0.123541
C225  C     C_R   0.385039 0.440837 0.079101 -0.124901
C226  C     C_R   0.614961 0.559163 0.920899 -0.124908
C227  C     C_R   0.385937 0.919161 0.441826 -0.126331
C228  C     C_R   0.614063 0.080839 0.558174 -0.126334
C229  C     C_R   0.385867 0.558748 0.919403 -0.131272
C230  C     C_R   0.614134 0.441243 0.080593 -0.131246
C231  C     C_R   0.386168 0.081506 0.557074 -0.135446
C232  C     C_R   0.613829 0.918488 0.442927 -0.135439
C233  C     C_R   0.616241 0.439501 0.924024 -0.125119
C234  C     C_R   0.223625 0.716750 0.275221 0.107575
C235  C     C_R   0.383759 0.560498 0.075976 -0.125125
C236  C     C_R   0.614744 0.920566 0.558302 -0.141038
C237  C     C_R   0.385257 0.079435 0.441699 -0.141031
C238  C     C_R   0.613708 0.557188 0.081517 -0.136148
C239  C     C_R   0.386292 0.442811 0.918482 -0.136154
C240  C     C_R   0.616261 0.075783 0.439819 -0.123549
C241  C     C_R   0.383741 0.924213 0.560187 -0.123531
C242  C     C_R   0.079101 0.385040 0.440839 -0.124903
C243  C     C_R   0.920900 0.614960 0.559161 -0.124903
C244  C     C_R   0.441829 0.385940 0.919155 -0.126338
C245  C     C_R   0.776371 0.283254 0.724780 0.107556
C246  C     C_R   0.558172 0.614060 0.080844 -0.126329
C247  C     C_R   0.919404 0.385865 0.558747 -0.131287
C248  C     C_R   0.080597 0.614135 0.441254 -0.131281
C249  C     C_R   0.557075 0.386161 0.081494 -0.135448
C250  C     C_R   0.442927 0.613830 0.918489 -0.135447
C251  C     C_R   0.924026 0.616241 0.439497 -0.125142
C252  C     C_R   0.075972 0.383758 0.560506 -0.125145
C253  C     C_R   0.558302 0.614745 0.920566 -0.141037
C254  C     C_R   0.441698 0.385256 0.079435 -0.141014
C255  C     C_R   0.081516 0.613709 0.557189 -0.136156
C256  C     C_R   0.271351 0.213929 0.276899 0.106539
C257  C     C_R   0.918476 0.386295 0.442814 -0.136151
C258  C     C_R   0.439811 0.616257 0.075789 -0.123525
C259  C     C_R   0.560189 0.383742 0.924211 -0.123526
C260  C     C_R   0.800102 0.312408 0.362198 0.261336
C261  C     C_R   0.199842 0.687661 0.637804 0.261333
C262  C     C_R   0.690736 0.801530 0.363381 0.257133
C263  C     C_R   0.309182 0.198405 0.636603 0.257154
C264  C     C_R   0.149804 0.708712 0.327443 0.263048
C265  C     C_R   0.850188 0.291287 0.672550 0.263063
C266  C     C_R   0.302096 0.188413 0.358976 0.255784
C267  C     C_R   0.728650 0.786072 0.723102 0.106537
C268  C     C_R   0.697913 0.811595 0.641024 0.255787
C269  C     C_R   0.859276 0.712553 0.675136 0.263120
C270  C     C_R   0.140725 0.287448 0.324865 0.263117
C271  C     C_R   0.708711 0.148126 0.673119 0.265841
C272  C     C_R   0.291289 0.851874 0.326881 0.265850
C273  C     C_R   0.141033 0.277475 0.663889 0.267946
C274  C     C_R   0.858933 0.722528 0.336146 0.267848
C275  C     C_R   0.277041 0.853975 0.657494 0.263640
C276  C     C_R   0.722971 0.146085 0.342601 0.263591
C277  C     C_R   0.362190 0.800181 0.312316 0.261328
C278  C     C_R   0.786072 0.723105 0.728647 0.106536
C279  C     C_R   0.637810 0.199821 0.687680 0.261327
C280  C     C_R   0.363380 0.690743 0.801536 0.257141
C281  C     C_R   0.636541 0.308966 0.198251 0.257217
C282  C     C_R   0.327571 0.149923 0.708747 0.263144
C283  C     C_R   0.672481 0.850122 0.291270 0.263141
C284  C     C_R   0.358973 0.302085 0.188404 0.255799
C285  C     C_R   0.641026 0.697914 0.811594 0.255787
C286  C     C_R   0.675139 0.859276 0.712551 0.263120
C287  C     C_R   0.324859 0.140723 0.287452 0.263122
C288  C     C_R   0.673124 0.708699 0.148135 0.265817
H1    H     H_    0.458226 0.079886 0.349981 0.091927
H2    H     H_    0.543036 0.074507 0.348850 0.085315
H3    H     H_    0.271594 0.722786 0.637540 0.258977
H4    H     H_    0.264047 0.674993 0.595404 0.253044
H5    H     H_    0.234983 0.732315 0.584322 0.248300
H6    H     H_    0.702515 0.724412 0.368285 0.254496
H7    H     H_    0.752643 0.761265 0.388838 0.254573
H8    H     H_    0.700062 0.754109 0.425958 0.243933
H9    H     H_    0.297315 0.275502 0.631611 0.254513
H10   H     H_    0.299737 0.245734 0.573977 0.243922
H11   H     H_    0.247208 0.238568 0.611163 0.254630
H12   H     H_    0.166537 0.784174 0.337693 0.260475
H13   H     H_    0.920606 0.541177 0.649905 0.094920
H14   H     H_    0.135035 0.770372 0.281829 0.252577
H15   H     H_    0.102963 0.771278 0.338408 0.247684
H16   H     H_    0.833453 0.215832 0.662258 0.260484
H17   H     H_    0.897028 0.228720 0.661592 0.247692
H18   H     H_    0.864921 0.229605 0.718147 0.252582
H19   H     H_    0.285287 0.264537 0.366505 0.254058
H20   H     H_    0.236733 0.223416 0.384088 0.253617
H21   H     H_    0.287443 0.232868 0.422885 0.242378
H22   H     H_    0.714728 0.735474 0.633486 0.254058
H23   H     H_    0.712578 0.767151 0.577112 0.242382
H24   H     H_    0.079395 0.458823 0.350096 0.094921
H25   H     H_    0.763281 0.776601 0.615917 0.253619
H26   H     H_    0.845741 0.788489 0.662115 0.253837
H27   H     H_    0.875425 0.774951 0.719174 0.253191
H28   H     H_    0.908674 0.772850 0.663439 0.245979
H29   H     H_    0.124577 0.225049 0.280827 0.253191
H30   H     H_    0.154261 0.211512 0.337887 0.253841
H31   H     H_    0.091328 0.227151 0.336562 0.245979
H32   H     H_    0.781355 0.137665 0.646967 0.251806
H33   H     H_    0.778780 0.154105 0.710083 0.257693
H34   H     H_    0.761940 0.094450 0.692048 0.253561
H35   H     H_    0.539548 0.082954 0.648584 0.096698
H36   H     H_    0.221220 0.845898 0.289914 0.257686
H37   H     H_    0.218644 0.862330 0.353032 0.251810
H38   H     H_    0.238058 0.905551 0.307958 0.253564
H39   H     H_    0.166309 0.217078 0.621209 0.250284
H40   H     H_    0.150295 0.201389 0.683156 0.257341
H41   H     H_    0.104073 0.213282 0.640112 0.247840
H42   H     H_    0.849711 0.798616 0.316890 0.257293
H43   H     H_    0.833514 0.782893 0.378791 0.250273
H44   H     H_    0.895815 0.786723 0.360075 0.247777
H45   H     H_    0.222808 0.811569 0.620672 0.261735
H46   H     H_    0.460451 0.917047 0.351415 0.096698
H47   H     H_    0.199756 0.849058 0.669814 0.255860
H48   H     H_    0.215903 0.875823 0.613366 0.243045
H49   H     H_    0.800271 0.151048 0.330393 0.255874
H50   H     H_    0.777111 0.188595 0.379442 0.261765
H51   H     H_    0.784059 0.124358 0.386857 0.243036
H52   H     H_    0.362453 0.728422 0.277211 0.258976
H53   H     H_    0.415649 0.765054 0.267627 0.248309
H54   H     H_    0.404627 0.735996 0.324963 0.253034
H55   H     H_    0.637548 0.271579 0.722789 0.258976
H56   H     H_    0.595380 0.264009 0.675029 0.253037
H57   H     H_    0.073527 0.457367 0.651070 0.084774
H58   H     H_    0.584347 0.234951 0.732363 0.248308
H59   H     H_    0.368288 0.702526 0.724418 0.254496
H60   H     H_    0.388836 0.752654 0.761272 0.254576
H61   H     H_    0.425959 0.700076 0.754117 0.243931
H62   H     H_    0.631324 0.296852 0.275310 0.254468
H63   H     H_    0.573776 0.299219 0.245362 0.243800
H64   H     H_    0.611110 0.246801 0.238142 0.254659
H65   H     H_    0.338105 0.166825 0.784134 0.260522
H66   H     H_    0.282169 0.135317 0.770613 0.252579
H67   H     H_    0.338729 0.103221 0.771388 0.247657
H68   H     H_    0.926469 0.542636 0.348930 0.084772
H69   H     H_    0.662067 0.833301 0.215841 0.260486
H70   H     H_    0.661418 0.896892 0.228658 0.247644
H71   H     H_    0.717982 0.864801 0.229490 0.252559
H72   H     H_    0.366514 0.285266 0.264522 0.254079
H73   H     H_    0.384075 0.236715 0.223395 0.253627
H74   H     H_    0.422885 0.287414 0.232840 0.242383
H75   H     H_    0.633488 0.714731 0.735474 0.254059
H76   H     H_    0.577113 0.712581 0.767152 0.242381
H77   H     H_    0.615920 0.763284 0.776600 0.253618
H78   H     H_    0.662121 0.845741 0.788488 0.253836
H79   H     H_    0.349980 0.458222 0.079882 0.091914
H80   H     H_    0.719181 0.875425 0.774947 0.253191
H81   H     H_    0.663446 0.908674 0.772847 0.245979
H82   H     H_    0.280811 0.124569 0.225061 0.253190
H83   H     H_    0.337869 0.154253 0.211513 0.253836
H84   H     H_    0.336547 0.091321 0.227158 0.245979
H85   H     H_    0.646984 0.781340 0.137628 0.251797
H86   H     H_    0.710085 0.778769 0.154127 0.257716
H87   H     H_    0.692103 0.761911 0.094460 0.253569
H88   H     H_    0.289909 0.221236 0.845868 0.257740
H89   H     H_    0.352995 0.218668 0.862418 0.251798
H90   H     H_    0.650020 0.541778 0.920118 0.091914
H91   H     H_    0.307844 0.238114 0.905544 0.253577
H92   H     H_    0.621190 0.165826 0.216987 0.250121
H93   H     H_    0.683307 0.150307 0.201401 0.257331
H94   H     H_    0.640626 0.103727 0.213277 0.247820
H95   H     H_    0.316889 0.849709 0.798617 0.257296
H96   H     H_    0.378793 0.833527 0.782896 0.250271
H97   H     H_    0.360062 0.895823 0.786723 0.247784
H98   H     H_    0.620728 0.222783 0.811600 0.261730
H99   H     H_    0.669876 0.199773 0.849107 0.255849
H100  H     H_    0.613413 0.215905 0.875857 0.243038
H101  H     H_    0.350979 0.917553 0.459333 0.093184
H102  H     H_    0.330110 0.800226 0.150894 0.255845
H103  H     H_    0.379273 0.777218 0.188387 0.261722
H104  H     H_    0.386567 0.784099 0.124126 0.243036
H105  H     H_    0.277232 0.362459 0.728393 0.258981
H106  H     H_    0.267742 0.415696 0.764984 0.248301
H107  H     H_    0.325056 0.404567 0.735922 0.253061
H108  H     H_    0.722782 0.637537 0.271595 0.258978
H109  H     H_    0.674988 0.595400 0.264048 0.253046
H110  H     H_    0.732310 0.584319 0.234984 0.248298
H111  H     H_    0.724325 0.368108 0.702285 0.254520
H112  H     H_    0.541776 0.920117 0.650020 0.091917
H113  H     H_    0.649021 0.082447 0.540668 0.093177
H114  H     H_    0.761050 0.388809 0.752434 0.254590
H115  H     H_    0.753911 0.425829 0.699782 0.243997
H116  H     H_    0.275697 0.631922 0.297763 0.254504
H117  H     H_    0.246128 0.574191 0.300269 0.243996
H118  H     H_    0.239002 0.611194 0.247601 0.254560
H119  H     H_    0.784108 0.338491 0.167120 0.260553
H120  H     H_    0.770861 0.282511 0.135553 0.252563
H121  H     H_    0.771515 0.339087 0.103487 0.247614
H122  H     H_    0.215841 0.662052 0.833293 0.260483
H123  H     H_    0.228652 0.661401 0.896884 0.247656
H124  H     H_    0.350598 0.541963 0.918329 0.090998
H125  H     H_    0.229478 0.717966 0.864796 0.252559
H126  H     H_    0.264531 0.366509 0.285279 0.254057
H127  H     H_    0.223408 0.384081 0.236725 0.253621
H128  H     H_    0.232857 0.422885 0.287430 0.242392
H129  H     H_    0.735472 0.633489 0.714726 0.254055
H130  H     H_    0.767148 0.577114 0.712576 0.242388
H131  H     H_    0.776597 0.615919 0.763279 0.253619
H132  H     H_    0.788490 0.662118 0.845737 0.253838
H133  H     H_    0.774953 0.719178 0.875421 0.253190
H134  H     H_    0.772851 0.663443 0.908671 0.245978
H135  H     H_    0.649401 0.458031 0.081670 0.090904
H136  H     H_    0.225049 0.280822 0.124582 0.253193
H137  H     H_    0.211512 0.337882 0.154264 0.253843
H138  H     H_    0.227151 0.336556 0.091331 0.245982
H139  H     H_    0.137624 0.646982 0.781341 0.251795
H140  H     H_    0.154123 0.710083 0.778770 0.257717
H141  H     H_    0.094456 0.692100 0.761911 0.253569
H142  H     H_    0.845853 0.289899 0.221253 0.257783
H143  H     H_    0.862515 0.352956 0.218690 0.251783
H144  H     H_    0.905551 0.307735 0.238173 0.253588
H145  H     H_    0.217162 0.621200 0.166743 0.250365
H146  H     H_    0.351331 0.082852 0.539452 0.095416
H147  H     H_    0.201378 0.683013 0.150307 0.257297
H148  H     H_    0.213283 0.639659 0.104378 0.247787
H149  H     H_    0.798621 0.316983 0.849671 0.257304
H150  H     H_    0.782840 0.378820 0.833319 0.250349
H151  H     H_    0.786717 0.360274 0.895661 0.247797
H152  H     H_    0.811565 0.620671 0.222813 0.261736
H153  H     H_    0.849057 0.669812 0.199760 0.255861
H154  H     H_    0.875819 0.613363 0.215907 0.243042
H155  H     H_    0.150968 0.330247 0.800247 0.255866
H156  H     H_    0.188485 0.379355 0.777164 0.261749
H157  H     H_    0.648666 0.917135 0.460550 0.095442
H158  H     H_    0.124237 0.386705 0.784080 0.243043
H159  H     H_    0.651144 0.456985 0.925499 0.085287
H160  H     H_    0.348856 0.543014 0.074501 0.085285
H161  H     H_    0.649905 0.920606 0.541177 0.094914
H162  H     H_    0.350096 0.079397 0.458824 0.094911
H163  H     H_    0.648581 0.539544 0.082963 0.096701
H164  H     H_    0.917539 0.459341 0.350985 0.093204
H165  H     H_    0.351419 0.460454 0.917036 0.096710
H166  H     H_    0.651070 0.073518 0.457373 0.084778
H167  H     H_    0.348930 0.926466 0.542634 0.084774
H168  H     H_    0.079883 0.349981 0.458225 0.091922
H169  H     H_    0.920117 0.650020 0.541776 0.091918
H170  H     H_    0.459336 0.350983 0.917546 0.093196
H171  H     H_    0.540665 0.649018 0.082453 0.093191
H172  H     H_    0.918333 0.350596 0.541964 0.091035
H173  H     H_    0.081669 0.649403 0.458037 0.091037
H174  H     H_    0.539452 0.351324 0.082828 0.095348
H175  H     H_    0.082451 0.540665 0.649018 0.093187
H176  H     H_    0.460550 0.648666 0.917137 0.095438
H177  H     H_    0.925499 0.651146 0.456979 0.085295
H178  H     H_    0.074501 0.348853 0.543025 0.085302
H179  H     H_    0.541178 0.649905 0.920606 0.094911
H180  H     H_    0.458823 0.350096 0.079397 0.094893
H181  H     H_    0.082960 0.648583 0.539546 0.096706
H182  H     H_    0.917026 0.351422 0.460458 0.096724
H183  H     H_    0.457363 0.651069 0.073541 0.084771
H184  H     H_    0.542636 0.348930 0.926461 0.084770
H185  H     H_    0.822771 0.347789 0.427585 0.146563
H186  H     H_    0.541962 0.918327 0.350600 0.090999
H187  H     H_    0.177152 0.652316 0.572405 0.146541
H188  H     H_    0.655617 0.825069 0.428888 0.134430
H189  H     H_    0.344254 0.174824 0.571088 0.134409
H190  H     H_    0.090991 0.697326 0.377726 0.131063
H191  H     H_    0.908995 0.302670 0.622261 0.131067
H192  H     H_    0.337108 0.167131 0.425175 0.133396
H193  H     H_    0.662904 0.832880 0.574824 0.133395
H194  H     H_    0.914760 0.699585 0.621476 0.130952
H195  H     H_    0.085241 0.300416 0.378524 0.130951
H196  H     H_    0.697046 0.089047 0.623538 0.139711
H197  H     H_    0.458036 0.081672 0.649400 0.090972
H198  H     H_    0.302953 0.910952 0.376463 0.139710
H199  H     H_    0.105220 0.295197 0.597295 0.133517
H200  H     H_    0.894721 0.704791 0.402749 0.133497
H201  H     H_    0.298354 0.885529 0.590057 0.130717
H202  H     H_    0.701583 0.114639 0.410061 0.130742
H203  H     H_    0.427593 0.822876 0.347652 0.146534
H204  H     H_    0.572408 0.177127 0.652344 0.146535
H205  H     H_    0.428889 0.655628 0.825077 0.134430
H206  H     H_    0.570998 0.343916 0.174567 0.134331
H207  H     H_    0.377977 0.091211 0.697407 0.131022
H208  H     H_    0.082872 0.539452 0.351336 0.095479
H209  H     H_    0.622123 0.908876 0.302623 0.131029
H210  H     H_    0.425174 0.337093 0.167117 0.133385
H211  H     H_    0.574825 0.662906 0.832881 0.133394
H212  H     H_    0.621478 0.914758 0.699584 0.130952
H213  H     H_    0.378516 0.085237 0.300419 0.130952
H214  H     H_    0.623556 0.697034 0.089045 0.139717
H215  H     H_    0.376423 0.302974 0.910969 0.139724
H216  H     H_    0.597410 0.105063 0.295160 0.133549
H217  H     H_    0.402747 0.894723 0.704791 0.133498
H218  H     H_    0.590094 0.298338 0.885581 0.130697
H219  H     H_    0.917130 0.460548 0.648665 0.095475
H220  H     H_    0.409898 0.701666 0.114408 0.130698
H221  H     H_    0.347719 0.427592 0.822825 0.146548
H222  H     H_    0.652312 0.572403 0.177154 0.146540
H223  H     H_    0.824949 0.428829 0.655452 0.134482
H224  H     H_    0.175068 0.571177 0.344568 0.134486
H225  H     H_    0.697498 0.378234 0.091422 0.130965
H226  H     H_    0.302619 0.622115 0.908873 0.131038
H227  H     H_    0.167123 0.425175 0.337098 0.133402
H228  H     H_    0.832879 0.574825 0.662904 0.133401
H229  H     H_    0.699586 0.621478 0.914758 0.130951
H230  H     H_    0.456979 0.925499 0.651146 0.085294
H231  H     H_    0.300416 0.378522 0.085245 0.130953
H232  H     H_    0.089042 0.623554 0.697035 0.139717
H233  H     H_    0.910994 0.376383 0.302997 0.139741
H234  H     H_    0.295233 0.597184 0.105374 0.133484
H235  H     H_    0.704769 0.402805 0.894640 0.133492
H236  H     H_    0.885530 0.590057 0.298355 0.130714
H237  H     H_    0.114515 0.409975 0.701627 0.130722
H238  H     H_    0.728363 0.277257 0.362451 0.258984
H239  H     H_    0.764907 0.267864 0.415736 0.248292
H240  H     H_    0.735842 0.325155 0.404488 0.253086
N1    N     N_R   0.765162 0.229979 0.295702 -0.099597
N2    N     N_R   0.704333 0.234860 0.770020 -0.099604
N3    N     N_R   0.296118 0.770162 0.762400 -0.100190
N4    N     N_R   0.703890 0.229797 0.237634 -0.100201
N5    N     N_R   0.298220 0.246927 0.753024 -0.100692
N6    N     N_R   0.701777 0.753082 0.246969 -0.100699
N7    N     N_R   0.293748 0.231441 0.236934 -0.103484
N8    N     N_R   0.706254 0.768559 0.763067 -0.103482
N9    N     N_R   0.229979 0.295686 0.765147 -0.099603
N10   N     N_R   0.770021 0.704321 0.234859 -0.099598
N11   N     N_R   0.762412 0.296119 0.770142 -0.100190
N12   N     N_R   0.234856 0.770023 0.704324 -0.099597
N13   N     N_R   0.237584 0.703883 0.229858 -0.100182
N14   N     N_R   0.752997 0.298214 0.246948 -0.100674
N15   N     N_R   0.246966 0.701778 0.753084 -0.100700
N16   N     N_R   0.236931 0.293748 0.231445 -0.103482
N17   N     N_R   0.763070 0.706253 0.768556 -0.103482
N18   N     N_R   0.456710 0.054070 0.423820 -0.041331
N19   N     N_R   0.543290 0.945930 0.576180 -0.041331
N20   N     N_R   0.945930 0.456710 0.423820 -0.041555
N21   N     N_R   0.054070 0.543290 0.576180 -0.041553
N22   N     N_R   0.543290 0.945930 0.423820 -0.040811
N23   N     N_R   0.770160 0.762397 0.296122 -0.100190
N24   N     N_R   0.456710 0.054070 0.576180 -0.040810
N25   N     N_R   0.054070 0.543290 0.423820 -0.040315
N26   N     N_R   0.945930 0.456710 0.576180 -0.040314
N27   N     N_R   0.456710 0.945930 0.576180 -0.041468
N28   N     N_R   0.543290 0.054070 0.423820 -0.041467
N29   N     N_R   0.945930 0.543290 0.576180 -0.040114
N30   N     N_R   0.054070 0.456710 0.423820 -0.040114
N31   N     N_R   0.543290 0.054070 0.576180 -0.041072
N32   N     N_R   0.456710 0.945930 0.423820 -0.041071
N33   N     N_R   0.054070 0.456710 0.576180 -0.041224
N34   N     N_R   0.229829 0.237611 0.703883 -0.100188
N35   N     N_R   0.945930 0.543290 0.423820 -0.041224
N36   N     N_R   0.423820 0.456710 0.054070 -0.041331
N37   N     N_R   0.576180 0.543290 0.945930 -0.041332
N38   N     N_R   0.423820 0.945930 0.456710 -0.041554
N39   N     N_R   0.576180 0.054070 0.543290 -0.041553
N40   N     N_R   0.423820 0.543290 0.945930 -0.040812
N41   N     N_R   0.576180 0.456710 0.054070 -0.040806
N42   N     N_R   0.423820 0.054070 0.543290 -0.040309
N43   N     N_R   0.576180 0.945930 0.456710 -0.040312
N44   N     N_R   0.576180 0.456710 0.945930 -0.041469
N45   N     N_R   0.246895 0.753060 0.298223 -0.100723
N46   N     N_R   0.423820 0.543290 0.054070 -0.041467
N47   N     N_R   0.576180 0.945930 0.543290 -0.040114
N48   N     N_R   0.423820 0.054070 0.456710 -0.040114
N49   N     N_R   0.576180 0.543290 0.054070 -0.041074
N50   N     N_R   0.423820 0.456710 0.945930 -0.041075
N51   N     N_R   0.576180 0.054070 0.456710 -0.041223
N52   N     N_R   0.423820 0.945930 0.543290 -0.041226
N53   N     N_R   0.054070 0.423820 0.456710 -0.041330
N54   N     N_R   0.945930 0.576180 0.543290 -0.041330
N55   N     N_R   0.456710 0.423820 0.945930 -0.041557
N56   N     N_R   0.753103 0.246943 0.701777 -0.100711
N57   N     N_R   0.543290 0.576180 0.054070 -0.041556
N58   N     N_R   0.945930 0.423820 0.543290 -0.040813
N59   N     N_R   0.054070 0.576180 0.456710 -0.040813
N60   N     N_R   0.543290 0.423820 0.054070 -0.040302
N61   N     N_R   0.456710 0.576180 0.945930 -0.040312
N62   N     N_R   0.945930 0.576180 0.456710 -0.041466
N63   N     N_R   0.054070 0.423820 0.543290 -0.041466
N64   N     N_R   0.543290 0.576180 0.945930 -0.040114
N65   N     N_R   0.456710 0.423820 0.054070 -0.040113
N66   N     N_R   0.054070 0.576180 0.543290 -0.041072
N67   N     N_R   0.231442 0.236931 0.293752 -0.103482
N68   N     N_R   0.945930 0.423820 0.456710 -0.041076
N69   N     N_R   0.456710 0.576180 0.054070 -0.041226
N70   N     N_R   0.543290 0.423820 0.945930 -0.041228
N71   N     N_R   0.768559 0.763070 0.706249 -0.103482
N72   N     N_R   0.295667 0.765139 0.229979 -0.099604
Ni1   Ni    Ni4+2 0.500000 0.000000 0.424470 0.210219
Ni2   Ni    Ni4+2 1.000000 0.575530 0.500000 0.210219
Ni3   Ni    Ni4+2 0.500000 0.424470 0.000000 0.211874
Ni4   Ni    Ni4+2 0.500000 0.575530 0.000000 0.211869
Ni5   Ni    Ni4+2 0.500000 0.000000 0.575530 0.210225
Ni6   Ni    Ni4+2 0.000000 0.500000 0.424470 0.211867
Ni7   Ni    Ni4+2 0.000000 0.500000 0.575530 0.211869
Ni8   Ni    Ni4+2 0.424470 0.500000 0.000000 0.210223
Ni9   Ni    Ni4+2 0.575530 0.500000 0.000000 0.210233
Ni10  Ni    Ni4+2 0.424470 0.000000 0.500000 0.211872
Ni11  Ni    Ni4+2 0.575530 0.000000 0.500000 0.211874
Ni12  Ni    Ni4+2 0.000000 0.424470 0.500000 0.210218

loop_
_geom_bond_atom_site_label_1
_geom_bond_atom_site_label_2
_ccdc_geom_bond_type
C174  H45   S    
C197  H116  S    
C178  H61   S    
N46   Ni8   S    
C130  C146  S    
C140  C247  A    
C7    C60   A    
C10   C63   A    
N24   Ni5   S    
C220  H35   S    
C172  C273  S    
C19   C72   A    
C193  H103  S    
C247  N58   A    
C113  N8    A    
C245  N56   A    
C69   H228  S    
C209  H153  S    
C172  H40   S    
N70   Ni3   S    
C173  H44   S    
C188  H89   S    
C150  C254  A    
C44   C279  A    
C92   C148  S    
C46   N23   A    
C167  C269  S    
C250  H176  S    
C111  C256  S    
N21   Ni7   S    
C2    N16   A    
C170  H34   S    
C176  H53   S    
C227  N38   A    
C79   N3    A    
C229  H124  S    
C2    C116  S    
C210  H156  S    
C144  C242  A    
C236  N47   A    
C40   C93   A    
C182  H69   S    
C162  H10   S    
C169  H29   S    
C151  C253  A    
C42   C276  A    
N48   Ni10  S    
C258  H183  S    
C150  C225  A    
C208  H149  S    
C4    C56   A    
C75   C103  A    
C174  H47   S    
C44   C89   A    
C16   C202  S    
C25   C119  A    
C71   C98   A    
C192  H98   S    
C53   H213  S    
C224  N35   A    
C211  N22   A    
C148  C252  A    
C230  N41   A    
N24   N42   A    
N26   Ni7   S    
C128  C288  A    
C155  C258  A    
N44   N70   A    
C17   C127  A    
N58   Ni12  S    
C107  C212  S    
C259  H184  S    
N62   Ni2   S    
C251  N62   A    
C171  H36   S    
C142  C240  A    
C168  N18   A    
C114  C268  A    
N25   N59   A    
C223  N34   A    
C13   C117  S    
C41   C94   A    
C200  H128  S    
C165  H21   S    
C35   N34   A    
N31   Ni5   S    
C22   C208  S    
C158  C244  A    
C29   H189  S    
C78   C134  S    
C252  H178  S    
C205  H140  S    
C203  H134  S    
C52   H212  S    
N20   Ni6   S    
C204  H137  S    
N21   N66   A    
C16   C115  A    
C217  H2    S    
C258  N69   A    
N50   Ni8   S    
C98   C150  S    
C18   C71   A    
C228  N39   A    
C36   C270  A    
N29   N54   A    
C3    C129  A    
C195  H110  S    
C183  H72   S    
C132  C237  A    
C114  C286  A    
C173  H42   S    
C188  H91   S    
C9    C195  S    
C120  C274  A    
C230  H135  S    
C14   C199  S    
C246  H171  S    
N66   Ni2   S    
C190  H164  S    
C63   C84   A    
C249  H174  S    
C52   C86   A    
N35   N62   A    
C167  H27   S    
C29   C82   A    
C82   C138  S    
C216  N27   A    
C179  H112  S    
C143  C218  A    
C153  C249  A    
N27   Ni5   S    
C20   C73   A    
C34   C87   A    
C159  H239  S    
C67   H227  S    
C72   H232  S    
C169  H31   S    
C19   C106  A    
C170  H32   S    
N55   Ni3   S    
C95   C142  S    
C208  H151  S    
C8    C129  A    
C12   C198  S    
C225  N36   A    
C53   C85   A    
C215  N26   A    
C190  N20   A    
C110  C265  A    
C192  H100  S    
C1    C105  S    
C56   C95   A    
C138  C213  A    
C24   N45   A    
C181  H66   S    
N43   Ni11  S    
C127  C285  A    
C193  H102  S    
N42   Ni10  S    
C23   C76   A    
C6    C130  A    
C102  C158  S    
C91   C147  S    
C201  H175  S    
C36   C88   A    
C206  H144  S    
C26   C78   A    
C13   N2    A    
C167  H28   S    
C224  H68   S    
C240  H166  S    
C164  H16   S    
C175  H49   S    
C256  N67   A    
C52   C286  A    
C199  H125  S    
C241  N52   A    
C53   C287  A    
C32   C85   A    
C139  C214  A    
C96   C152  S    
C198  H120  S    
C235  N46   A    
C202  H130  S    
C174  H48   S    
C17   C203  S    
N30   N53   A    
N47   Ni11  S    
C135  N5    A    
C3    C55   A    
C249  N60   A    
C203  H132  S    
C50   H210  S    
C43   C277  A    
C223  N5    A    
C40   C274  A    
C234  N13   A    
C25   C210  S    
C41   C275  A    
C45   C280  A    
C241  H167  S    
C216  H230  S    
C169  C270  S    
C195  H108  S    
C42   H202  S    
C171  C272  S    
N54   Ni2   S    
C196  H115  S    
C137  C232  A    
C160  H4    S    
C136  C201  A    
C117  C271  A    
N69   Ni4   S    
C118  C272  A    
C54   H214  S    
C14   C66   A    
C225  H79   S    
N46   N69   A    
C207  H147  S    
C50   C98   A    
C33   C268  A    
N37   N64   A    
C5    C191  S    
C180  H63   S    
C38   H198  S    
C27   C80   A    
C60   H220  S    
C147  C227  A    
C184  H76   S    
N33   Ni7   S    
C31   C84   A    
C50   C284  A    
C257  N68   A    
C133  C236  A    
C70   H229  S    
C185  C286  S    
N53   Ni12  S    
C189  H94   S    
C10   C196  S    
C24   N72   A    
C187  C288  S    
C103  C154  S    
C191  H96   S    
C135  N9    A    
C15   C67   A    
C46   C120  S    
C171  H37   S    
C75   H235  S    
C239  H165  S    
C109  C264  A    
C186  H84   S    
C115  C278  S    
C125  C281  A    
C105  C260  A    
C33   H193  S    
C165  C266  S    
C44   H204  S    
C143  C243  A    
C198  H119  S    
C161  H8    S    
C237  N48   A    
C267  N8    A    
C70   C99   A    
C110  C245  S    
C74   C104  A    
C112  N12   A    
C206  H142  S    
C177  H55   S    
C185  H81   S    
C167  H26   S    
C6    C59   A    
C63   H223  S    
C242  N53   A    
C194  H106  S    
N19   N47   A    
C115  C269  A    
C13   N56   A    
C177  H58   S    
C166  H22   S    
C124  C128  S    
N32   Ni1   S    
C59   C103  A    
C181  C282  S    
C28   H188  S    
C156  C246  A    
C160  H5    S    
C18   C126  A    
C215  H219  S    
C15   C200  S    
C250  N61   A    
C39   C273  A    
C94   C141  S    
C145  C220  A    
N20   N68   A    
N36   Ni8   S    
C187  H86   S    
C220  N31   A    
C202  H131  S    
C176  H54   S    
N60   Ni3   S    
C173  C274  S    
C193  H104  S    
C184  H77   S    
C26   C260  A    
C227  H101  S    
C196  H111  S    
C170  C271  S    
C226  H90   S    
C248  N59   A    
N28   N51   A    
C18   C204  S    
C37   C271  A    
C60   C104  A    
C38   C272  A    
C182  H70   S    
C22   C130  A    
N28   Ni1   S    
C35   N9    A    
C214  H208  S    
C207  H145  S    
C240  N51   A    
C39   H199  S    
C208  H150  S    
C31   C265  A    
C214  N25   A    
C136  C255  A    
C93   C149  S    
C59   H218  S    
C83   C139  S    
N61   Ni4   S    
C242  H168  S    
C210  H158  S    
C81   C137  S    
C55   C102  A    
C67   C88   A    
C184  C285  S    
C229  N40   A    
C31   H191  S    
N41   N60   A    
C188  H88   S    
C186  C287  S    
C172  H41   S    
C46   N10   A    
C11   C109  A    
C221  H46   S    
C54   C288  A    
C178  H59   S    
C213  H197  S    
C49   C81   A    
C30   C83   A    
C62   H222  S    
C278  N17   A    
C21   C131  A    
C61   H221  S    
C183  C284  S    
C47   C281  A    
C140  C215  A    
C163  H14   S    
C101  N7    A    
C164  H17   S    
C161  H6    S    
N27   N52   A    
C66   H226  S    
C126  C284  A    
C163  C264  S    
C8    C194  S    
C149  C224  A    
C97   C153  S    
C166  H23   S    
C7    C131  A    
C69   C87   A    
N51   Ni11  S    
C158  C239  A    
C205  H139  S    
C100  C156  S    
C168  H1    S    
C203  H133  S    
C212  N23   A    
C204  H138  S    
C74   H234  S    
N30   Ni6   S    
C116  C270  A    
C139  C248  A    
C141  C216  A    
C152  C250  A    
C183  H74   S    
C243  N54   A    
C165  H19   S    
C45   H205  S    
N59   Ni2   S    
N26   N58   A    
N68   Ni12  S    
C176  H52   S    
N63   Ni12  S    
C196  H114  S    
C111  C266  A    
C172  H39   S    
N44   Ni9   S    
C68   C122  S    
C182  C283  S    
C108  C223  S    
C123  C280  A    
C12   C125  A    
C199  H122  S    
C38   C91   A    
C49   C283  A    
C141  C241  A    
C146  N11   A    
C42   C95   A    
C64   H224  S    
C222  N33   A    
C212  N6    A    
N64   Ni4   S    
C202  H129  S    
C89   C145  S    
C64   C83   A    
C180  H62   S    
C76   C93   A    
C209  H154  S    
C86   C133  S    
N25   Ni6   S    
C218  N29   A    
C210  H155  S    
N41   Ni9   S    
C195  H109  S    
C30   H190  S    
C56   H216  S    
C177  H56   S    
C194  H105  S    
C169  H30   S    
C62   C100  A    
C232  H157  S    
C5    C58   A    
C204  H136  S    
C252  N63   A    
C113  N17   A    
C198  H121  S    
C39   C92   A    
C66   C96   A    
C20   C105  A    
N32   N38   A    
C238  H163  S    
N40   Ni8   S    
N50   N55   A    
C233  H159  S    
C209  H152  S    
C181  H65   S    
C236  H161  S    
N36   N65   A    
C51   C285  A    
C107  C283  A    
C68   N1    A    
C47   C97   A    
C245  N11   A    
C118  C277  A    
C205  H141  S    
C112  N15   A    
C40   H200  S    
C12   C65   A    
C1    N1    A    
C185  H78   S    
C80   C136  S    
C37   C89   A    
C156  C238  A    
C226  N37   A    
C76   H236  S    
C114  C267  S    
C259  N70   A    
C163  H12   S    
C21   C207  S    
C200  H127  S    
C134  C257  A    
C28   C262  A    
C197  H118  S    
C154  C233  A    
C32   H192  S    
C90   C125  S    
C48   C82   A    
C10   C110  A    
C107  C262  A    
C57   N3    A    
C71   H231  S    
N52   Ni10  S    
C247  H172  S    
C239  N50   A    
C65   C97   A    
N65   Ni3   S    
N33   N63   A    
C151  C226  A    
C219  N30   A    
C72   C80   A    
C131  C157  S    
C6    C192  S    
C257  H182  S    
C111  C287  A    
C15   C116  A    
C157  N72   A    
C187  H87   S    
C9    C128  A    
C176  C277  S    
C154  C259  A    
C101  N16   A    
C235  H160  S    
C149  C251  A    
C177  C279  S    
C65   H225  S    
C77   C92   A    
C159  C260  S    
C170  H33   S    
C47   H206  S    
C35   C119  S    
C20   C206  S    
C173  H43   S    
C3    C188  S    
C238  N49   A    
C106  C112  S    
C278  N71   A    
N22   Ni1   S    
C186  H82   S    
C73   H233  S    
C137  C211  A    
C25   C77   A    
C138  C231  A    
C180  H64   S    
C36   H195  S    
C175  H51   S    
C85   C132  S    
C77   H237  S    
C246  N57   A    
C27   C261  A    
C5    C121  A    
C48   H207  S    
N49   N57   A    
C108  C263  A    
C159  H240  S    
C232  N43   A    
C211  H186  S    
C148  C222  A    
C175  C276  S    
C255  H181  S    
C189  H93   S    
C255  N66   A    
C161  C262  S    
C191  H95   S    
C174  C275  S    
C146  N2    A    
C254  N65   A    
C199  H123  S    
C49   H209  S    
C73   C78   A    
C34   C269  A    
C32   C266  A    
C124  N10   A    
C7    C193  S    
C253  N64   A    
C147  C221  A    
C192  H99   S    
C8    C61   A    
C163  H15   S    
C109  C234  S    
C197  H117  S    
C17   C70   A    
C104  C155  S    
C129  C135  S    
C181  H67   S    
C79   N15   A    
C54   C100  A    
C2    N67   A    
C161  H7    S    
C231  N42   A    
C41   H201  S    
C22   C75   A    
C183  H73   S    
C189  H92   S    
N19   Ni5   S    
C51   C99   A    
C206  H143  S    
C145  C228  A    
C51   H211  S    
C185  H80   S    
C4    C122  A    
C9    C62   A    
C217  N28   A    
C144  C219  A    
C201  N21   A    
C11   C64   A    
C175  H50   S    
C23   C120  A    
C244  N55   A    
C48   C282  A    
C133  C179  A    
C58   H217  S    
C90   N4    A    
C23   C209  S    
C234  N45   A    
N37   Ni9   S    
C79   C123  S    
C21   C74   A    
C194  H107  S    
C106  C261  A    
C43   C91   A    
N40   N61   A    
N22   N43   A    
C33   C86   A    
C121  C275  A    
C142  C217  A    
C27   H187  S    
C122  C276  A    
C68   N4    A    
C119  C273  A    
C55   H215  S    
C256  N7    A    
C218  H13   S    
C155  C235  A    
C231  H146  S    
N18   N48   A    
C101  C126  S    
C254  H180  S    
C200  H126  S    
C187  H85   S    
C162  H9    S    
C243  H169  S    
C233  N44   A    
C34   H194  S    
C191  H97   S    
C160  C261  S    
C57   N12   A    
C153  C230  A    
N29   Ni7   S    
C160  H3    S    
C251  H177  S    
C182  H71   S    
C108  C282  A    
N31   N39   A    
C152  C229  A    
C58   C94   A    
C207  H148  S    
C14   C123  A    
C221  N32   A    
C28   C81   A    
C213  N24   A    
C4    C189  S    
C37   H196  S    
C99   C151  S    
C16   C69   A    
C132  C168  A    
N57   Ni4   S    
C267  N71   A    
C90   N14   A    
C157  N13   A    
C184  H75   S    
C179  N19   A    
C113  C127  S    
C166  H25   S    
C164  C265  S    
C228  H113  S    
C24   C118  S    
C165  H20   S    
C134  C190  A    
C159  H238  S    
C61   C102  A    
C253  H179  S    
N18   Ni1   S    
N49   Ni9   S    
C117  C279  A    
C219  H24   S    
C26   H185  S    
C162  C263  S    
C248  H173  S    
C178  H60   S    
C1    N14   A    
C29   C263  A    
C171  H38   S    
C30   C264  A    
C124  N6    A    
C186  H83   S    
C162  H11   S    
N35   Ni6   S    
C57   C121  S    
C11   C197  S    
C178  C280  S    
C237  H162  S    
C164  H18   S    
C84   C140  S    
N39   Ni11  S    
C19   C205  S    
C166  C268  S    
N38   Ni10  S    
C43   H203  S    
C87   C143  S    
C180  C281  S    
C45   C96   A    
C244  H170  S    
C88   C144  S    
C222  H57   S    
