data_mof_unit_28957.cif
_audit_creation_date              2012-12-11T17:25:03-0500
_audit_creation_method            fapswitch 2.2
_symmetry_space_group_name_H-M    P1
_symmetry_Int_Tables_number       1
_space_group_crystal_system       triclinic
_cell_length_a                    6.948811
_cell_length_b                    20.550751
_cell_length_c                    24.440747
_cell_angle_alpha                 90.211928
_cell_angle_beta                  90.259938
_cell_angle_gamma                 89.298941
_cell_volume                      3489.89860297

loop_
_atom_site_label
_atom_site_type_symbol
_atom_type_description
_atom_site_fract_x
_atom_site_fract_y
_atom_site_fract_z
_atom_type_partial_charge
O1    O     O_R   0.507280 0.423750 0.460310 -0.536619
O2    O     O_R   0.171030 0.555650 0.437630 -0.532332
O3    O     O_R   0.004080 0.576250 0.539690 -0.531308
C1    C     C_R   0.339082 0.575869 0.421918 0.737649
O4    O     O_R   0.177330 0.422980 0.453960 -0.540686
O5    O     O_R   0.010420 0.442640 0.556140 -0.538699
C2    C     C_R   0.346562 0.398844 0.443698 0.710168
O6    O     O_R   0.500930 0.557360 0.443860 -0.524566
O7    O     O_3   0.340310 0.506600 0.533500 -0.373343
V1    V     V_3+5 0.064140 0.498780 0.493780 1.477131
O8    O     O_R   0.680890 0.444350 0.562370 -0.538986
C3    C     C_R   0.850543 0.424381 0.578136 0.719917
O9    O     O_R   0.674590 0.577020 0.546040 -0.539470
C4    C     C_R   0.841645 0.601328 0.556663 0.756386
V2    V     V_3+5 0.564550 0.501220 0.506220 1.477474
O10   O     O_3   0.838250 0.493400 0.466500 -0.364659
C5    C     C_R   0.982529 0.837618 0.910865 -0.068755
C6    C     C_R   0.837660 0.663368 0.588216 -0.117024
C7    C     C_R   0.106665 0.726888 0.902126 0.020647
C8    C     C_R   0.073002 0.783071 0.933439 -0.165075
C9    C     C_R   0.910663 0.834107 0.857164 -0.127435
C10   C     C_R   0.934552 0.776740 0.824776 0.094367
C11   C     C_R   0.059916 0.727054 0.845251 0.012966
C12   C     C_R   0.851362 0.769781 0.771036 0.011496
C13   C     C_R   0.926852 0.720879 0.734633 0.034864
C14   C     C_R   0.074769 0.679509 0.753741 -0.218460
C15   C     C_R   0.142178 0.681891 0.807682 -0.013777
C16   C     C_R   0.694246 0.809161 0.752135 -0.032676
C17   C     C_R   0.648993 0.810227 0.696364 -0.217909
C18   C     C_R   0.729805 0.765167 0.659992 0.084504
C19   C     C_R   0.858857 0.716694 0.679146 0.109414
C20   C     C_R   0.671015 0.766048 0.605068 -0.174967
C21   C     C_R   0.725697 0.716485 0.568650 -0.022827
C22   C     C_R   0.907863 0.664807 0.642510 -0.223648
H1    H     H_    0.986502 0.622321 0.656377 0.114724
H2    H     H_    0.536265 0.842895 0.681787 0.171314
H3    H     H_    0.117473 0.784528 0.976021 0.134539
H4    H     H_    0.848131 0.877923 0.839996 0.101173
H5    H     H_    0.148943 0.646903 0.726047 0.147257
H6    H     H_    0.577588 0.805171 0.590833 0.169463
H7    H     H_    0.654640 0.236715 0.815527 0.140466
C23   C     C_R   0.750497 0.286379 0.743730 -0.084143
H8    H     H_    0.617735 0.314213 0.739870 0.127248
C24   C     C_R   0.898821 0.294586 0.705926 0.105091
C25   C     C_R   0.069103 0.257860 0.711791 -0.171264
H9    H     H_    0.183728 0.264838 0.682525 0.159348
C26   C     C_R   0.093881 0.212950 0.755166 -0.015350
C27   C     C_R   0.941677 0.204951 0.793225 0.049993
C28   C     C_R   0.771896 0.242103 0.786891 -0.125941
C29   C     C_1   0.877729 0.340811 0.661177 -0.015375
C30   C     C_1   0.952864 0.158790 0.838441 0.031316
C31   C     C_1   0.962191 0.120623 0.876298 -0.130434
C32   C     C_1   0.863257 0.379132 0.623543 -0.162094
H10   H     H_    0.698957 0.706679 0.299372 0.125696
C33   C     C_R   0.596604 0.770205 0.235295 -0.138294
H11   H     H_    0.740435 0.784402 0.223787 0.115741
C34   C     C_R   0.435955 0.795875 0.207282 0.134841
C35   C     C_R   0.251239 0.776418 0.223220 -0.129835
H12   H     H_    0.125162 0.795508 0.202233 0.117961
C36   C     C_R   0.227521 0.732021 0.266328 -0.137358
H13   H     H_    0.083700 0.717763 0.277792 0.117322
C37   C     C_R   0.388181 0.706258 0.294271 0.127215
C38   C     C_R   0.572883 0.725817 0.278413 -0.135213
C39   C     C_1   0.459666 0.841599 0.162166 -0.028115
C40   C     C_1   0.364507 0.660012 0.339002 -0.036741
C41   C     C_1   0.349104 0.621516 0.376533 -0.151126
C42   C     C_1   0.475058 0.879523 0.124218 -0.145414
C43   C     C_R   0.473940 0.160867 0.090352 -0.183443
C44   C     C_R   0.355019 0.337948 0.411984 -0.111317
C45   C     C_R   0.558241 0.274756 0.096451 0.411058
C46   C     C_R   0.551007 0.216695 0.067234 -0.202381
C47   C     C_R   0.408183 0.162333 0.145215 -0.083314
C48   C     C_R   0.445646 0.218559 0.178593 -0.001020
C49   C     C_R   0.505398 0.276365 0.152105 0.038273
C50   C     C_R   0.430345 0.219421 0.237302 0.087491
C51   C     C_R   0.433876 0.279474 0.266781 0.089010
C52   C     C_R   0.470474 0.336729 0.237163 -0.189065
C53   C     C_R   0.512578 0.334697 0.181745 -0.113239
C54   C     C_R   0.436399 0.161586 0.267712 -0.192920
C55   C     C_R   0.410361 0.160881 0.324264 -0.042755
C56   C     C_R   0.373007 0.219951 0.352640 -0.023578
C57   C     C_R   0.403510 0.279987 0.324865 0.040070
C58   C     C_R   0.306952 0.221613 0.407733 0.424660
C59   C     C_R   0.300896 0.280175 0.436627 -0.184675
C60   C     C_R   0.401553 0.338312 0.356389 -0.199159
H14   H     H_    0.549426 0.380009 0.162221 0.189741
H15   H     H_    0.432351 0.385133 0.339123 0.104240
H16   H     H_    0.251289 0.280802 0.478625 0.151019
H17   H     H_    0.600995 0.215533 0.025269 0.154221
H18   H     H_    0.475558 0.384154 0.255847 0.124960
H19   H     H_    0.477231 0.116282 0.248159 0.150487
O11   O     O_R   0.323320 0.942780 0.056240 -0.528042
O12   O     O_R   0.647300 0.077050 0.046060 -0.539075
O13   O     O_R   0.813840 0.057330 0.943840 -0.542401
C61   C     C_R   0.478315 0.100929 0.056857 0.777532
O14   O     O_R   0.653250 0.944380 0.062400 -0.540574
O15   O     O_R   0.819830 0.923720 0.960300 -0.533892
C62   C     C_R   0.485140 0.924482 0.078340 0.770722
O16   O     O_R   0.317330 0.076390 0.039790 -0.529305
O17   O     O_3   0.483830 0.993470 0.966560 -0.372343
V3    V     V_3+5 0.760140 0.001210 0.006210 1.479278
O18   O     O_R   0.149290 0.922840 0.953850 -0.538163
C63   C     C_R   0.981800 0.899097 0.942702 0.691530
O19   O     O_R   0.143340 0.055500 0.937510 -0.532824
C64   C     C_R   0.973763 0.075508 0.921790 0.712637
V4    V     V_3+5 0.259690 0.998600 0.993650 1.501779
O20   O     O_3   0.986130 0.006520 0.033440 -0.362436
C65   C     C_2   0.321670 0.644383 0.819814 0.807814
O21   O     O_2   0.342093 0.588972 0.802137 -0.541830
O22   O     O_R   0.470733 0.673427 0.849389 -0.637606
H20   H     H_    0.586861 0.643558 0.853950 0.319164
C66   C     C_2   0.279408 0.175828 0.759211 0.762744
O23   O     O_2   0.387630 0.173285 0.719886 -0.541969
O24   O     O_R   0.333288 0.144537 0.807727 -0.667517
H21   H     H_    0.462741 0.121474 0.804922 0.298578
C67   C     C_2   0.449713 0.098146 0.352135 0.900454
O25   O     O_2   0.551478 0.096500 0.393089 -0.498483
O26   O     O_R   0.378591 0.040440 0.329807 -0.647818
H22   H     H_    0.417589 0.000720 0.351900 0.317150
Cl1   Cl    Cl    0.644874 0.343592 0.061821 -0.605792
C68   C     C_2   0.279852 0.109697 0.164353 0.758414
O27   O     O_2   0.321809 0.052530 0.156180 -0.570226
O28   O     O_R   0.110953 0.126028 0.192401 -0.645518
H23   H     H_    0.035713 0.086360 0.203721 0.310660
Cl2   Cl    Cl    0.200721 0.154759 0.440669 -0.544138
C69   C     C_2   0.657577 0.720507 0.510833 0.755944
O29   O     O_2   0.744715 0.691858 0.474447 -0.562999
O30   O     O_R   0.495225 0.758352 0.497743 -0.656408
H24   H     H_    0.463329 0.757249 0.457222 0.306349
C70   C     C_2   0.172019 0.667310 0.931422 0.803565
O31   O     O_2   0.279759 0.671561 0.970970 -0.535213
O32   O     O_R   0.104629 0.606410 0.914970 -0.650946
H25   H     H_    0.158293 0.569654 0.938252 0.328135
C71   C     C_2   0.554297 0.842211 0.789137 0.753848
O33   O     O_2   0.510045 0.817035 0.832499 -0.534425
O34   O     O_R   0.466400 0.900786 0.773244 -0.659729
H26   H     H_    0.371609 0.917872 0.801431 0.297236

loop_
_geom_bond_atom_site_label_1
_geom_bond_atom_site_label_2
_ccdc_geom_bond_type
V3    O20   S    
C1    C41   S    
C33   H11   S    
O13   C64   A    
C13   C19   A    
C69   O29   D    
C47   C68   S    
C48   C49   A    
C4    C6    S    
C7    C11   A    
C7    C8    A    
C1    O6    A    
O30   H24   S    
O19   V4    S    
O24   H21   S    
O11   C62   A    
O28   H23   S    
C52   C53   A    
C65   O21   D    
C17   H2    S    
C14   C15   A    
C17   C18   A    
C16   C71   S    
C16   C17   A    
O5    C3    A    
C18   C19   A    
C55   C56   A    
C61   O16   A    
C14   H5    S    
V4    O20   S    
C35   C36   A    
V2    O10   S    
C5    C8    A    
C67   O25   D    
C36   C37   A    
C22   H1    S    
H7    C28   S    
O22   H20   S    
O19   C64   A    
C42   C62   S    
O26   H22   S    
O8    V2    S    
C27   C30   S    
C9    H4    S    
C55   C67   S    
O13   V3    S    
C45   Cl1   S    
O32   H25   S    
O14   C62   A    
C45   C49   A    
C26   C27   A    
C45   C46   A    
O1    V2    S    
C11   C15   A    
O7    V1    S    
C54   H19   S    
C3    C32   S    
C53   H14   S    
C7    C70   S    
C60   H15   S    
O12   C61   A    
O9    C4    A    
C48   C50   A    
C23   C24   A    
C58   Cl2   S    
C66   O24   S    
C66   O23   D    
C56   C58   A    
C56   C57   A    
C25   C26   A    
C52   H18   S    
C43   C61   S    
C30   C31   T    
C29   C32   T    
C39   C42   T    
C59   H16   S    
O14   V3    S    
C12   C13   A    
C51   C57   A    
O4    C2    A    
C47   C48   A    
C71   O34   S    
C35   H12   S    
C25   H9    S    
C5    C9    A    
C33   C38   A    
C36   H13   S    
C70   O32   S    
C50   C51   A    
C2    C44   S    
C37   C38   A    
C58   C59   A    
C46   H17   S    
C43   C47   A    
C5    C63   S    
C19   C22   A    
C51   C52   A    
C6    C22   A    
C68   O27   D    
O15   C63   A    
O3    C4    A    
C67   O26   S    
O11   V4    S    
C27   C28   A    
C31   C64   S    
O6    V2    S    
O9    V2    S    
C49   C53   A    
C10   C12   A    
C23   H8    S    
O12   V3    S    
O2    V1    S    
C44   C60   A    
C24   C25   A    
C34   C39   S    
C24   C29   S    
O16   V4    S    
C69   O30   S    
C37   C40   S    
O1    C2    A    
C12   C16   A    
O34   H26   S    
O5    V1    S    
O8    C3    A    
C71   O33   D    
C57   C60   A    
O17   V4    S    
C20   C21   A    
C33   C34   A    
C70   O31   D    
C13   C14   A    
O4    V1    S    
O3    V1    S    
V1    O10   S    
C18   C20   A    
C8    H3    S    
C34   C35   A    
C15   C65   S    
C43   C46   A    
O2    C1    A    
C21   C69   S    
C65   O22   S    
O18   V4    S    
C20   H6    S    
O7    V2    S    
O18   C63   A    
C6    C21   A    
C68   O28   S    
C23   C28   A    
C54   C55   A    
C40   C41   T    
H10   C38   S    
C44   C59   A    
C10   C11   A    
O17   V3    S    
C9    C10   A    
C50   C54   A    
O15   V3    S    
C26   C66   S    
