data_mof_unit_52773.cif
_audit_creation_date              2012-12-10T18:58:12-0500
_audit_creation_method            fapswitch 2.2
_symmetry_space_group_name_H-M    P1
_symmetry_Int_Tables_number       1
_space_group_crystal_system       triclinic
_cell_length_a                    11.04314
_cell_length_b                    10.825905
_cell_length_c                    9.541337
_cell_angle_alpha                 90.340215
_cell_angle_beta                  102.284005
_cell_angle_gamma                 90.032976
_cell_volume                      1114.54815816

loop_
_atom_site_label
_atom_site_type_symbol
_atom_type_description
_atom_site_fract_x
_atom_site_fract_y
_atom_site_fract_z
_atom_type_partial_charge
C1    C     C_R   0.499559 0.262236 0.499331 0.804832
C2    C     C_R   0.488091 0.129097 0.493805 -0.093771
C3    C     C_R   0.499890 0.062997 0.370444 -0.209938
C4    C     C_R   0.495372 0.934364 0.370208 -0.184938
C5    C     C_R   0.475921 0.870680 0.492107 -0.145881
C6    C     C_R   0.438448 0.938905 0.601317 0.031095
C7    C     C_3   0.472686 0.932219 0.762954 0.256831
C8    C     C_3   0.500255 0.070161 0.762686 -0.442774
C9    C     C_R   0.559116 0.591673 0.088692 0.269183
C10   C     C_R   0.431059 0.417273 0.056915 -0.073630
C11   C     C_R   0.430815 0.417482 0.907899 -0.096513
C12   C     C_R   0.262890 0.497974 0.442165 0.859917
C13   C     C_R   0.560020 0.590857 0.941798 0.230160
C14   C     C_3   0.694019 0.622917 0.968254 -0.498530
C15   C     C_3   0.693574 0.623634 0.127183 -0.501815
C16   C     C_R   0.493156 0.737622 0.498622 0.792469
C17   C     C_R   0.737171 0.497859 0.557976 0.872212
C18   C     C_2   0.128206 0.492503 0.409954 -0.352881
C19   C     C_2   0.067718 0.479494 0.516141 -0.162466
C20   C     C_2   0.871980 0.492182 0.591092 -0.369779
C21   C     C_2   0.933254 0.479405 0.485551 -0.147441
C22   C     C_R   0.452719 0.065223 0.604720 0.075816
Cu1   Cu    Cu3+1 0.499990 0.499980 0.640670 0.923249
Cu2   Cu    Cu3+1 0.500010 0.500020 0.359330 0.939404
H1    H     H_    0.884284 0.471297 0.374737 0.171445
H2    H     H_    0.600995 0.091758 0.791970 0.151903
H3    H     H_    0.377177 0.348809 0.099044 0.142519
H4    H     H_    0.376184 0.349682 0.838103 0.140070
H5    H     H_    0.751622 0.547591 0.937206 0.218962
H6    H     H_    0.710078 0.715712 0.926456 0.185183
H7    H     H_    0.750495 0.548340 0.185278 0.208297
H8    H     H_    0.710151 0.716650 0.177621 0.192943
H9    H     H_    0.117433 0.471552 0.626934 0.183735
H10   H     H_    0.921395 0.498874 0.702315 0.151372
H11   H     H_    0.078163 0.499677 0.299088 0.148143
H12   H     H_    0.520170 0.109561 0.277893 0.165900
H13   H     H_    0.515020 0.885446 0.278210 0.166654
H14   H     H_    0.554779 0.874470 0.808287 0.091947
H15   H     H_    0.441181 0.128252 0.817489 0.212703
N1    N     N_R   0.500780 0.500930 0.148120 -0.186442
N2    N     N_R   0.500790 0.500890 0.852210 -0.190347
O1    O     O_R   0.500000 0.319640 0.618810 -0.580270
O2    O     O_R   0.500010 0.319680 0.381230 -0.590699
O3    O     O_R   0.320680 0.500000 0.575130 -0.590788
O4    O     O_R   0.320690 0.500040 0.337550 -0.580691
O5    O     O_R   0.499990 0.680320 0.618770 -0.610122
O6    O     O_R   0.500000 0.680360 0.381190 -0.578794
O7    O     O_R   0.679310 0.499960 0.662450 -0.580408
O8    O     O_R   0.679320 0.500000 0.424870 -0.578996
O9    O     O_3   0.370496 0.915740 0.829197 -0.602419
C23   C     C_3   0.311710 0.800892 0.793832 0.087630
H16   H     H_    0.379571 0.724833 0.804028 0.164230
H17   H     H_    0.255551 0.803105 0.682183 0.154216
C24   C     C_3   0.226613 0.776787 0.897869 -0.327578
H18   H     H_    0.283538 0.768607 0.008591 0.220563
H19   H     H_    0.161952 0.855811 0.895562 0.229529
C25   C     C_3   0.151217 0.658915 0.859200 -0.942503
H20   H     H_    0.089669 0.668112 0.751470 0.261308
H21   H     H_    0.092875 0.642748 0.938900 0.255636
H22   H     H_    0.213639 0.578508 0.859747 0.260359

loop_
_geom_bond_atom_site_label_1
_geom_bond_atom_site_label_2
_ccdc_geom_bond_type
C10   H3    S    
C2    C22   A    
C8    C22   S    
Cu1   Cu2   S    
C15   H7    S    
C6    C7    S    
C12   O4    A    
C8    H15   S    
C8    H2    S    
C18   H11   S    
C23   H17   S    
Cu1   N2    S    
C17   O7    A    
C23   C24   S    
C20   H10   S    
C13   N2    A    
O9    C23   S    
C9    C15   S    
C15   H8    S    
C12   O3    A    
Cu1   O5    S    
C13   C14   S    
C4    H13   S    
C25   H20   S    
Cu1   O1    S    
C3    H12   S    
C14   H6    S    
Cu2   O4    S    
C11   H4    S    
C16   O6    A    
C19   C21   S    
C7    H14   S    
C11   N2    A    
C2    C3    A    
C5    C6    A    
C24   H19   S    
C25   H21   S    
C10   C11   A    
C14   H5    S    
C12   C18   S    
C23   H16   S    
C6    C22   A    
C1    O1    A    
C7    C8    S    
C17   C20   S    
C20   C21   D    
C10   N1    A    
C1    C2    S    
C19   H9    S    
C16   O5    A    
Cu2   O8    S    
Cu2   O2    S    
C9    C13   A    
C14   C15   S    
C18   C19   D    
C25   H22   S    
C21   H1    S    
Cu1   O7    S    
Cu2   N1    S    
C24   H18   S    
Cu2   O6    S    
C1    O2    A    
C9    N1    A    
C17   O8    A    
Cu1   O3    S    
C3    C4    A    
C7    O9    S    
C4    C5    A    
C5    C16   S    
C24   C25   S    
