data_mof_unit_5071.cif
_audit_creation_date              2012-12-10T20:45:31-0500
_audit_creation_method            fapswitch 2.2
_symmetry_space_group_name_H-M    P1
_symmetry_Int_Tables_number       1
_space_group_crystal_system       triclinic
_cell_length_a                    10.787183
_cell_length_b                    10.660757
_cell_length_c                    9.900985
_cell_angle_alpha                 91.59176
_cell_angle_beta                  91.172135
_cell_angle_gamma                 90.542615
_cell_volume                      1137.8737547

loop_
_atom_site_label
_atom_site_type_symbol
_atom_type_description
_atom_site_fract_x
_atom_site_fract_y
_atom_site_fract_z
_atom_type_partial_charge
C1    C     C_R   0.500555 0.260339 0.498210 0.894425
C2    C     C_R   0.196281 0.299150 0.006585 -0.207083
C3    C     C_R   0.932354 0.425399 0.397769 0.344613
C4    C     C_R   0.873273 0.484569 0.507703 -0.177045
C5    C     C_R   0.943906 0.535940 0.618598 -0.001288
C6    C     C_R   0.070545 0.538187 0.609930 -0.159342
C7    C     C_R   0.128278 0.492620 0.494924 -0.127782
C8    C     C_R   0.060054 0.436409 0.386174 -0.026486
C9    C     C_R   0.916830 0.700275 0.804178 0.394612
C10   C     C_R   0.888425 0.730152 0.938589 -0.016855
C11   C     C_R   0.835704 0.640088 0.020030 -0.120673
C12   C     C_R   0.260394 0.497481 0.498066 0.914479
C13   C     C_R   0.816604 0.518039 0.969557 -0.144715
C14   C     C_R   0.848168 0.486062 0.837065 -0.153150
C15   C     C_R   0.894651 0.577353 0.751390 0.039480
C16   C     C_R   0.549973 0.067925 0.603869 0.044681
C17   C     C_R   0.496166 0.128288 0.495902 -0.088444
C18   C     C_R   0.425887 0.061595 0.397319 -0.193200
C19   C     C_R   0.421040 0.931850 0.401576 -0.122645
C20   C     C_R   0.484844 0.871619 0.505879 -0.157218
C21   C     C_R   0.540463 0.940538 0.612349 0.189502
C22   C     C_3   0.669497 0.930802 0.668264 0.252709
C23   C     C_R   0.496611 0.739703 0.501544 0.900190
C24   C     C_3   0.683094 0.070331 0.648574 -0.518141
C25   C     C_R   0.487512 0.390443 0.067216 0.166506
C26   C     C_R   0.481660 0.607706 0.075915 -0.142530
C27   C     C_R   0.474407 0.606903 0.932631 0.442212
C28   C     C_R   0.489719 0.390549 0.926053 0.113394
C29   C     C_3   0.566772 0.276082 0.918862 -0.451334
C30   C     C_3   0.562688 0.274438 0.072616 -0.405631
C31   C     C_R   0.740195 0.495788 0.502147 0.922644
C32   C     C_R   0.179143 0.427793 0.028099 -0.250828
C33   C     C_R   0.140749 0.474400 0.153768 0.345271
C34   C     C_R   0.117708 0.390946 0.258843 0.072078
C35   C     C_R   0.138396 0.262037 0.237285 -0.199893
C36   C     C_R   0.177207 0.216354 0.111322 0.324312
H1    H     H_    0.225662 0.264061 0.908825 0.186771
H2    H     H_    0.812519 0.664090 0.123366 0.187743
H3    H     H_    0.779893 0.447638 0.034186 0.193589
H4    H     H_    0.838967 0.389454 0.801373 0.153363
H5    H     H_    0.378217 0.109237 0.316620 0.178806
H6    H     H_    0.372086 0.878857 0.321785 0.211129
H7    H     H_    0.731207 0.871537 0.605194 0.133939
H8    H     H_    0.700949 0.125705 0.743174 0.236072
H9    H     H_    0.746329 0.093470 0.565237 0.207393
H10   H     H_    0.466755 0.694122 0.132656 0.207027
H11   H     H_    0.196146 0.491378 0.946970 0.187215
H12   H     H_    0.515858 0.195594 0.869402 0.245650
H13   H     H_    0.660421 0.295227 0.880382 0.194388
H14   H     H_    0.508549 0.193818 0.110244 0.225791
H15   H     H_    0.653924 0.289713 0.122407 0.261448
H16   H     H_    0.120706 0.197016 0.316968 0.185573
H17   H     H_    0.124856 0.576799 0.695113 0.202327
H18   H     H_    0.906579 0.823776 0.979927 0.220465
N1    N     N_R   0.499160 0.499140 0.142800 -0.136322
N2    N     N_R   0.499160 0.499180 0.857150 -0.152331
O1    O     O_R   0.500020 0.316790 0.614690 -0.624511
O2    O     O_R   0.500000 0.316760 0.385350 -0.617648
O3    O     O_R   0.316770 0.500030 0.614670 -0.616824
O4    O     O_R   0.316750 0.499990 0.385330 -0.607922
O5    O     O_R   0.500000 0.683240 0.614650 -0.541186
O6    O     O_R   0.499980 0.683210 0.385310 -0.635574
O7    O     O_R   0.683250 0.500010 0.614670 -0.628663
O8    O     O_R   0.683230 0.499970 0.385330 -0.571177
Zn1   Zn    Zn3+2 0.500010 0.500020 0.653130 1.009312
Zn2   Zn    Zn3+2 0.499990 0.499980 0.346870 0.987899
Cl1   Cl    Cl    0.666969 0.895634 0.842977 -0.563924
Cl2   Cl    Cl    0.404473 0.738062 0.861994 -0.480175
Br1   Br    Br    0.124094 0.652445 0.179308 -0.473544
Br2   Br    Br    0.200023 0.040414 0.080402 -0.423021
Cl3   Cl    Cl    0.849970 0.324961 0.281726 -0.674074
Cl4   Cl    Cl    0.983523 0.817781 0.706323 -0.565828

loop_
_geom_bond_atom_site_label_1
_geom_bond_atom_site_label_2
_ccdc_geom_bond_type
C11   H2    S    
C3    Cl3   S    
C30   H15   S    
C20   C23   S    
C16   C21   A    
C1    O1    A    
C31   O7    A    
C9    C10   A    
C1    C17   S    
C35   C36   A    
C2    H1    S    
C9    Cl4   S    
C33   Br1   S    
C32   C33   A    
O7    Zn1   S    
C17   C18   A    
C28   N2    A    
O4    Zn2   S    
C7    C8    A    
C16   C24   S    
C29   H13   S    
C21   C22   S    
O3    Zn1   S    
C25   C28   A    
C4    C5    A    
C11   C13   A    
C19   H6    S    
C26   C27   A    
C29   C30   S    
C24   H8    S    
C24   H9    S    
C28   C29   S    
C26   N1    A    
C36   Br2   S    
C18   C19   A    
C6    C7    A    
C25   N1    A    
C12   O3    A    
C3    C8    A    
C30   H14   S    
C5    C6    A    
C10   H18   S    
C32   H11   S    
C22   C24   S    
C7    C12   S    
C5    C15   S    
C4    C31   S    
C13   H3    S    
C10   C11   A    
C26   H10   S    
C29   H12   S    
C14   H4    S    
N2    Zn1   S    
C12   O4    A    
C16   C17   A    
O5    Zn1   S    
C23   O5    A    
N1    Zn2   S    
C33   C34   A    
C20   C21   A    
C2    C32   A    
C34   C35   A    
C18   H5    S    
C2    C36   A    
C25   C30   S    
O6    Zn2   S    
C27   N2    A    
C35   H16   S    
C8    C34   S    
C27   Cl2   S    
C6    H17   S    
C13   C14   A    
C1    O2    A    
C14   C15   A    
C31   O8    A    
O2    Zn2   S    
C23   O6    A    
C3    C4    A    
C19   C20   A    
C9    C15   A    
O1    Zn1   S    
C22   Cl1   S    
C22   H7    S    
O8    Zn2   S    
