data_mof_unit_15253.cif
_audit_creation_date              2013-03-05T15:48:18-0500
_audit_creation_method            fapswitch 2.2
_symmetry_space_group_name_H-M    P1
_symmetry_Int_Tables_number       1
_space_group_crystal_system       triclinic
_cell_length_a                    21.101278
_cell_length_b                    7.23562
_cell_length_c                    18.471459
_cell_angle_alpha                 90.000018
_cell_angle_beta                  92.914022
_cell_angle_gamma                 90.000142
_cell_volume                      2816.59095465

loop_
_atom_site_label
_atom_site_type_symbol
_atom_site_description
_atom_site_fract_x
_atom_site_fract_y
_atom_site_fract_z
_atom_type_partial_charge
O1    O     O_R   0.448880 0.506250 0.415280 -0.586154
O2    O     O_R   0.551120 0.006250 0.584720 -0.586139
O3    O     O_R   0.434830 0.174000 0.557310 -0.554314
O4    O     O_R   0.565170 0.674000 0.442690 -0.554321
C1    C     C_R   0.418252 0.344240 0.581249 1.005992
C2    C     C_R   0.581748 0.844241 0.418751 1.005994
O5    O     O_R   0.441680 0.176440 0.414130 -0.572552
O6    O     O_R   0.558320 0.676440 0.585870 -0.572565
O7    O     O_R   0.558020 0.007570 0.440520 -0.558158
O8    O     O_R   0.441980 0.507570 0.559480 -0.558168
C3    C     C_R   0.426804 0.345077 0.389519 0.956220
C4    C     C_R   0.573196 0.845078 0.610480 0.956212
O9    O     O_3   0.538160 0.339670 0.508820 -0.267469
O10   O     O_3   0.461840 0.839670 0.491180 -0.267476
V1    V     V_3+5 0.492920 0.064260 0.498360 1.234175
V2    V     V_3+5 0.507080 0.564260 0.501640 1.234163
C5    C     C_R   0.880811 0.982761 0.691585 -0.121775
C6    C     C_R   0.119190 0.482776 0.308414 -0.121777
H1    H     H_    0.967243 0.008837 0.756381 0.113019
H2    H     H_    0.032758 0.508852 0.243618 0.113019
H3    H     H_    0.806168 0.970601 0.574440 0.175205
H4    H     H_    0.193832 0.470610 0.425559 0.175212
H5    H     H_    0.904399 0.010785 0.641965 0.122168
H6    H     H_    0.095602 0.510805 0.358034 0.122169
C7    C     C_R   0.888238 0.943111 0.821304 -0.085322
C8    C     C_R   0.111762 0.443113 0.178696 -0.085323
C9    C     C_R   0.583886 0.822269 0.742406 -0.163335
C10   C     C_R   0.416114 0.322266 0.257594 -0.163338
C11   C     C_R   0.617263 0.824033 0.809043 -0.088548
C12   C     C_R   0.382736 0.324031 0.190957 -0.088546
C13   C     C_R   0.682406 0.854145 0.813542 -0.138920
C14   C     C_R   0.317593 0.354146 0.186458 -0.138921
C15   C     C_R   0.716683 0.883097 0.750736 0.073654
C16   C     C_R   0.283317 0.383097 0.249265 0.073652
C17   C     C_R   0.682200 0.881744 0.681292 -0.076444
C18   C     C_R   0.317799 0.381742 0.318708 -0.076437
C19   C     C_R   0.784190 0.913329 0.755019 0.090888
C20   C     C_R   0.215810 0.413332 0.244980 0.090889
C21   C     C_R   0.815313 0.948881 0.690243 0.106607
C22   C     C_R   0.184687 0.448891 0.309757 0.106607
C23   C     C_R   0.781513 0.947925 0.623824 -0.288758
C24   C     C_R   0.218488 0.447933 0.376175 -0.288762
C25   C     C_R   0.716799 0.910947 0.618398 0.336156
C26   C     C_R   0.283201 0.410945 0.381603 0.336150
C27   C     C_R   0.822456 0.909501 0.820959 -0.226942
C28   C     C_R   0.177544 0.409500 0.179041 -0.226944
C29   C     C_R   0.916787 0.980974 0.756568 -0.160215
C30   C     C_R   0.083213 0.480986 0.243431 -0.160214
C31   C     C_R   0.614654 0.851423 0.678106 -0.148648
C32   C     C_R   0.385345 0.351421 0.321894 -0.148645
H7    H     H_    0.802975 0.881836 0.872653 0.096890
H8    H     H_    0.197024 0.381828 0.127347 0.096892
H9    H     H_    0.533118 0.798340 0.741003 0.096678
H10   H     H_    0.466882 0.298337 0.258997 0.096677
H11   H     H_    0.704510 0.854998 0.867364 0.103074
H12   H     H_    0.295490 0.355001 0.132636 0.103074
H13   H     H_    0.592237 0.802027 0.858055 0.109061
H14   H     H_    0.407762 0.302025 0.141945 0.109061
C33   C     C_1   0.864156 0.938943 0.131623 -0.310935
C34   C     C_1   0.135844 0.438943 0.868377 -0.310935
C35   C     C_1   0.820997 0.924752 0.174985 0.058909
C36   C     C_1   0.179003 0.424752 0.825015 0.058909
C37   C     C_1   0.770044 0.905405 0.226583 -0.001104
C38   C     C_1   0.229956 0.405404 0.773417 -0.001104
C39   C     C_1   0.727159 0.888577 0.270157 0.001702
C40   C     C_1   0.272841 0.388577 0.729843 0.001702
C41   C     C_1   0.676325 0.869286 0.321899 0.077171
C42   C     C_1   0.323675 0.369285 0.678101 0.077177
C43   C     C_1   0.633466 0.855246 0.365639 -0.188671
C44   C     C_1   0.366534 0.355244 0.634362 -0.188673
O11   O     O_R   0.058070 0.289240 0.940580 -0.564849
O12   O     O_R   0.941930 0.789240 0.059420 -0.564849
O13   O     O_R   0.058330 0.616740 0.085880 -0.583391
O14   O     O_R   0.941670 0.116740 0.914120 -0.583391
C45   C     C_R   0.072226 0.448738 0.110864 0.899989
C46   C     C_R   0.927773 0.948738 0.889136 0.899991
O15   O     O_R   0.065180 0.619040 0.942700 -0.566633
O16   O     O_R   0.934820 0.119040 0.057300 -0.566633
O17   O     O_R   0.948870 0.787780 0.915270 -0.580734
O18   O     O_R   0.051130 0.287780 0.084730 -0.580734
C47   C     C_R   0.083291 0.450342 0.920324 0.936197
C48   C     C_R   0.916709 0.950342 0.079676 0.936197
O19   O     O_3   0.961870 0.453310 0.991210 -0.275600
O20   O     O_3   0.038130 0.953310 0.008790 -0.275601
V3    V     V_3+5 0.007070 0.728770 0.001630 1.157593
V4    V     V_3+5 0.992930 0.228770 0.998370 1.157592
N1    N     N_R   0.688771 0.893105 0.547161 0.198145
O21   O     O_R   0.686863 0.729157 0.518285 -0.424598
O22   O     O_R   0.687627 0.037260 0.505031 -0.415406
N2    N     N_R   0.311227 0.393083 0.452839 0.198149
O23   O     O_R   0.312352 0.537207 0.494984 -0.415424
O24   O     O_R   0.313151 0.229117 0.481698 -0.424589

loop_
_geom_bond_atom_site_label_1
_geom_bond_atom_site_label_2
_geom_bond_distance
_ccdc_geom_bond_type
C2    C43   1.506199 S    
C40   C42   1.479111 S    
N1    O21   1.300448 A    
C37   C39   1.247242 T    
C9    C11   1.386782 A    
C23   C25   1.390123 A    
O1    C3    1.334492 A    
C46   O17   1.328803 A    
O2    C4    1.334492 A    
C2    O7    1.352583 A    
O12   V3    1.835609 S    
O3    V1    1.858605 S    
C21   C23   1.387421 A    
C26   N2    1.420832 S    
O5    C3    1.334001 A    
C5    H5    1.084124 S    
O14   C46   1.327736 A    
C6    H6    1.084121 S    
H1    C29   1.083773 S    
C27   H7    1.077374 S    
C28   H8    1.077372 S    
C34   C36   1.247242 T    
C5    C21   1.402632 A    
C35   C37   1.479248 S    
C6    C22   1.402632 A    
C36   C38   1.479248 S    
C10   C32   1.398251 A    
C39   C41   1.479111 S    
C17   C31   1.440327 A    
O18   V4    2.008972 S    
C33   C48   1.505137 S    
C12   C14   1.390063 A    
C17   C25   1.419001 A    
C45   O18   1.328804 A    
C7    C29   1.393218 A    
C8    C30   1.393218 A    
O16   V4    1.858634 S    
O5    V1    2.019291 S    
O15   V3    1.858636 S    
O6    V2    2.019291 S    
O13   C45   1.327736 A    
C24   C26   1.390122 A    
C4    C31   1.488848 S    
C33   C35   1.247244 T    
O20   V3    1.754375 S    
O4    C2    1.360496 A    
C10   H10   1.084182 S    
C15   C19   1.439381 A    
C41   C43   1.247112 T    
C14   C16   1.413587 A    
O4    V2    1.858605 S    
C1    C44   1.506202 S    
O11   V4    1.835607 S    
C34   C47   1.505138 S    
O16   C48   1.350146 A    
N2    O24   1.300441 A    
O15   C47   1.350146 A    
O6    C4    1.334002 A    
C13   C15   1.413587 A    
C8    C45   1.470116 S    
O1    V2    2.007450 S    
O14   V4    2.019340 S    
O2    V1    2.007454 S    
O13   V3    2.019337 S    
H2    C30   1.083772 S    
H3    C23   1.085336 S    
C42   C44   1.247112 T    
C11   H13   1.082787 S    
N1    O22   1.300851 A    
C18   C26   1.419004 A    
C19   C27   1.426986 A    
C7    C27   1.408923 A    
O17   V3    2.008978 S    
C18   C32   1.440328 A    
C16   C20   1.439379 A    
C5    C29   1.387306 A    
O3    C1    1.360496 A    
C6    C30   1.387307 A    
C9    H9    1.084181 S    
C7    C46   1.470115 S    
C25   N1    1.420829 S    
C10   C12   1.386780 A    
O7    V1    1.829199 S    
C1    O8    1.352583 A    
C11   C13   1.390064 A    
C3    C32   1.488849 S    
O8    V2    1.829195 S    
C20   C22   1.417397 A    
N2    O23   1.300843 A    
H4    C24   1.085337 S    
C12   H14   1.082789 S    
C22   C24   1.387422 A    
C15   C17   1.442227 A    
C16   C18   1.442227 A    
C20   C28   1.426988 A    
C8    C28   1.408922 A    
O19   V4    1.754380 S    
C19   C21   1.417397 A    
O9    V2    1.754891 S    
O10   V1    1.754888 S    
C13   H11   1.076485 S    
C14   H12   1.076485 S    
O12   C48   1.342488 A    
C9    C31   1.398251 A    
C38   C40   1.247243 T    
O11   C47   1.342488 A    
