data_mof_unit_16336.cif
_audit_creation_date              2012-12-11T15:09:41-0500
_audit_creation_method            fapswitch 2.2
_symmetry_space_group_name_H-M    P1
_symmetry_Int_Tables_number       1
_space_group_crystal_system       monoclinic
_cell_length_a                    20.991095
_cell_length_b                    7.131651
_cell_length_c                    14.026276
_cell_angle_alpha                 90.0
_cell_angle_beta                  98.442549
_cell_angle_gamma                 90.0
_cell_volume                      2076.99605928

loop_
_atom_site_label
_atom_site_type_symbol
_atom_type_description
_atom_site_fract_x
_atom_site_fract_y
_atom_site_fract_z
_atom_type_partial_charge
O1    O     O_R   0.447130 0.507140 0.597350 -0.536925
O2    O     O_R   0.552870 0.007140 0.402650 -0.536925
O3    O     O_R   0.578910 0.181280 0.586990 -0.539161
O4    O     O_R   0.421090 0.681280 0.413010 -0.539161
C1    C     C_R   0.604468 0.344451 0.607415 0.725031
C2    C     C_R   0.395532 0.844451 0.392585 0.725031
O5    O     O_R   0.449230 0.177860 0.608640 -0.540070
O6    O     O_R   0.550770 0.677860 0.391360 -0.540071
O7    O     O_R   0.422260 0.000770 0.424450 -0.534257
O8    O     O_R   0.577740 0.500770 0.575550 -0.534258
C3    C     C_R   0.433303 0.346051 0.634800 0.698530
C4    C     C_R   0.566697 0.846051 0.365200 0.698531
O9    O     O_3   0.491310 0.336980 0.439550 -0.374639
O10   O     O_3   0.508690 0.836980 0.560450 -0.374639
V1    V     V_3+5 0.501610 0.064760 0.511210 1.458243
V2    V     V_3+5 0.498390 0.564760 0.488790 1.458243
C5    C     C_R   0.611440 0.824075 0.116391 -0.003860
C6    C     C_R   0.388560 0.324073 0.883609 -0.003859
H1    H     H_    0.523120 0.815324 0.178373 0.144958
H2    H     H_    0.476880 0.315321 0.821627 0.144957
H3    H     H_    0.696143 0.809174 0.990000 0.143098
H4    H     H_    0.303857 0.309173 0.010000 0.143098
C7    C     C_R   0.604905 0.851871 0.286719 -0.073613
C8    C     C_R   0.395095 0.351871 0.713281 -0.073613
C9    C     C_R   0.915504 0.866024 0.299029 -0.234642
C10   C     C_R   0.084496 0.366025 0.700971 -0.234642
C11   C     C_R   0.878997 0.858985 0.373690 0.039609
C12   C     C_R   0.121003 0.358987 0.626309 0.039609
C13   C     C_R   0.811947 0.852081 0.352137 -0.142119
C14   C     C_R   0.188053 0.352082 0.647863 -0.142119
C15   C     C_R   0.779739 0.855205 0.255670 0.052345
C16   C     C_R   0.220261 0.355206 0.744329 0.052344
C17   C     C_R   0.817604 0.856344 0.178621 -0.010101
C18   C     C_R   0.182395 0.356344 0.821379 -0.010101
C19   C     C_R   0.710855 0.853184 0.234559 0.090625
C20   C     C_R   0.289144 0.353185 0.765441 0.090625
C21   C     C_R   0.680022 0.834845 0.137521 0.017013
C22   C     C_R   0.319978 0.334844 0.862479 0.017014
C23   C     C_R   0.718129 0.826052 0.063988 -0.188912
C24   C     C_R   0.281871 0.326051 0.936012 -0.188913
C25   C     C_R   0.784977 0.844881 0.081718 -0.050936
C26   C     C_R   0.215023 0.344880 0.918282 -0.050936
C27   C     C_R   0.671402 0.868834 0.307592 -0.207011
C28   C     C_R   0.328598 0.368835 0.692408 -0.207011
C29   C     C_R   0.575164 0.827378 0.192433 -0.122427
C30   C     C_R   0.424836 0.327376 0.807567 -0.122427
C31   C     C_R   0.886347 0.862579 0.202961 -0.070230
C32   C     C_R   0.113653 0.362579 0.797039 -0.070230
H5    H     H_    0.690343 0.893713 0.382058 0.104804
H6    H     H_    0.309657 0.393715 0.617942 0.104805
H7    H     H_    0.967630 0.871750 0.315797 0.107643
H8    H     H_    0.032370 0.371751 0.684203 0.107643
H9    H     H_    0.786399 0.839158 0.412821 0.151187
H10   H     H_    0.213601 0.339159 0.587179 0.151187
C33   C     C_1   0.166505 0.856765 0.168477 -0.112975
C34   C     C_1   0.833495 0.356765 0.831523 -0.112975
C35   C     C_1   0.218926 0.854408 0.219558 0.067247
C36   C     C_1   0.781074 0.354408 0.780442 0.067248
C37   C     C_1   0.280706 0.853100 0.279500 0.031039
C38   C     C_1   0.719293 0.353100 0.720500 0.031039
C39   C     C_1   0.333104 0.850932 0.330665 -0.178951
C40   C     C_1   0.666896 0.350932 0.669335 -0.178951
O11   O     O_R   0.922300 0.202240 0.924350 -0.549239
O12   O     O_R   0.077700 0.702240 0.075650 -0.549239
O13   O     O_R   0.050780 0.535130 0.891350 -0.549998
O14   O     O_R   0.949220 0.035130 0.108650 -0.549998
C41   C     C_R   0.069490 0.368563 0.868271 0.666064
C42   C     C_R   0.930510 0.868563 0.131729 0.666064
O15   O     O_R   0.921100 0.531560 0.912990 -0.513374
O16   O     O_R   0.078900 0.031560 0.087010 -0.513374
O17   O     O_R   0.947120 0.708470 0.097370 -0.534525
O18   O     O_R   0.052880 0.208470 0.902630 -0.534525
C43   C     C_R   0.895932 0.363503 0.893363 0.720690
C44   C     C_R   0.104068 0.863503 0.106637 0.720690
O19   O     O_3   0.008710 0.375800 0.060400 -0.374627
O20   O     O_3   0.991290 0.875800 0.939600 -0.374627
V3    V     V_3+5 0.998380 0.648080 0.988790 1.483276
V4    V     V_3+5 0.001620 0.148080 0.011210 1.483276
C45   C     C_2   0.575689 0.812799 0.016513 0.439809
H11   H     H_    0.596297 0.864043 0.955161 0.035842
O21   O     O_2   0.521137 0.748860 0.001584 -0.517917
C46   C     C_2   0.424311 0.312795 0.983487 0.439808
H12   H     H_    0.403703 0.364038 0.044839 0.035843
O22   O     O_2   0.478862 0.248854 0.998416 -0.517917
C47   C     C_2   0.912056 0.857633 0.474552 0.363629
H13   H     H_    0.964288 0.861842 0.489230 0.045951
O23   O     O_2   0.881663 0.852023 0.542367 -0.527114
C48   C     C_2   0.087944 0.357635 0.525448 0.363630
H14   H     H_    0.035712 0.361844 0.510770 0.045951
O24   O     O_2   0.118337 0.352025 0.457633 -0.527114
C49   C     C_2   0.816661 0.858035 0.994289 0.365283
H15   H     H_    0.851223 0.966973 0.987537 0.065547
O25   O     O_2   0.801454 0.752482 0.926212 -0.529840
C50   C     C_2   0.183338 0.358035 0.005711 0.365283
H16   H     H_    0.148777 0.466973 0.012463 0.065546
O26   O     O_2   0.198546 0.252481 0.073788 -0.529840

loop_
_geom_bond_atom_site_label_1
_geom_bond_atom_site_label_2
_ccdc_geom_bond_type
O14   C42   A    
C7    C29   A    
C11   C13   A    
O12   V3    S    
O15   V3    S    
O1    C3    A    
O2    C4    A    
C2    O7    A    
C23   C25   A    
C47   H13   S    
O5    C3    A    
C14   H10   S    
C4    C7    S    
C16   C20   A    
C2    C39   S    
C19   C21   A    
C5    C29   A    
C35   C37   S    
O16   V4    S    
C36   C38   S    
C3    C8    S    
C5    C45   S    
C7    C27   A    
C38   C40   T    
C41   O18   A    
C11   C47   S    
O18   V4    S    
C33   C44   S    
O13   C41   A    
C18   C26   A    
O16   C44   A    
C15   C17   A    
O15   C43   A    
C19   C27   A    
C9    C31   A    
C10   C32   A    
C24   C26   A    
O6    V2    S    
C22   C24   A    
C6    C30   A    
C47   O23   D    
O14   V4    S    
C37   C39   T    
O13   V3    S    
O20   V3    S    
O4    C2    A    
C49   H15   S    
C45   O21   D    
C27   H5    S    
O5    V1    S    
O11   C43   A    
C16   C18   A    
O4    V2    S    
C9    H7    S    
C12   C48   S    
C10   H8    S    
C49   O25   D    
H3    C23   S    
O6    C4    A    
H4    C24   S    
O1    V2    S    
C5    C21   A    
C50   O26   D    
O2    V1    S    
O19   V3    S    
C25   C49   S    
C48   O24   D    
C46   O22   D    
C33   C35   T    
C17   C31   A    
C15   C19   A    
C20   C28   A    
C18   C32   A    
C31   C42   S    
O17   V3    S    
O3    V1    S    
C28   H6    S    
C34   C43   S    
C26   C50   S    
O20   V4    S    
O3    C1    A    
H1    C29   S    
C9    C11   A    
C10   C12   A    
C8    C30   A    
C12   C14   A    
C6    C22   A    
C17   C25   A    
C1    O8    A    
C21   C23   A    
O8    V2    S    
C14   C16   A    
C13   H9    S    
C42   O17   A    
C8    C28   A    
C20   C22   A    
C6    C46   S    
C34   C36   T    
C1    C40   S    
C32   C41   S    
O7    V1    S    
C50   H16   S    
O19   V4    S    
C45   H11   S    
C48   H14   S    
C13   C15   A    
C46   H12   S    
O9    V2    S    
O12   C44   A    
O10   V1    S    
H2    C30   S    
O11   V4    S    
