data_mof_unit_13880.cif
_audit_creation_date              2012-12-11T14:44:02-0500
_audit_creation_method            fapswitch 2.2
_symmetry_space_group_name_H-M    P1
_symmetry_Int_Tables_number       1
_space_group_crystal_system       triclinic
_cell_length_a                    19.184399
_cell_length_b                    10.857782
_cell_length_c                    18.823233
_cell_angle_alpha                 89.628399
_cell_angle_beta                  89.295402
_cell_angle_gamma                 89.906038
_cell_volume                      3920.49614781

loop_
_atom_site_label
_atom_site_type_symbol
_atom_type_description
_atom_site_fract_x
_atom_site_fract_y
_atom_site_fract_z
_atom_type_partial_charge
C1    C     C_R   0.728279 0.372906 0.144337 0.561476
C2    C     C_R   0.270935 0.375065 0.855006 0.542890
C3    C     C_R   0.231868 0.881011 0.147197 0.575368
C4    C     C_R   0.769904 0.874377 0.854832 0.554160
C5    C     C_R   0.508735 0.412771 0.926365 0.229064
C6    C     C_R   0.495709 0.411011 0.077352 0.217972
C7    C     C_R   0.980569 0.900134 0.925909 0.312598
C8    C     C_R   0.970740 0.895265 0.069573 0.219588
C9    C     C_R   0.940515 0.991189 0.959827 0.157457
C10   C     C_R   0.927446 0.978529 0.033433 0.101885
C11   C     C_R   0.508419 0.521793 0.966293 0.110537
C12   C     C_R   0.511938 0.518845 0.039579 0.062248
C13   C     C_R   0.727316 0.833564 0.047696 -0.117071
C14   C     C_R   0.315494 0.906848 0.966137 -0.123233
C15   C     C_R   0.190743 0.385035 0.037685 -0.121696
C16   C     C_R   0.813031 0.430828 0.967665 -0.115205
C17   C     C_R   0.728867 0.809615 0.975307 0.074632
C18   C     C_R   0.309224 0.876007 0.038085 0.076258
C19   C     C_R   0.194091 0.376663 0.963595 0.070906
C20   C     C_R   0.806171 0.416146 0.041089 0.069946
C21   C     C_R   0.748479 0.904750 0.926914 0.052739
C22   C     C_R   0.259198 0.937288 0.080851 0.077299
C23   C     C_R   0.257203 0.405789 0.928731 0.059711
C24   C     C_R   0.739909 0.392163 0.069413 0.050951
C25   C     C_R   0.755494 0.025014 0.950650 -0.162262
C26   C     C_R   0.225741 0.041724 0.053250 -0.089888
C27   C     C_R   0.314818 0.444325 0.967967 -0.174060
C28   C     C_R   0.683320 0.370584 0.024674 -0.183149
C29   C     C_R   0.752373 0.047997 0.022878 -0.113811
C30   C     C_R   0.228775 0.066067 0.980730 -0.090763
C31   C     C_R   0.311282 0.449828 0.040158 -0.144187
C32   C     C_R   0.690639 0.384053 0.952106 -0.151254
C33   C     C_R   0.742934 0.950431 0.071171 0.033104
C34   C     C_R   0.271369 0.995738 0.936175 0.010445
C35   C     C_R   0.249186 0.424449 0.075713 0.017010
C36   C     C_R   0.754388 0.419957 0.923760 0.012898
C37   C     C_R   0.587015 0.124749 0.488454 -0.137848
C38   C     C_R   0.564748 0.126079 0.559205 -0.112028
C39   C     C_R   0.986684 0.547144 0.458023 -0.130359
C40   C     C_R   0.967925 0.546594 0.528500 -0.135648
C41   C     C_R   0.498060 0.169979 0.576036 0.051792
C42   C     C_R   0.541838 0.162925 0.434741 0.047996
C43   C     C_R   0.952095 0.657026 0.563054 0.009013
C44   C     C_R   0.992648 0.658852 0.420350 0.020416
C45   C     C_R   0.530606 0.157938 0.147213 0.589039
C46   C     C_R   0.467942 0.157583 0.853949 0.578277
C47   C     C_R   0.031769 0.657137 0.146017 0.554279
C48   C     C_R   0.968671 0.656440 0.852506 0.575902
C49   C     C_R   0.454007 0.212997 0.522402 -0.079023
C50   C     C_R   0.475694 0.209140 0.451849 -0.061095
C51   C     C_R   0.950431 0.766962 0.523734 -0.122788
C52   C     C_R   0.970997 0.768392 0.452399 -0.112385
C53   C     C_R   0.808593 0.980121 0.463379 -0.125577
C54   C     C_R   0.191547 0.976868 0.536967 -0.104527
C55   C     C_R   0.311364 0.463044 0.460601 -0.125734
C56   C     C_R   0.688061 0.463278 0.539492 -0.108716
C57   C     C_R   0.808535 0.987179 0.536468 0.223576
C58   C     C_R   0.190350 0.984456 0.464000 0.248930
C59   C     C_R   0.313744 0.474055 0.533314 0.224723
C60   C     C_R   0.684639 0.472076 0.466587 0.231681
C61   C     C_R   0.757260 0.919141 0.575151 0.001056
C62   C     C_R   0.243094 0.921675 0.424311 0.003529
C63   C     C_R   0.258496 0.421518 0.574964 -0.000831
C64   C     C_R   0.740576 0.421518 0.424917 -0.005331
C65   C     C_R   0.702613 0.861589 0.538895 -0.175205
C66   C     C_R   0.301157 0.872990 0.459628 -0.161559
C67   C     C_R   0.197493 0.382572 0.541584 -0.154305
C68   C     C_R   0.802519 0.387076 0.458122 -0.153938
C69   C     C_R   0.699035 0.869513 0.465422 -0.131728
C70   C     C_R   0.305928 0.882716 0.533015 -0.110067
C71   C     C_R   0.191980 0.392228 0.468278 -0.092914
C72   C     C_R   0.808198 0.398125 0.531245 -0.086348
C73   C     C_R   0.752042 0.929064 0.427292 -0.031263
C74   C     C_R   0.250339 0.932704 0.572109 -0.025380
C75   C     C_R   0.249612 0.429841 0.427410 -0.014501
C76   C     C_R   0.750449 0.432676 0.572369 -0.003702
C77   C     C_R   0.739600 0.976746 0.145566 0.552488
C78   C     C_R   0.272437 0.020357 0.859487 0.562759
C79   C     C_R   0.241141 0.469407 0.147554 0.584103
C80   C     C_R   0.759097 0.467753 0.852057 0.592000
C81   C     C_R   0.728235 0.379594 0.352656 0.548230
C82   C     C_R   0.271535 0.380003 0.647407 0.553806
C83   C     C_R   0.228863 0.880083 0.352325 0.555813
C84   C     C_R   0.771140 0.880016 0.647643 0.545445
C85   C     C_R   0.563868 0.152766 0.361037 0.540956
C86   C     C_R   0.469236 0.157910 0.647217 0.553693
C87   C     C_R   0.030075 0.656325 0.352482 0.542577
C88   C     C_R   0.935682 0.652679 0.639072 0.544606
C89   C     C_R   0.741430 0.970676 0.354534 0.550097
C90   C     C_R   0.259125 0.971919 0.645167 0.578739
C91   C     C_R   0.240937 0.471113 0.354621 0.575458
C92   C     C_R   0.759160 0.472117 0.645216 0.566347
C93   C     C_R   0.493735 0.175158 0.927086 0.025155
C94   C     C_R   0.498506 0.176070 0.076860 0.035413
C95   C     C_R   0.998020 0.671354 0.922850 0.035653
C96   C     C_R   0.008741 0.669034 0.071488 0.032316
C97   C     C_R   0.500056 0.293933 0.962646 -0.088442
C98   C     C_R   0.496179 0.293823 0.040213 -0.073660
C99   C     C_R   0.989340 0.783764 0.960516 -0.033626
C100  C     C_R   0.986775 0.780813 0.035923 -0.026418
C101  C     C_R   0.491237 0.067217 0.039320 -0.154078
C102  C     C_R   0.491610 0.066447 0.967006 -0.162679
C103  C     C_R   0.022361 0.563760 0.030788 -0.157117
C104  C     C_R   0.014627 0.563923 0.958839 -0.168151
Cr1   Cr    Cr6+3 0.772000 0.169640 0.250110 1.025363
Cr2   Cr    Cr6+3 0.228000 0.169640 0.749890 1.073197
Cr3   Cr    Cr6+3 0.272000 0.669640 0.250110 1.077127
Cr4   Cr    Cr6+3 0.728000 0.669640 0.749890 1.054127
Cr5   Cr    Cr6+3 0.614960 0.323350 0.249260 1.168493
Cr6   Cr    Cr6+3 0.385040 0.323350 0.750740 1.178200
Cr7   Cr    Cr6+3 0.114960 0.823350 0.249260 1.175369
Cr8   Cr    Cr6+3 0.885040 0.823350 0.750740 1.170323
Cr9   Cr    Cr6+3 0.616670 0.010620 0.250840 1.040524
Cr10  Cr    Cr6+3 0.383330 0.010620 0.749160 1.046208
Cr11  Cr    Cr6+3 0.116670 0.510620 0.250840 1.030428
Cr12  Cr    Cr6+3 0.883330 0.510620 0.749160 1.033514
H1    H     H_    0.490547 0.978403 0.065943 0.144452
H2    H     H_    0.487006 0.976924 0.942333 0.143569
H3    H     H_    0.037345 0.476911 0.054640 0.137565
H4    H     H_    0.017337 0.476769 0.931717 0.129198
H5    H     H_    0.849969 0.026903 0.434507 0.195160
H6    H     H_    0.148548 0.017204 0.566504 0.204066
H7    H     H_    0.355899 0.494160 0.429454 0.199362
H8    H     H_    0.643472 0.492914 0.570893 0.200676
H9    H     H_    0.662776 0.809883 0.567323 0.185532
H10   H     H_    0.342486 0.826609 0.430571 0.184727
H11   H     H_    0.154184 0.345133 0.572178 0.178782
H12   H     H_    0.846351 0.351966 0.427555 0.173479
H13   H     H_    0.653754 0.834017 0.438874 0.213170
H14   H     H_    0.353239 0.853526 0.558876 0.206570
H15   H     H_    0.142435 0.373646 0.443784 0.196268
H16   H     H_    0.857715 0.381335 0.555877 0.192406
H17   H     H_    0.714753 0.761274 0.085758 0.124216
H18   H     H_    0.352406 0.856279 0.933456 0.136522
H19   H     H_    0.142179 0.365198 0.065159 0.119940
H20   H     H_    0.863020 0.458414 0.945439 0.139117
H21   H     H_    0.765106 0.099769 0.913474 0.125500
H22   H     H_    0.190736 0.095707 0.086146 0.163186
H23   H     H_    0.364373 0.467388 0.943395 0.154939
H24   H     H_    0.633460 0.342529 0.046243 0.135090
H25   H     H_    0.759342 0.141145 0.041376 0.148434
H26   H     H_    0.195815 0.136357 0.958896 0.203934
H27   H     H_    0.356433 0.482087 0.067288 0.210276
H28   H     H_    0.646632 0.370259 0.918413 0.192365
H29   H     H_    0.639019 0.093301 0.475394 0.112715
H30   H     H_    0.598842 0.091970 0.600383 0.133336
H31   H     H_    0.001103 0.459507 0.434831 0.165113
H32   H     H_    0.968628 0.459008 0.556270 0.164984
H33   H     H_    0.401672 0.244384 0.534996 0.119907
H34   H     H_    0.440526 0.239404 0.410619 0.149800
H35   H     H_    0.934751 0.851112 0.548302 0.195762
H36   H     H_    0.971236 0.854191 0.423122 0.184963
O1    O     O_R   0.787540 0.042690 0.170470 -0.510675
O2    O     O_R   0.212460 0.042690 0.829530 -0.423390
O3    O     O_R   0.287540 0.542690 0.170470 -0.440797
O4    O     O_R   0.712460 0.542690 0.829530 -0.435045
O5    O     O_R   0.556540 0.252920 0.323970 -0.423247
O6    O     O_R   0.443460 0.252920 0.676030 -0.435118
O7    O     O_R   0.056540 0.752920 0.323970 -0.471213
O8    O     O_R   0.943460 0.752920 0.676030 -0.443502
O9    O     O_R   0.545870 0.051100 0.330840 -0.507227
O10   O     O_R   0.454130 0.051100 0.669160 -0.522015
O11   O     O_R   0.045870 0.551100 0.330840 -0.534750
O12   O     O_R   0.954130 0.551100 0.669160 -0.513939
O13   O     O_R   0.681340 0.959300 0.325510 -0.509765
O14   O     O_R   0.318660 0.959300 0.674490 -0.492750
O15   O     O_R   0.181340 0.459300 0.325510 -0.501530
O16   O     O_R   0.818660 0.459300 0.674490 -0.524911
O17   O     O_3   0.667880 0.167870 0.250070 -0.308906
O18   O     O_3   0.332120 0.167870 0.749930 -0.321968
O19   O     O_3   0.167880 0.667870 0.250070 -0.286625
O20   O     O_3   0.832120 0.667870 0.749930 -0.306872
O21   O     O_R   0.765660 0.292160 0.175050 -0.505629
O22   O     O_R   0.234340 0.292160 0.824950 -0.504727
O23   O     O_R   0.265660 0.792160 0.175050 -0.472319
O24   O     O_R   0.734340 0.792160 0.824950 -0.486774
O25   O     O_R   0.670190 0.408980 0.168550 -0.509352
O26   O     O_R   0.329810 0.408980 0.831450 -0.496818
O27   O     O_R   0.170190 0.908980 0.168550 -0.424673
O28   O     O_R   0.829810 0.908980 0.831450 -0.493087
O29   O     O_R   0.556580 0.251450 0.175160 -0.439227
O30   O     O_R   0.443420 0.251450 0.824840 -0.434140
O31   O     O_R   0.056580 0.751450 0.175160 -0.431266
O32   O     O_R   0.943420 0.751450 0.824840 -0.457828
O33   O     O_R   0.545920 0.049510 0.170320 -0.525017
O34   O     O_R   0.454080 0.049510 0.829680 -0.539843
O35   O     O_R   0.045920 0.549510 0.170320 -0.534324
O36   O     O_R   0.954080 0.549510 0.829680 -0.531823
O37   O     O_R   0.681390 0.957840 0.176710 -0.502909
O38   O     O_R   0.318610 0.957840 0.823290 -0.501608
O39   O     O_R   0.181390 0.457840 0.176710 -0.521099
O40   O     O_R   0.818610 0.457840 0.823290 -0.518625
O41   O     O_R   0.787500 0.044280 0.330990 -0.515669
O42   O     O_R   0.212500 0.044280 0.669010 -0.500176
O43   O     O_R   0.287500 0.544280 0.330990 -0.512204
O44   O     O_R   0.712500 0.544280 0.669010 -0.516412
O45   O     O_R   0.765610 0.293630 0.323860 -0.514408
O46   O     O_R   0.234390 0.293630 0.676140 -0.519413
O47   O     O_R   0.265610 0.793630 0.323860 -0.525636
O48   O     O_R   0.734390 0.793630 0.676140 -0.526499
O49   O     O_R   0.670140 0.410570 0.329080 -0.420470
O50   O     O_R   0.329860 0.410570 0.670920 -0.415741
O51   O     O_R   0.170140 0.910570 0.329080 -0.422142
O52   O     O_R   0.829860 0.910570 0.670920 -0.440048
S1    S     S_3+6 0.867571 0.095436 0.574749 0.001056
O53   O     O_2   0.927481 0.034239 0.611753 -0.248371
O54   O     O_2   0.897783 0.177517 0.517767 -0.315917
O55   O     O_3   0.822944 0.180000 0.634471 -0.529582
H37   H     H_    0.858856 0.215958 0.665458 0.370825
S2    S     S_3+6 0.124159 0.080714 0.427305 0.014113
O56   O     O_2   0.065335 0.003489 0.400631 -0.266001
O57   O     O_2   0.095319 0.166201 0.482872 -0.312337
O58   O     O_3   0.158051 0.163766 0.359528 -0.524197
H38   H     H_    0.117937 0.208719 0.339146 0.362426
S3    S     S_3+6 0.384806 0.561878 0.566626 0.033604
O59   O     O_2   0.442524 0.477024 0.589110 -0.231644
O60   O     O_2   0.412708 0.647049 0.509813 -0.285973
O61   O     O_3   0.357979 0.646198 0.636543 -0.512738
H39   H     H_    0.400685 0.686382 0.654161 0.365887
S4    S     S_3+6 0.610929 0.554141 0.433322 0.033318
O62   O     O_2   0.555033 0.464344 0.413660 -0.231355
O63   O     O_2   0.582059 0.638907 0.489312 -0.284039
O64   O     O_3   0.633888 0.638612 0.361499 -0.523832
H40   H     H_    0.589870 0.676121 0.344818 0.364660
S5    S     S_3+6 0.534183 0.440285 0.834858 0.026333
O65   O     O_2   0.573351 0.333026 0.803618 -0.314436
O66   O     O_2   0.470946 0.469404 0.791494 -0.229902
O67   O     O_3   0.584420 0.565983 0.828153 -0.505365
H41   H     H_    0.584227 0.588951 0.777106 0.368617
S6    S     S_3+6 0.461678 0.438298 0.165845 -0.006359
O68   O     O_2   0.415702 0.334151 0.190589 -0.287755
O69   O     O_2   0.519824 0.457255 0.217399 -0.251224
O70   O     O_3   0.416089 0.570092 0.167884 -0.549077
H42   H     H_    0.414644 0.594828 0.218470 0.373509
S7    S     S_3+6 0.036713 0.947819 0.855009 0.089494
O71   O     O_2   0.089419 0.849891 0.837102 -0.251097
O72   O     O_2   0.994456 0.978023 0.790373 -0.254813
O73   O     O_3   0.078535 0.075536 0.880987 -0.484319
H43   H     H_    0.077358 0.132495 0.839716 0.363467
S8    S     S_3+6 0.043793 0.981101 0.092948 -0.002434
O74   O     O_2   0.046701 0.990533 0.172506 -0.283396
O75   O     O_2   0.104041 0.912568 0.060688 -0.265543
O76   O     O_3   0.044229 0.124664 0.058268 -0.573335
H44   H     H_    0.070430 0.175339 0.092329 0.340436
N1    N     N_3   0.927240 0.105316 0.923280 -0.559912
H45   H     H_    0.877506 0.136883 0.936288 0.222004
H46   H     H_    0.962456 0.171037 0.941397 0.263091
N2    N     N_3   0.894880 0.077628 0.072112 -0.609074
H47   H     H_    0.916333 0.161800 0.056272 0.244450
H48   H     H_    0.906221 0.069168 0.126109 0.278503
N3    N     N_3   0.501837 0.639598 0.931570 -0.531727
H49   H     H_    0.456270 0.681952 0.950306 0.206851
H50   H     H_    0.543990 0.695273 0.944892 0.257080
N4    N     N_3   0.535783 0.628093 0.074580 -0.642875
H51   H     H_    0.570721 0.604430 0.114615 0.277284
H52   H     H_    0.494099 0.678070 0.095368 0.280664
N5    N     N_3   0.711868 0.688725 0.951360 -0.580221
H53   H     H_    0.703165 0.629979 0.994710 0.234092
H54   H     H_    0.663969 0.695608 0.925939 0.276680
N6    N     N_3   0.351835 0.779595 0.066224 -0.567167
H55   H     H_    0.343786 0.700822 0.035901 0.237606
H56   H     H_    0.403761 0.806014 0.059003 0.208787
N7    N     N_3   0.135112 0.335368 0.924091 -0.607630
H57   H     H_    0.093041 0.315795 0.958098 0.241516
H58   H     H_    0.120489 0.406873 0.889981 0.239810
N8    N     N_3   0.864646 0.432178 0.086952 -0.618291
H59   H     H_    0.875551 0.347247 0.110655 0.246263
H60   H     H_    0.908632 0.453051 0.056515 0.222252

loop_
_geom_bond_atom_site_label_1
_geom_bond_atom_site_label_2
_ccdc_geom_bond_type
C58   C62   A    
Cr1   O1    S    
C62   C83   S    
C101  C102  A    
C56   C76   A    
C48   C95   S    
C55   C59   A    
C5    S5    S    
C85   O9    A    
Cr3   O3    S    
C14   C18   A    
C19   C23   A    
O64   H40   S    
C78   O38   A    
C72   C76   A    
C45   O33   A    
C49   C50   A    
S6    O69   D    
Cr3   O43   S    
C97   C98   A    
C45   O29   A    
N7    H57   S    
Cr8   O32   S    
C94   C98   A    
Cr3   O19   S    
S1    O53   D    
C56   H8    S    
C15   C19   A    
C41   C86   S    
Cr12  O36   S    
C1    O21   A    
N4    H51   S    
C57   C61   A    
C7    C99   A    
Cr10  O38   S    
C43   C88   S    
C64   C68   A    
C91   O15   A    
S5    O65   D    
C5    C11   A    
S3    O60   D    
C81   O45   A    
Cr9   O33   S    
C95   C99   A    
Cr10  O10   S    
C15   H19   S    
Cr6   O26   S    
C59   S3    S    
Cr5   O29   S    
O76   H44   S    
C39   H31   S    
C57   S1    S    
C70   H14   S    
S5    O67   S    
Cr11  O35   S    
Cr12  O20   S    
S6    O70   S    
C7    C9    A    
N5    H53   S    
C4    O24   A    
C41   C49   A    
C37   C42   A    
C33   C77   S    
C3    O27   A    
C53   C73   A    
C38   H30   S    
N4    H52   S    
Cr1   O21   S    
C77   O1    A    
C54   C74   A    
C1    O25   A    
C40   C43   A    
C72   H16   S    
C20   C24   A    
C29   C33   A    
N2    H48   S    
O55   H37   S    
Cr2   O2    S    
C60   S4    S    
C28   H24   S    
Cr6   O50   S    
C70   C74   A    
S7    O71   D    
C80   O4    A    
C86   O10   A    
C23   C27   A    
Cr4   O44   S    
C44   C87   S    
C9    N1    S    
O70   H42   S    
C68   H12   S    
C18   N6    S    
Cr6   O6    S    
C75   C91   S    
Cr2   O46   S    
Cr11  O39   S    
C44   C52   A    
Cr1   O45   S    
Cr12  O40   S    
C69   H13   S    
Cr5   O5    S    
C79   O39   A    
N1    H45   S    
C90   O14   A    
Cr7   O27   S    
S8    O75   D    
Cr2   O18   S    
Cr4   O24   S    
C85   O5    A    
C71   H15   S    
C4    O28   A    
C45   C94   S    
C6    C12   A    
C15   C35   A    
S4    O62   D    
Cr5   O17   S    
Cr10  O14   S    
C55   H7    S    
C58   S2    S    
C25   C29   A    
C29   H25   S    
C7    S7    S    
C71   C75   A    
C12   N4    S    
C30   C34   A    
C63   C82   S    
C27   C31   A    
C51   C52   A    
C28   C32   A    
C83   O47   A    
C94   C101  A    
C38   C41   A    
N3    H49   S    
C36   C80   S    
S3    O61   S    
C20   N8    S    
C39   C40   A    
C82   O50   A    
C62   C66   A    
C78   O2    A    
C81   O49   A    
C14   H18   S    
O67   H41   S    
C92   O44   A    
C34   C78   S    
C88   O12   A    
Cr9   O9    S    
S8    O76   S    
C27   H23   S    
C56   C60   A    
C68   C72   A    
N5    H54   S    
C65   H9    S    
Cr4   O48   S    
C25   H21   S    
S3    O59   D    
C51   H35   S    
C63   C67   A    
C13   C33   A    
C37   C38   A    
C67   H11   S    
C91   O43   A    
C50   H34   S    
C93   C97   A    
C99   C100  A    
Cr4   O4    S    
O58   H38   S    
C16   C20   A    
C89   O41   A    
N6    H56   S    
Cr7   O31   S    
Cr2   O42   S    
Cr2   O22   S    
C48   O36   A    
C46   O34   A    
C88   O8    A    
C69   C73   A    
C86   O6    A    
C47   O31   A    
C89   O13   A    
C8    S8    S    
Cr1   O17   S    
Cr7   O7    S    
C76   C92   S    
C6    S6    S    
Cr6   O18   S    
C83   O51   A    
C42   C50   A    
C26   C30   A    
S2    O57   D    
N1    H46   S    
S7    O72   D    
S7    O73   S    
C31   C35   A    
Cr11  O19   S    
C10   N2    S    
Cr8   O52   S    
Cr7   O51   S    
C16   H20   S    
C6    C98   A    
C103  C104  A    
C47   O35   A    
N2    H47   S    
C48   O32   A    
C54   C58   A    
S1    O55   S    
C3    O23   A    
C90   O42   A    
Cr10  O18   S    
C21   C25   A    
O73   H43   S    
C101  H1    S    
C40   H32   S    
C53   C57   A    
Cr8   O8    S    
C18   C22   A    
Cr3   O47   S    
C13   H17   S    
Cr12  O12   S    
C103  H3    S    
C24   C28   A    
Cr11  O15   S    
C5    C97   A    
N6    H55   S    
C26   H22   S    
C61   C84   S    
C102  H2    S    
C93   C102  A    
C14   C34   A    
Cr9   O17   S    
C11   C12   A    
C32   C36   A    
C82   O46   A    
C39   C44   A    
C49   H33   S    
C73   C89   S    
S2    O58   S    
Cr9   O37   S    
C66   C70   A    
C59   C63   A    
C30   H26   S    
Cr8   O28   S    
S4    O63   D    
C60   C64   A    
C17   N5    S    
C77   O37   A    
C52   H36   S    
C46   O30   A    
Cr5   O49   S    
C8    C100  A    
C55   C75   A    
Cr11  O11   S    
N7    H58   S    
C2    O22   A    
C95   C104  A    
Cr9   O13   S    
C4    C21   S    
Cr1   O41   S    
C43   C51   A    
O61   H39   S    
Cr8   O20   S    
C46   C93   S    
Cr3   O23   S    
Cr4   O20   S    
C65   C69   A    
C74   C90   S    
C96   C100  A    
C35   C79   S    
S8    O74   D    
S5    O66   D    
C42   C85   S    
C87   O7    A    
C9    C10   A    
C67   C71   A    
C84   O48   A    
C61   C65   A    
C31   H27   S    
S6    O68   D    
C11   N3    S    
C64   C81   S    
C32   H28   S    
N3    H50   S    
N8    H60   S    
C80   O40   A    
C19   N7    S    
C13   C17   A    
C87   O11   A    
C66   H10   S    
C54   H6    S    
Cr6   O30   S    
C1    C24   S    
C8    C10   A    
S2    O56   D    
C22   C26   A    
C96   C103  A    
N8    H59   S    
C2    C23   S    
Cr5   O25   S    
C79   O3    A    
Cr10  O34   S    
Cr12  O16   S    
C3    C22   S    
C53   H5    S    
C2    O26   A    
C37   H29   S    
C84   O52   A    
S1    O54   D    
C47   C96   S    
S4    O64   S    
C16   C36   A    
C92   O16   A    
C104  H4    S    
Cr7   O19   S    
C17   C21   A    
