data_mof_unit_46951.cif
_audit_creation_date              2013-03-05T16:12:11-0500
_audit_creation_method            fapswitch 2.2
_symmetry_space_group_name_H-M    P1
_symmetry_Int_Tables_number       1
_space_group_crystal_system       triclinic
_cell_length_a                    10.851174
_cell_length_b                    9.591204
_cell_length_c                    27.617787
_cell_angle_alpha                 90.758827
_cell_angle_beta                  91.017538
_cell_angle_gamma                 90.893364
_cell_volume                      2873.27851558

loop_
_atom_site_label
_atom_site_type_symbol
_atom_site_description
_atom_site_fract_x
_atom_site_fract_y
_atom_site_fract_z
_atom_type_partial_charge
O1    O     O_R   0.317570 0.620260 0.500030 -0.612232
O2    O     O_R   0.317570 0.379740 0.500030 -0.608895
C1    C     C_R   0.261096 0.499059 0.499691 0.790888
O3    O     O_R   0.499900 0.620250 0.430280 -0.577693
O4    O     O_R   0.499900 0.379750 0.430280 -0.516897
C2    C     C_R   0.498900 0.498990 0.407595 0.889198
Cu1   Cu    Cu3+1 0.499860 0.642410 0.500020 1.001398
Cu2   Cu    Cu3+1 0.499860 0.357590 0.500020 1.004541
O5    O     O_R   0.682190 0.620260 0.500010 -0.541411
O6    O     O_R   0.682190 0.379740 0.500010 -0.550872
O7    O     O_R   0.499860 0.620280 0.569750 -0.502102
O8    O     O_R   0.499860 0.379720 0.569750 -0.532294
C3    C     C_R   0.740698 0.501217 0.499017 0.939832
C4    C     C_R   0.494507 0.500204 0.592191 0.847770
C5    C     C_R   0.436810 0.581350 0.176526 0.643052
O9    O     O_2   0.370311 0.672513 0.202336 -0.460141
N1    N     N_R   0.511074 0.490944 0.200654 -0.459281
C6    C     C_R   0.578019 0.392895 0.176888 0.563858
C7    C     C_R   0.565410 0.604492 0.279380 0.502030
C8    C     C_R   0.558072 0.606401 0.329877 -0.349799
C9    C     C_R   0.444793 0.385213 0.327343 0.413524
C10   C     C_R   0.455003 0.382483 0.276817 -0.264250
C11   C     C_R   0.512060 0.492427 0.252698 0.171358
C12   C     C_R   0.490502 0.470025 0.100365 -0.129354
C13   C     C_R   0.426791 0.575973 0.125571 -0.101801
C14   C     C_R   0.356165 0.672113 0.098689 0.314841
C15   C     C_R   0.568774 0.378323 0.126019 -0.071872
C16   C     C_R   0.500225 0.496412 0.354277 -0.207033
H1    H     H_    0.416541 0.295478 0.255885 0.188138
C17   C     C_R   0.473861 0.496948 0.644583 -0.081541
C18   C     C_R   0.366268 0.515151 0.974116 0.016334
C19   C     C_R   0.546319 0.362904 0.971820 0.005813
C20   C     C_R   0.452843 0.437519 0.947437 0.042010
C21   C     C_R   0.259773 0.564305 0.949299 0.228656
C22   C     C_R   0.253518 0.560092 0.898874 -0.180515
C23   C     C_R   0.347697 0.500722 0.871976 -0.044598
C24   C     C_R   0.445859 0.434825 0.896117 -0.107843
C25   C     C_R   0.537545 0.368006 0.868939 -0.131132
C26   C     C_R   0.529447 0.372402 0.817933 0.559982
N2    N     N_R   0.436841 0.443712 0.795553 -0.459760
C27   C     C_R   0.345239 0.504458 0.821223 0.565692
C28   C     C_R   0.369263 0.387898 0.711871 -0.124610
C29   C     C_R   0.384581 0.403293 0.662139 -0.275821
C30   C     C_R   0.544636 0.578512 0.677642 0.226042
C31   C     C_R   0.529346 0.562274 0.727230 -0.169826
C32   C     C_R   0.443355 0.465888 0.744474 0.310224
O10   O     O_2   0.253678 0.570785 0.797701 -0.544830
C33   C     C_R   0.390281 0.539597 0.024211 0.014429
C34   C     C_R   0.476098 0.456247 0.049255 0.081543
C35   C     C_R   0.548967 0.361156 0.023258 0.034593
C36   C     C_R   0.339824 0.653151 0.048966 -0.167789
H2    H     H_    0.328281 0.340094 0.637281 0.173545
H3    H     H_    0.302471 0.313049 0.725004 0.151114
H4    H     H_    0.172726 0.601135 0.880769 0.206136
H5    H     H_    0.292373 0.733463 0.029344 0.209712
O11   O     O_2   0.652970 0.310825 0.202973 -0.491009
C37   C     C_R   0.633024 0.275111 0.099775 0.331001
H6    H     H_    0.599716 0.693196 0.349993 0.233659
C38   C     C_R   0.636340 0.295946 0.944007 -0.258230
C39   C     C_R   0.635627 0.302457 0.893574 0.498699
O12   O     O_2   0.613276 0.306986 0.790619 -0.512975
C40   C     C_R   0.623417 0.268932 0.049474 -0.221751
H7    H     H_    0.713049 0.243424 0.960588 0.171404
H8    H     H_    0.585989 0.623007 0.752669 0.166779
H9    H     H_    0.672390 0.186501 0.031597 0.176928
C41   C     C_3   0.078452 0.631927 0.524499 -0.454879
C42   C     C_3   0.075048 0.374431 0.527787 -0.456061
H10   H     H_    0.114633 0.728575 0.508022 0.128119
H11   H     H_    0.111471 0.274029 0.513748 0.137076
H12   H     H_    0.117373 0.634249 0.561989 0.183845
H13   H     H_    0.107759 0.385625 0.566077 0.199484
C43   C     C_3   0.936091 0.635761 0.525777 0.294193
C44   C     C_3   0.932322 0.368705 0.524070 0.307451
H14   H     H_    0.904494 0.729926 0.506292 0.125042
H15   H     H_    0.904178 0.276782 0.501082 0.128300
H16   H     H_    0.131669 0.532974 0.419693 0.145254
H17   H     H_    0.087014 0.368178 0.435768 0.177578
C45   C     C_3   0.074250 0.479009 0.446559 -0.529043
C46   C     C_3   0.124767 0.497758 0.499063 -0.003544
C47   C     C_3   0.881490 0.503688 0.498234 -0.109365
C48   C     C_3   0.932293 0.510141 0.443868 0.741661
C49   C     C_3   0.626120 0.086370 0.496125 0.207404
C50   C     C_3   0.626813 0.920190 0.499122 0.177062
H18   H     H_    0.687162 0.131092 0.524900 0.098781
H19   H     H_    0.680777 0.887468 0.531337 0.092101
C51   C     C_3   0.441634 0.082345 0.545481 0.327426
C52   C     C_3   0.424643 0.918215 0.541623 0.366663
C53   C     C_3   0.426292 0.079959 0.459530 -0.313336
C54   C     C_3   0.435577 0.913950 0.456927 -0.308370
N3    N     N_3   0.500250 0.143650 0.501060 -0.214049
N4    N     N_3   0.500250 0.856350 0.501060 -0.188058
H20   H     H_    0.327952 0.108118 0.462979 0.129191
H21   H     H_    0.341544 0.866918 0.452439 0.143537
H22   H     H_    0.454191 0.123687 0.424451 0.280002
H23   H     H_    0.480144 0.883506 0.422712 0.241552
H24   H     H_    0.345135 0.120587 0.544818 0.076903
H25   H     H_    0.326047 0.899192 0.530049 0.008675
O13   O     O_3   0.385244 0.276895 0.350596 -0.563204
C55   C     C_3   0.257923 0.278279 0.338679 0.082115
H26   H     H_    0.240878 0.261769 0.299142 0.159706
H27   H     H_    0.216819 0.378951 0.350177 0.115214
C56   C     C_3   0.192440 0.160040 0.364508 -0.805385
H28   H     H_    0.195240 0.179487 0.404114 0.225067
H29   H     H_    0.094589 0.153192 0.352205 0.212203
H30   H     H_    0.237359 0.059248 0.356395 0.259092
O14   O     O_3   0.619542 0.716178 0.256379 -0.534661
C57   C     C_3   0.742660 0.682879 0.246056 0.034593
H31   H     H_    0.745714 0.603123 0.216528 0.173329
H32   H     H_    0.792407 0.643208 0.278567 0.119549
C58   C     C_3   0.810036 0.813422 0.229419 -0.633166
H33   H     H_    0.809452 0.894821 0.258403 0.252642
H34   H     H_    0.907069 0.788481 0.221126 0.210043
H35   H     H_    0.764332 0.854085 0.196313 0.285751
Br1   Br    Br    0.736152 0.134891 0.128184 -0.405976
Br2   Br    Br    0.665177 0.710459 0.657651 -0.569289
O15   O     O_3   0.730039 0.238937 0.868939 -0.543852
C59   C     C_3   0.825926 0.337428 0.860643 0.116765
H36   H     H_    0.794263 0.447486 0.858436 0.132193
H37   H     H_    0.866135 0.312094 0.824948 0.198429
C60   C     C_3   0.928004 0.326709 0.899030 -0.770964
H38   H     H_    0.956597 0.216613 0.902653 0.266849
H39   H     H_    0.008987 0.390606 0.888321 0.230071
H40   H     H_    0.895933 0.366281 0.934491 0.258953
O16   O     O_3   0.896236 0.644045 0.574383 -0.501264
C61   C     C_3   0.924381 0.777987 0.595074 0.111313
H41   H     H_    0.838180 0.837409 0.598519 0.176673
H42   H     H_    0.987315 0.844543 0.573331 0.064424
C62   C     C_3   0.984865 0.761259 0.644864 -0.707223
H43   H     H_    0.076353 0.712661 0.641306 0.207200
H44   H     H_    0.997402 0.865013 0.662741 0.190632
H45   H     H_    0.927573 0.693680 0.668026 0.296471
O17   O     O_3   0.882536 0.353911 0.570935 -0.519645
C63   C     C_3   0.914460 0.223826 0.591523 0.055191
H46   H     H_    0.985631 0.164146 0.571808 0.099014
H47   H     H_    0.832576 0.154910 0.591171 0.138139
C64   C     C_3   0.960557 0.247482 0.643459 -0.754772
H48   H     H_    0.893807 0.310366 0.664089 0.273792
H49   H     H_    0.972528 0.145590 0.661440 0.193465
H50   H     H_    0.050639 0.303950 0.643854 0.230949
O18   O     O_3   0.899503 0.642076 0.423168 -0.581851
C65   C     C_3   0.993545 0.741092 0.411204 0.067222
H51   H     H_    0.079749 0.737541 0.432475 0.113492
H52   H     H_    0.959373 0.846661 0.419715 0.210947
C66   C     C_3   0.019863 0.738618 0.357201 -0.829073
H53   H     H_    0.932845 0.750594 0.336114 0.260889
H54   H     H_    0.082963 0.826735 0.348543 0.223554
H55   H     H_    0.064846 0.640431 0.346414 0.217056
O19   O     O_3   0.871719 0.401608 0.416189 -0.577223
C67   C     C_3   0.890388 0.415159 0.365656 0.106309
H56   H     H_    0.989999 0.416135 0.357248 0.118374
H57   H     H_    0.846415 0.510787 0.351768 0.189999
C68   C     C_3   0.830760 0.293104 0.337885 -0.704522
H58   H     H_    0.867699 0.193056 0.351161 0.267704
H59   H     H_    0.729197 0.294254 0.342058 0.281378
H60   H     H_    0.851034 0.301969 0.298758 0.209449
Br3   Br    Br    0.701349 0.157963 0.436364 -0.461380
Br4   Br    Br    0.713570 0.843796 0.442908 -0.497289
O20   O     O_3   0.485112 0.139561 0.590927 -0.566268
C69   C     C_3   0.585023 0.077262 0.615624 0.147869
H61   H     H_    0.654663 0.033415 0.591903 0.080417
H62   H     H_    0.553097 0.993870 0.639475 0.238277
C70   C     C_3   0.643294 0.184156 0.650519 -0.761428
H63   H     H_    0.575740 0.215225 0.678176 0.267960
H64   H     H_    0.723046 0.137448 0.669669 0.216004
H65   H     H_    0.673730 0.278341 0.630858 0.278709
O21   O     O_3   0.441500 0.855089 0.587293 -0.546376
C71   C     C_3   0.327754 0.839742 0.612398 0.091688
H66   H     H_    0.295155 0.729872 0.608393 0.150904
H67   H     H_    0.252434 0.908322 0.599253 0.092235
C72   C     C_3   0.343691 0.874365 0.666177 -0.786331
H68   H     H_    0.356246 0.988649 0.671661 0.240274
H69   H     H_    0.259804 0.841131 0.685664 0.218127
H70   H     H_    0.423605 0.820398 0.682056 0.277786
Br5   Br    Br    0.282973 0.837715 0.125124 -0.365624
Br6   Br    Br    0.107556 0.609536 0.980456 -0.506849

loop_
_geom_bond_atom_site_label_1
_geom_bond_atom_site_label_2
_geom_bond_distance
_ccdc_geom_bond_type
C48   O18   1.442453 S    
C41   H10   1.107547 S    
C10   H1    1.082835 S    
C52   N4    1.519989 S    
C57   H32   1.113841 S    
C7    C8    1.398186 A    
C12   C15   1.419636 A    
C1    C46   1.478988 S    
C62   H43   1.108669 S    
C65   H52   1.107461 S    
C63   H46   1.114001 S    
Cu1   Cu2   2.731766 S    
C71   H67   1.115792 S    
C31   C32   1.397363 A    
C60   H38   1.110510 S    
Cu1   O7    1.940242 S    
C41   C46   1.552668 S    
N1    C11   1.437059 S    
C23   C24   1.409077 A    
H16   C45   1.105970 S    
C67   H57   1.110179 S    
C28   H3    1.082691 S    
O4    C2    1.311366 A    
O7    C4    1.316037 A    
C29   H2    1.083749 S    
C5    C13   1.409734 A    
C52   O21   1.416478 S    
C72   H68   1.110489 S    
C14   Br5   1.927643 S    
C5    O9    1.347124 S    
O15   C59   1.418093 S    
C56   H30   1.111387 S    
Cu1   O5    1.993163 S    
C21   C22   1.393085 A    
C28   C32   1.397978 A    
O5    C3    1.315236 A    
C58   H33   1.110907 S    
C21   Br6   1.928678 S    
C65   H51   1.096941 S    
C33   C36   1.401977 A    
C41   C43   1.546814 S    
C53   H20   1.110254 S    
C30   Br2   1.899957 S    
O17   C63   1.423113 S    
C61   C62   1.524620 S    
C57   H31   1.111989 S    
C69   H62   1.098663 S    
C42   C44   1.550389 S    
C54   N4    1.510913 S    
C42   H13   1.112774 S    
C60   H40   1.109375 S    
C6    O11   1.346939 S    
C49   Br3   1.980474 S    
C61   H41   1.107772 S    
C44   O17   1.419348 S    
C38   C39   1.394949 A    
C9    C10   1.401708 A    
C43   O16   1.419235 S    
C22   H4    1.083494 S    
C44   H15   1.115142 S    
C17   C30   1.404571 A    
C23   C27   1.402409 A    
C4    C17   1.468787 S    
C66   H55   1.107215 S    
C60   H39   1.110180 S    
C71   C72   1.523890 S    
C70   H64   1.109695 S    
C25   C26   1.411092 A    
C26   O12   1.348991 S    
C53   H22   1.106043 S    
C69   C70   1.520411 S    
C37   C40   1.391673 A    
C42   C46   1.529589 S    
C12   C13   1.419658 A    
C66   H54   1.110592 S    
C15   C37   1.418382 A    
C65   C66   1.523474 S    
C26   N2    1.367549 A    
C51   C52   1.584067 S    
C66   H53   1.108855 S    
C8    C16   1.405061 A    
O3    Cu1   1.934964 S    
C13   C14   1.417309 A    
H17   C45   1.111594 S    
C49   C50   1.597239 S    
C20   C24   1.417908 A    
O1    C1    1.305459 A    
C22   C23   1.398005 A    
C64   H50   1.109902 S    
O20   C69   1.415052 S    
C54   H23   1.106959 S    
C7    C11   1.406386 A    
C24   C25   1.413353 A    
C63   C64   1.523629 S    
C70   H65   1.109055 S    
C69   H61   1.094211 S    
C50   Br4   1.968928 S    
C68   H60   1.110687 S    
Cu2   O8    1.934654 S    
C48   O19   1.428191 S    
Cu1   N4    2.051700 S    
C18   C20   1.418346 A    
N1    C6    1.365561 A    
C27   O10   1.349664 S    
C18   C21   1.422971 A    
O18   C65   1.429159 S    
C56   H29   1.109774 S    
C51   O20   1.432380 S    
C58   H35   1.110570 S    
C19   C35   1.420694 A    
C51   H24   1.114813 S    
C25   C39   1.413284 A    
C43   H14   1.113025 S    
N2    C27   1.364640 A    
C50   H19   1.107972 S    
C9    C16   1.412685 A    
C53   N3    1.505401 S    
O13   C55   1.414844 S    
C14   C36   1.390677 A    
C49   H18   1.103483 S    
C18   C33   1.419046 A    
C51   N3    1.513443 S    
O21   C71   1.432926 S    
C35   C40   1.406332 A    
C57   C58   1.520499 S    
C17   C29   1.407695 A    
C67   C68   1.520623 S    
O3    C2    1.313512 A    
Cu2   N3    2.052593 S    
C28   C29   1.395930 A    
N2    C32   1.432237 S    
C8    H6    1.083018 S    
C62   H45   1.108311 S    
C71   H66   1.109837 S    
C30   C31   1.392936 A    
C64   H49   1.110421 S    
C63   H47   1.098959 S    
C70   H63   1.109170 S    
C12   C34   1.421595 A    
C5    N1    1.365035 A    
C33   C34   1.414078 A    
C40   H9    1.078565 S    
C55   H27   1.114651 S    
O1    Cu1   1.986146 S    
O2    Cu2   1.992732 S    
C6    C15   1.411630 A    
C68   H59   1.110339 S    
C47   C48   1.610269 S    
O6    C3    1.318979 A    
C62   H44   1.110369 S    
O4    Cu2   1.940559 S    
C37   Br1   1.928801 S    
C50   N4    1.497048 S    
C31   H8    1.083210 S    
C38   H7    1.077951 S    
C49   N3    1.487932 S    
C55   H26   1.113078 S    
C19   C20   1.416197 A    
C59   H37   1.110639 S    
O2    C1    1.306622 A    
O8    C4    1.306630 A    
C43   C47   1.571426 S    
C67   H56   1.109504 S    
C9    O13   1.385917 S    
C45   C46   1.548317 S    
C45   C48   1.574283 S    
C41   H12   1.111077 S    
C72   H69   1.110276 S    
C44   C47   1.588159 S    
C59   C60   1.525170 S    
C36   H5    1.079653 S    
O19   C67   1.421161 S    
C54   H21   1.113402 S    
C56   H28   1.106976 S    
C58   H34   1.110528 S    
C3    C47   1.528112 S    
C39   O15   1.384518 S    
C7    O14   1.381202 S    
C2    C16   1.472751 S    
C55   C56   1.521233 S    
C53   C54   1.597722 S    
Cu2   O6    1.986577 S    
C34   C35   1.413456 A    
O14   C57   1.411576 S    
C61   H42   1.116052 S    
C10   C11   1.397110 A    
C64   H48   1.110045 S    
C68   H58   1.109942 S    
C19   C38   1.410619 A    
C42   H11   1.114126 S    
C59   H36   1.117272 S    
O16   C61   1.425588 S    
C52   H25   1.122648 S    
C72   H70   1.103949 S    
