data_mof_unit_45000.cif
_audit_creation_date              2012-10-26T19:02:59-0400
_audit_creation_method            fapswitch 2.2
_symmetry_space_group_name_H-M    P1
_symmetry_Int_Tables_number       1
_space_group_crystal_system       triclinic
_cell_length_a                    15.024571
_cell_length_b                    11.039491
_cell_length_c                    9.888699
_cell_angle_alpha                 111.474786
_cell_angle_beta                  99.118044
_cell_angle_gamma                 90.581769
_cell_volume                      1502.8725694

loop_
_atom_site_label
_atom_site_type_symbol
_atom_type_description
_atom_site_fract_x
_atom_site_fract_y
_atom_site_fract_z
_atom_type_partial_charge
C1    C     C_R   0.494355 0.254016 0.440380 0.586116
C2    C     C_2   0.492019 0.491845 0.919113 0.018137
C3    C     C_R   0.329096 0.498474 0.499812 0.565017
C4    C     C_R   0.670901 0.501542 0.500190 0.563819
C5    C     C_R   0.816776 0.622669 0.521749 0.059763
C6    C     C_R   0.183129 0.377501 0.478211 0.065811
C7    C     C_R   0.767520 0.506267 0.502090 -0.007340
C8    C     C_R   0.232472 0.493841 0.497889 -0.007758
C9    C     C_R   0.809497 0.390909 0.481171 -0.133433
C10   C     C_R   0.190511 0.609191 0.518503 -0.134433
C11   C     C_R   0.901116 0.387262 0.475242 -0.003714
C12   C     C_R   0.505699 0.745985 0.559619 0.584773
C13   C     C_R   0.098859 0.612907 0.524276 -0.005543
C14   C     C_R   0.953360 0.503070 0.502129 0.026202
C15   C     C_R   0.046580 0.497174 0.497477 0.024954
C16   C     C_R   0.912463 0.624294 0.534008 -0.006706
C17   C     C_R   0.087444 0.375957 0.465477 -0.002161
C18   C     C_R   0.939717 0.267542 0.436674 -0.111994
C19   C     C_R   0.060214 0.732568 0.562207 -0.098969
C20   C     C_2   0.766308 0.734635 0.510678 0.594616
C21   C     C_2   0.233353 0.265564 0.490143 0.591950
C22   C     C_2   0.059362 0.127154 0.344824 0.614023
C23   C     C_R   0.030767 0.259197 0.423193 0.072759
C24   C     C_2   0.941005 0.873819 0.651216 0.610724
C25   C     C_2   0.599099 0.665014 0.955920 0.722676
C26   C     C_2   0.400813 0.335080 0.044096 0.721252
C27   C     C_R   0.969206 0.741013 0.575523 0.075169
C28   C     C_2   0.491353 0.114281 0.406807 -0.083313
C29   C     C_2   0.508754 0.885719 0.593188 -0.081977
C30   C     C_2   0.501495 0.069650 0.516270 -0.151014
C31   C     C_2   0.498672 0.930350 0.483725 -0.152026
C32   C     C_2   0.508019 0.508088 0.080865 0.018735
Cu1   Cu    Cu3+1 0.515770 0.521810 0.644910 1.063943
Cu2   Cu    Cu3+1 0.484230 0.478190 0.355090 1.064454
H1    H     H_    0.769416 0.302234 0.463212 0.114067
H2    H     H_    0.560665 0.578898 0.156953 0.175230
H3    H     H_    0.742989 0.862647 0.409086 0.341141
H4    H     H_    0.255170 0.136951 0.591224 0.342142
H5    H     H_    0.123315 0.012771 0.184600 0.357669
H6    H     H_    0.945114 0.062834 0.672778 0.351602
H7    H     H_    0.619303 0.835069 0.132236 0.333815
H8    H     H_    0.380506 0.164979 0.867843 0.332336
H9    H     H_    0.230621 0.697806 0.536336 0.114884
H10   H     H_    0.897015 0.178682 0.407526 0.155610
H11   H     H_    0.102871 0.821363 0.590755 0.162932
H12   H     H_    0.488294 0.863872 0.368888 0.183144
H13   H     H_    0.511893 0.136127 0.631108 0.184138
H14   H     H_    0.519479 0.952469 0.707856 0.138384
H15   H     H_    0.480604 0.047533 0.292137 0.136419
H16   H     H_    0.439414 0.420973 0.843003 0.174977
N1    N     N_2   0.460520 0.445420 0.137370 -0.245648
N2    N     N_2   0.539480 0.554580 0.862630 -0.246169
O1    O     O_R   0.508410 0.332340 0.577400 -0.517665
O2    O     O_R   0.781338 0.787034 0.406478 -0.669580
O3    O     O_2   0.288942 0.220326 0.410694 -0.484335
O4    O     O_R   0.216824 0.212388 0.592987 -0.674577
O5    O     O_2   0.036493 0.035005 0.375397 -0.449130
O6    O     O_R   0.108686 0.107017 0.230760 -0.648049
O7    O     O_2   0.898428 0.894567 0.752148 -0.464249
O8    O     O_R   0.967413 0.976679 0.612318 -0.632427
O9    O     O_2   0.672656 0.680180 0.924260 -0.437352
O10   O     O_R   0.571298 0.760710 0.076707 -0.738820
O11   O     O_2   0.327201 0.320119 0.075708 -0.440574
O12   O     O_R   0.491590 0.667660 0.422600 -0.518635
O13   O     O_R   0.428578 0.239250 0.923374 -0.737918
O14   O     O_R   0.481780 0.295500 0.332650 -0.470820
O15   O     O_R   0.518220 0.704500 0.667350 -0.470816
O16   O     O_R   0.383570 0.518390 0.622380 -0.522495
O17   O     O_R   0.616430 0.481610 0.377620 -0.521294
O18   O     O_R   0.356940 0.481550 0.377630 -0.447267
O19   O     O_R   0.643060 0.518450 0.622370 -0.448346
O20   O     O_2   0.711883 0.780656 0.592167 -0.476833

loop_
_geom_bond_atom_site_label_1
_geom_bond_atom_site_label_2
_ccdc_geom_bond_type
C22   O6    S    
C1    C28   S    
C26   O11   D    
C19   H11   S    
C11   C18   A    
H6    O8    S    
C18   H10   S    
C12   C29   S    
C21   O4    S    
C19   C27   A    
C28   H15   S    
Cu2   O18   S    
C3    O16   A    
C14   C15   A    
C24   C27   S    
C24   O8    S    
Cu2   O14   S    
C22   O5    D    
C28   C30   D    
Cu1   Cu2   S    
C25   N2    S    
C32   N1    D    
C5    C20   S    
C25   O9    D    
C26   N1    S    
C6    C21   S    
Cu1   N2    S    
C29   C31   D    
C9    C11   A    
Cu2   O17   S    
Cu2   N1    S    
C17   C23   A    
C2    N2    D    
H7    O10   S    
C16   C27   A    
C4    C7    S    
H3    O2    S    
C32   H2    S    
C2    C32   S    
C4    O17   A    
C11   C14   A    
Cu2   O12   S    
C1    O14   A    
C5    C7    A    
C25   O10   S    
C13   C15   A    
Cu1   O1    S    
C30   C31   S    
C12   O12   A    
C12   O15   A    
C14   C16   A    
Cu1   O19   S    
C29   H14   S    
C9    H1    S    
C18   C23   A    
C6    C17   A    
C7    C9    A    
C30   H13   S    
C3    O18   A    
H4    O4    S    
Cu1   O15   S    
C21   O3    D    
C3    C8    S    
C4    O19   A    
C15   C17   A    
H8    O13   S    
C1    O1    A    
H5    O6    S    
C20   O20   D    
C13   C19   A    
C6    C8    A    
C2    H16   S    
C10   H9    S    
C22   C23   S    
C26   O13   S    
C31   H12   S    
C8    C10   A    
C24   O7    D    
C20   O2    S    
Cu1   O16   S    
C5    C16   A    
C10   C13   A    
