data_mof_unit_5061.cif
_audit_creation_date              2013-03-05T16:45:21-0500
_audit_creation_method            fapswitch 2.2
_symmetry_space_group_name_H-M    P1
_symmetry_Int_Tables_number       1
_space_group_crystal_system       triclinic
_cell_length_a                    8.902311
_cell_length_b                    10.688138
_cell_length_c                    9.928785
_cell_angle_alpha                 90.81901
_cell_angle_beta                  90.381932
_cell_angle_gamma                 90.757967
_cell_volume                      944.513866939

loop_
_atom_site_label
_atom_site_type_symbol
_atom_site_description
_atom_site_fract_x
_atom_site_fract_y
_atom_site_fract_z
_atom_type_partial_charge
O1    O     O_R   0.500020 0.316790 0.614690 -0.624351
O2    O     O_R   0.500000 0.316760 0.385350 -0.631797
C1    C     C_R   0.497501 0.260542 0.499376 0.933297
O3    O     O_R   0.285350 0.500020 0.614650 -0.594336
O4    O     O_R   0.285340 0.499980 0.385310 -0.566678
C2    C     C_R   0.218901 0.499717 0.499719 0.962128
Zn1   Zn    Zn3+2 0.500010 0.500020 0.653130 0.999510
Zn2   Zn    Zn3+2 0.499990 0.499980 0.346870 1.047132
O5    O     O_R   0.500000 0.683240 0.614650 -0.649508
O6    O     O_R   0.499980 0.683210 0.385310 -0.584281
O7    O     O_R   0.714660 0.500020 0.614690 -0.631991
O8    O     O_R   0.714650 0.499980 0.385350 -0.606973
C3    C     C_R   0.493295 0.739343 0.500676 0.958342
C4    C     C_R   0.781079 0.500315 0.500315 0.975831
C5    C     C_1   0.065432 0.500047 0.499668 -0.030846
C6    C     C_1   0.934537 0.500286 0.500472 -0.062168
C7    C     C_R   0.537934 0.065839 0.611085 -0.024205
C8    C     C_R   0.483856 0.128963 0.500484 -0.075660
C9    C     C_R   0.404361 0.064232 0.398837 -0.202053
H1    H     H_    0.349573 0.114634 0.319080 0.207323
C10   C     C_R   0.395918 0.933826 0.400842 0.309126
C11   C     C_R   0.475515 0.870949 0.503279 -0.135368
C12   C     C_R   0.537972 0.938982 0.610585 -0.025469
C13   C     C_3   0.682417 0.933901 0.690314 0.050975
C14   C     C_3   0.681935 0.077303 0.689541 0.084944
H2    H     H_    0.664606 0.895217 0.792084 0.089987
H3    H     H_    0.666632 0.119876 0.791325 0.109196
C15   C     C_R   0.388474 0.439485 0.069135 0.146725
N1    N     N_R   0.499010 0.499140 0.142800 -0.139005
C16   C     C_R   0.602293 0.567727 0.075495 -0.073746
H4    H     H_    0.686287 0.620138 0.132977 0.175786
C17   C     C_R   0.604195 0.568069 0.932411 0.164325
N2    N     N_R   0.499010 0.499180 0.857150 -0.137478
C18   C     C_R   0.389804 0.438231 0.926920 0.109698
C19   C     C_3   0.357050 0.300581 0.919754 0.011056
C20   C     C_3   0.349565 0.302820 0.073715 -0.019714
H5    H     H_    0.452418 0.246329 0.878471 0.099412
H6    H     H_    0.437439 0.246364 0.123451 0.116559
N3    N     N_R   0.198479 0.278440 0.126312 0.254188
O9    O     O_R   0.146607 0.164188 0.128903 -0.275866
O10   O     O_R   0.114917 0.368980 0.170687 -0.353387
N4    N     N_R   0.308587 0.867977 0.299559 0.231388
O11   O     O_R   0.301870 0.910264 0.177433 -0.325612
O12   O     O_R   0.218555 0.777010 0.333424 -0.351066
N5    N     N_R   0.811114 0.878753 0.620468 0.244205
O13   O     O_R   0.939131 0.872256 0.683679 -0.323630
O14   O     O_R   0.801682 0.838356 0.496388 -0.362333
N6    N     N_R   0.803878 0.136407 0.613405 0.254055
O15   O     O_R   0.824474 0.110367 0.486369 -0.306685
O16   O     O_R   0.884662 0.224541 0.670615 -0.324307
C21   C     C_3   0.729910 0.641876 0.869766 -0.424624
C22   C     C_3   0.877385 0.570741 0.876365 -0.632621
H7    H     H_    0.862475 0.474777 0.833843 0.298274
H8    H     H_    0.964789 0.620871 0.817914 0.269477
H9    H     H_    0.916655 0.563850 0.982402 0.263215
H10   H     H_    0.704168 0.667290 0.765776 0.264682
H11   H     H_    0.745322 0.732024 0.925605 0.205196
N7    N     N_R   0.214134 0.269511 0.852742 0.282348
O17   O     O_R   0.180963 0.153121 0.824706 -0.270322
O18   O     O_R   0.122214 0.356523 0.816161 -0.352298

loop_
_geom_bond_atom_site_label_1
_geom_bond_atom_site_label_2
_geom_bond_distance
_ccdc_geom_bond_type
C7    C8    1.384045 A    
C5    C6    1.165384 T    
O4    Zn2   1.951115 S    
C16   C17   1.420925 A    
C12   C13   1.507528 S    
C17   C21   1.503873 S    
N1    C16   1.354149 A    
C21   H11   1.111202 S    
C14   H3    1.112309 S    
C19   C20   1.530401 S    
C22   H9    1.110888 S    
C16   H4    1.082928 S    
Zn2   O8    1.946289 S    
C7    C14   1.498325 S    
C17   N2    1.390694 A    
C22   H8    1.110492 S    
C20   H6    1.111655 S    
O2    C1    1.289455 A    
N7    O17   1.300570 A    
C15   C18   1.412029 A    
N3    O10   1.301993 A    
O1    Zn1   1.989871 S    
C10   C11   1.417996 A    
C22   H7    1.109572 S    
Zn1   O7    1.951117 S    
Zn1   N2    2.025897 S    
C14   N6    1.468142 S    
C7    C12   1.355806 A    
N4    O12   1.301186 A    
O3    Zn1   1.946289 S    
C13   N5    1.468931 S    
N6    O16   1.299431 A    
C15   N1    1.367578 A    
C9    C10   1.395268 A    
O8    C4    1.281995 A    
C3    C11   1.417474 S    
N2    C18   1.361800 A    
N5    O14   1.301407 A    
O4    C2    1.284212 A    
C18   C19   1.496645 S    
O7    C4    1.283829 A    
C4    C6    1.366122 S    
O3    C2    1.281778 A    
N4    O11   1.301378 A    
Zn2   N1    2.026019 S    
N7    O18   1.300860 A    
C21   C22   1.527304 S    
C13   C14   1.532890 S    
C15   C20   1.498128 S    
C1    C8    1.410173 S    
Zn2   O6    1.989870 S    
C8    C9    1.398432 A    
N3    O9    1.300468 A    
Zn1   O5    2.000555 S    
O5    C3    1.289623 A    
C11   C12   1.390057 A    
N6    O15   1.302458 A    
C19   N7    1.463868 S    
C10   N4    1.437314 S    
C19   H5    1.111715 S    
C2    C5    1.366280 S    
N5    O13   1.300505 A    
C20   N3    1.467538 S    
O2    Zn2   2.000557 S    
C9    H1    1.081287 S    
C13   H2    1.108805 S    
O1    C1    1.285462 A    
O6    C3    1.287535 A    
C21   H10   1.094917 S    
