data_mof_unit_27260.cif
_audit_creation_date              2012-10-26T20:37:58-0400
_audit_creation_method            fapswitch 2.2
_symmetry_space_group_name_H-M    P1
_symmetry_Int_Tables_number       1
_space_group_crystal_system       triclinic
_cell_length_a                    10.111525
_cell_length_b                    11.043402
_cell_length_c                    12.938474
_cell_angle_alpha                 88.046241
_cell_angle_beta                  75.718726
_cell_angle_gamma                 112.781598
_cell_volume                      1277.25140133

loop_
_atom_site_label
_atom_site_type_symbol
_atom_type_description
_atom_site_fract_x
_atom_site_fract_y
_atom_site_fract_z
_atom_type_partial_charge
Br1   Br    Br    0.341380 0.247872 0.229763 -0.465798
Br2   Br    Br    0.658583 0.752146 0.770243 -0.465814
Br3   Br    Br    0.813237 0.002380 0.420180 -0.384238
Br4   Br    Br    0.186765 0.997616 0.579803 -0.384235
Br5   Br    Br    0.973770 0.705238 0.344027 -0.371843
Br6   Br    Br    0.026236 0.294788 0.655997 -0.371844
C1    C     C_R   0.437213 0.253369 0.506767 0.553456
C2    C     C_R   0.569355 0.675122 0.031365 0.037208
C3    C     C_R   0.401905 0.344510 0.869840 -0.038726
C4    C     C_R   0.598100 0.655495 0.130160 -0.038761
C5    C     C_R   0.529634 0.584455 0.863828 0.113419
C6    C     C_R   0.470326 0.415562 0.136176 0.113423
C7    C     C_R   0.524183 0.565972 0.973594 0.026567
C8    C     C_R   0.475779 0.434049 0.026411 0.026562
C9    C     C_2   0.396381 0.109891 0.516499 0.148908
C10   C     C_2   0.603621 0.890111 0.483492 0.148907
C11   C     C_2   0.501670 0.063391 0.474890 -0.004937
C12   C     C_R   0.562787 0.746631 0.493232 0.553453
C13   C     C_2   0.498336 0.936613 0.525100 -0.004940
C14   C     C_3   0.672430 0.772486 0.184826 -0.361262
C15   C     C_3   0.327635 0.227493 0.815178 -0.361301
C16   C     C_3   0.443290 0.196402 0.997986 -0.350530
C17   C     C_3   0.556725 0.803637 0.002036 -0.350519
C18   C     C_3   0.385312 0.864180 0.632785 -0.329944
C19   C     C_3   0.614697 0.135830 0.367207 -0.329943
C20   C     C_3   0.806187 0.379124 0.599303 -0.292315
C21   C     C_3   0.193809 0.620875 0.400699 -0.292315
C22   C     C_2   0.082274 0.511899 0.490446 0.160183
C23   C     C_2   0.917725 0.488104 0.509557 0.160189
C24   C     C_R   0.472930 0.493409 0.701830 0.558770
C25   C     C_R   0.527069 0.506588 0.298171 0.558768
C26   C     C_R   0.542399 0.525245 0.183703 0.025827
C27   C     C_R   0.457590 0.474760 0.816295 0.025849
C28   C     C_R   0.430635 0.324898 0.968642 0.037196
Cu1   Cu    Cu3+1 0.647370 0.522180 0.481340 1.064955
Cu2   Cu    Cu3+1 0.352630 0.477820 0.518660 1.064971
H1    H     H_    0.728335 0.867855 0.129493 0.147812
H2    H     H_    0.507378 0.837993 0.075539 0.125188
H3    H     H_    0.668593 0.882256 0.960097 0.186449
H4    H     H_    0.478557 0.789783 0.952084 0.167387
H5    H     H_    0.370946 0.936362 0.687336 0.149001
H6    H     H_    0.276877 0.798384 0.620642 0.191659
H7    H     H_    0.423860 0.801671 0.676223 0.163714
H8    H     H_    0.629058 0.063649 0.312652 0.149002
H9    H     H_    0.576156 0.198347 0.323772 0.163700
H10   H     H_    0.723133 0.201618 0.379353 0.191659
H11   H     H_    0.804959 0.282326 0.578120 0.169793
H12   H     H_    0.588244 0.780772 0.254478 0.113164
H13   H     H_    0.832349 0.402941 0.676418 0.152112
H14   H     H_    0.690230 0.361925 0.618439 0.170451
H15   H     H_    0.167638 0.597062 0.323586 0.152111
H16   H     H_    0.195047 0.717675 0.421887 0.169796
H17   H     H_    0.309764 0.638069 0.381559 0.170453
H18   H     H_    0.761105 0.758717 0.213526 0.202712
H19   H     H_    0.271714 0.132135 0.870532 0.147808
H20   H     H_    0.238988 0.241218 0.786422 0.202703
H21   H     H_    0.411872 0.219196 0.745579 0.113134
H22   H     H_    0.492644 0.162040 0.924490 0.125191
H23   H     H_    0.521478 0.210290 0.047929 0.167375
H24   H     H_    0.331430 0.117780 0.039939 0.186471
N1    N     N_2   0.131210 0.444490 0.546730 -0.096883
N2    N     N_2   0.868790 0.555510 0.453270 -0.096890
O1    O     O_R   0.578710 0.332530 0.490040 -0.565672
O2    O     O_R   0.421290 0.667470 0.509960 -0.565672
O3    O     O_R   0.329810 0.295070 0.521560 -0.394799
O4    O     O_R   0.670190 0.704930 0.478440 -0.394792
O5    O     O_R   0.604230 0.515670 0.637800 -0.495151
O6    O     O_R   0.395770 0.484330 0.362200 -0.495149
O7    O     O_R   0.355330 0.478200 0.669330 -0.476579
O8    O     O_R   0.644670 0.521800 0.330670 -0.476606

loop_
_geom_bond_atom_site_label_1
_geom_bond_atom_site_label_2
_ccdc_geom_bond_type
C25   O8    A    
C16   H22   S    
C15   H20   S    
C3    C27   A    
Cu2   O6    S    
C8    C28   A    
C2    C7    A    
C18   H5    S    
C4    C26   A    
C1    O3    A    
C17   H2    S    
C18   H6    S    
C3    C28   A    
C19   H10   S    
C25   C26   S    
Cu1   O4    S    
Cu1   O5    S    
C11   C19   S    
C22   N1    D    
C2    C17   S    
Br4   C9    S    
C1    C9    S    
C13   C18   S    
C7    C8    A    
Cu2   O7    S    
C15   H21   S    
C14   H1    S    
C5    C7    A    
C1    O1    A    
C14   H12   S    
Br1   C6    S    
C20   H11   S    
C12   O2    A    
C10   C13   D    
C17   H3    S    
Br2   C5    S    
C23   N2    D    
C19   H8    S    
C14   H18   S    
C22   C23   S    
C11   C13   S    
C21   H15   S    
Br5   N2    S    
Cu1   N2    S    
C20   H14   S    
Cu2   N1    S    
C16   H24   S    
C25   O6    A    
C16   C28   S    
C12   O4    A    
C9    C11   D    
C17   H4    S    
C3    C15   S    
C19   H9    S    
C5    C27   A    
C24   O7    A    
C21   H16   S    
Br6   N1    S    
C20   C23   S    
C10   C12   S    
C20   H13   S    
C4    C14   S    
C16   H23   S    
C15   H19   S    
C18   H7    S    
Cu2   O3    S    
C21   H17   S    
C24   C27   S    
Cu2   O2    S    
Cu1   O1    S    
C2    C4    A    
C6    C26   A    
Br3   C10   S    
C24   O5    A    
Cu1   O8    S    
C6    C8    A    
C21   C22   S    
Cu1   Cu2   S    
