data_mof_unit_58659.cif
_audit_creation_date              2013-03-05T15:55:35-0500
_audit_creation_method            fapswitch 2.2
_symmetry_space_group_name_H-M    P1
_symmetry_Int_Tables_number       1
_space_group_crystal_system       triclinic
_cell_length_a                    13.997889
_cell_length_b                    13.995863
_cell_length_c                    31.949572
_cell_angle_alpha                 90.030519
_cell_angle_beta                  89.978891
_cell_angle_gamma                 120.025023
_cell_volume                      5419.36344925

loop_
_atom_site_label
_atom_site_type_symbol
_atom_site_description
_atom_site_fract_x
_atom_site_fract_y
_atom_site_fract_z
_atom_type_partial_charge
O1    O     O_R   0.480350 0.140770 0.796330 -0.501076
O2    O     O_R   0.660420 0.519650 0.703670 -0.499820
O3    O     O_R   0.859230 0.339580 0.796330 -0.505162
O4    O     O_R   0.480350 0.140770 0.703670 -0.501108
O5    O     O_R   0.660420 0.519650 0.796330 -0.499812
O6    O     O_R   0.859230 0.339580 0.703670 -0.499328
O7    O     O_R   0.140770 0.480350 0.296330 -0.499426
O8    O     O_R   0.519650 0.660420 0.203670 -0.499887
O9    O     O_R   0.339580 0.859230 0.296330 -0.505958
O10   O     O_R   0.140770 0.480350 0.203670 -0.500259
O11   O     O_R   0.519650 0.660420 0.296330 -0.499949
O12   O     O_R   0.339580 0.859230 0.203670 -0.506361
O13   O     O_R   0.514930 0.348530 0.793250 -0.538348
O14   O     O_R   0.833600 0.485070 0.706750 -0.537723
O15   O     O_R   0.651470 0.166400 0.793250 -0.538886
O16   O     O_R   0.514930 0.348530 0.706750 -0.538275
O17   O     O_R   0.833600 0.485070 0.793250 -0.537387
O18   O     O_R   0.651470 0.166400 0.706750 -0.537165
O19   O     O_R   0.348530 0.514930 0.293250 -0.537768
O20   O     O_R   0.485070 0.833600 0.206750 -0.535986
O21   O     O_R   0.166400 0.651470 0.293250 -0.540241
O22   O     O_R   0.348530 0.514930 0.206750 -0.537767
O23   O     O_R   0.485070 0.833600 0.293250 -0.536359
O24   O     O_R   0.166400 0.651470 0.206750 -0.539734
C1    C     C_R   0.567562 0.444100 0.810504 0.855815
C2    C     C_R   0.876648 0.432509 0.689539 0.859045
C3    C     C_R   0.555761 0.123258 0.810387 0.857722
C4    C     C_R   0.567514 0.444107 0.689522 0.856232
C5    C     C_R   0.876810 0.432700 0.810396 0.862112
C6    C     C_R   0.555737 0.123141 0.689636 0.858344
C7    C     C_R   0.443939 0.567765 0.310603 0.855838
C8    C     C_R   0.432465 0.876440 0.189523 0.864915
C9    C     C_R   0.123861 0.556074 0.310616 0.856992
C10   C     C_R   0.443998 0.567666 0.189433 0.855263
C11   C     C_R   0.432379 0.876359 0.310520 0.864385
C12   C     C_R   0.123603 0.555900 0.189480 0.856625
C13   C     C_1   0.003136 0.518508 0.018679 0.153823
C14   C     C_1   0.504259 0.980909 0.482999 0.156047
C15   C     C_1   0.477079 0.483528 0.018345 0.150247
C16   C     C_1   0.011173 0.524996 0.482212 0.154871
C17   C     C_1   0.505425 0.983812 0.017343 0.158163
C18   C     C_1   0.475636 0.485181 0.482013 0.151137
C19   C     C_1   0.509984 0.989341 0.520376 0.163324
C20   C     C_1   0.995511 0.514740 0.981271 0.154973
C21   C     C_1   0.478567 0.481593 0.519466 0.158304
C22   C     C_1   0.510994 0.992372 0.979973 0.162407
C23   C     C_1   0.004644 0.522156 0.519662 0.162163
C24   C     C_1   0.480104 0.480201 0.980890 0.155960
H1    H     H_    0.850837 0.568479 0.862614 0.197173
H2    H     H_    0.715218 0.148270 0.636346 0.194697
H3    H     H_    0.426017 0.283065 0.861913 0.196699
H4    H     H_    0.856575 0.573019 0.637839 0.198325
H5    H     H_    0.715521 0.149007 0.863624 0.187989
H6    H     H_    0.426615 0.283282 0.637886 0.196128
H7    H     H_    0.559264 0.840201 0.363580 0.194695
H8    H     H_    0.146057 0.716974 0.137487 0.189513
H9    H     H_    0.281975 0.425735 0.361679 0.200419
H10   H     H_    0.556915 0.838132 0.136005 0.192961
H11   H     H_    0.144443 0.718258 0.361735 0.191949
H12   H     H_    0.282379 0.425414 0.138301 0.198566
H13   H     H_    0.097187 0.700641 0.064013 0.191392
H14   H     H_    0.583237 0.878757 0.437861 0.192881
H15   H     H_    0.296735 0.392339 0.064736 0.191656
H16   H     H_    0.099397 0.704815 0.435519 0.192131
H17   H     H_    0.581568 0.878213 0.061844 0.192496
H18   H     H_    0.295680 0.393562 0.435373 0.193525
H19   H     H_    0.695124 0.092573 0.563521 0.192248
H20   H     H_    0.898279 0.600217 0.936208 0.193357
H21   H     H_    0.390772 0.299656 0.564812 0.191437
H22   H     H_    0.695863 0.094846 0.936602 0.193662
H23   H     H_    0.909621 0.609295 0.564847 0.193050
H24   H     H_    0.391030 0.298815 0.935149 0.191407
Cr1   Cr    Cr6+3 0.504240 0.249200 0.750000 1.084385
Cr2   Cr    Cr6+3 0.744960 0.495760 0.750000 1.087976
Cr3   Cr    Cr6+3 0.750800 0.255040 0.750000 1.082664
Cr4   Cr    Cr6+3 0.249200 0.504240 0.250000 1.086257
Cr5   Cr    Cr6+3 0.495760 0.744960 0.250000 1.090059
Cr6   Cr    Cr6+3 0.255040 0.750800 0.250000 1.072507
O25   O     O_3   0.666667 0.333333 0.750000 -0.389447
O26   O     O_3   0.333333 0.666667 0.250000 -0.389658
C25   C     C_R   0.930583 0.471467 0.851542 -0.210579
C26   C     C_R   0.539231 0.067315 0.648887 -0.213552
C27   C     C_R   0.528870 0.459588 0.851637 -0.214954
C28   C     C_R   0.931655 0.471724 0.648583 -0.216649
C29   C     C_R   0.539451 0.068123 0.851258 -0.211167
C30   C     C_R   0.528494 0.459762 0.648505 -0.214801
C31   C     C_R   0.468845 0.926631 0.352322 -0.212664
C32   C     C_R   0.070411 0.540453 0.148178 -0.210753
C33   C     C_R   0.458611 0.530313 0.352126 -0.215697
C34   C     C_R   0.469289 0.927115 0.147833 -0.212355
C35   C     C_R   0.072081 0.541546 0.352214 -0.211521
C36   C     C_R   0.458960 0.529736 0.148043 -0.215472
C37   C     C_R   0.900865 0.536693 0.875644 -0.167929
C38   C     C_R   0.632765 0.095568 0.624233 -0.167034
C39   C     C_R   0.459496 0.364938 0.875150 -0.166605
C40   C     C_R   0.906154 0.540588 0.624885 -0.166548
C41   C     C_R   0.633126 0.096740 0.875866 -0.170417
C42   C     C_R   0.459433 0.365258 0.624850 -0.167237
C43   C     C_R   0.528561 0.891025 0.376776 -0.168577
C44   C     C_R   0.097373 0.635018 0.124346 -0.172528
C45   C     C_R   0.363452 0.460782 0.375392 -0.162171
C46   C     C_R   0.527652 0.890422 0.123097 -0.168914
C47   C     C_R   0.098096 0.636813 0.375491 -0.171719
C48   C     C_R   0.363980 0.460076 0.124720 -0.162237
C49   C     C_R   0.926985 0.554362 0.917835 -0.105482
C50   C     C_R   0.621687 0.064239 0.582553 -0.110344
C51   C     C_R   0.439518 0.373462 0.917098 -0.109183
C52   C     C_R   0.936037 0.561346 0.583085 -0.103133
C53   C     C_R   0.622301 0.066347 0.917640 -0.110239
C54   C     C_R   0.438942 0.374153 0.582999 -0.108914
C55   C     C_R   0.541237 0.911608 0.419402 -0.113463
C56   C     C_R   0.070103 0.626150 0.082260 -0.109820
C57   C     C_R   0.370777 0.442542 0.417619 -0.098063
C58   C     C_R   0.540715 0.911913 0.080544 -0.112016
C59   C     C_R   0.073042 0.629647 0.417771 -0.109963
C60   C     C_R   0.371685 0.441275 0.082573 -0.099192
C61   C     C_R   0.983764 0.507905 0.936721 -0.066304
C62   C     C_R   0.517182 0.002861 0.564857 -0.061947
C63   C     C_R   0.487009 0.476565 0.936273 -0.057709
C64   C     C_R   0.993281 0.515175 0.564253 -0.058544
C65   C     C_R   0.517910 0.005581 0.935485 -0.063272
C66   C     C_R   0.485581 0.477480 0.564069 -0.058522
C67   C     C_R   0.496158 0.969550 0.438442 -0.079788
C68   C     C_R   0.014188 0.522806 0.063267 -0.063347
C69   C     C_R   0.473189 0.492047 0.437354 -0.063558
C70   C     C_R   0.497394 0.971838 0.061873 -0.078506
C71   C     C_R   0.020285 0.527295 0.437550 -0.064418
C72   C     C_R   0.474298 0.490311 0.062992 -0.060721
C73   C     C_R   0.021610 0.449020 0.912824 0.332508
C74   C     C_R   0.421557 0.965648 0.589555 0.321997
C75   C     C_R   0.549734 0.573749 0.912819 0.318152
C76   C     C_R   0.028002 0.453076 0.587945 0.317953
C77   C     C_R   0.422133 0.968141 0.910877 0.321116
C78   C     C_R   0.547938 0.574468 0.587702 0.317840
C79   C     C_R   0.443618 0.014359 0.414292 0.320633
C80   C     C_R   0.978496 0.425845 0.086967 0.314198
C81   C     C_R   0.570929 0.555304 0.414270 0.315710
C82   C     C_R   0.446320 0.017676 0.086340 0.323284
C83   C     C_R   0.985498 0.429458 0.414481 0.313647
C84   C     C_R   0.571863 0.553521 0.086176 0.317133
C85   C     C_R   0.996171 0.431426 0.869724 0.269488
C86   C     C_R   0.432711 0.998595 0.631934 0.279315
C87   C     C_R   0.571144 0.565165 0.870148 0.279459
C88   C     C_R   0.996529 0.430808 0.630462 0.280908
C89   C     C_R   0.433020 0.000068 0.868396 0.278914
C90   C     C_R   0.569920 0.565499 0.630268 0.280212
C91   C     C_R   0.429963 0.992927 0.370765 0.280030
C92   C     C_R   0.007025 0.434733 0.129784 0.278752
C93   C     C_R   0.563601 0.574747 0.371306 0.279621
C94   C     C_R   0.432218 0.995297 0.129794 0.280472
C95   C     C_R   0.011702 0.436611 0.371458 0.277830
C96   C     C_R   0.564137 0.573593 0.129055 0.280091
N1    N     N_R   0.968882 0.337200 0.154696 0.169271
O27   O     O_R   0.901901 0.319541 0.185750 -0.291681
O28   O     O_R   0.015687 0.277355 0.151226 -0.286535
N2    N     N_R   0.373863 0.035117 0.345858 0.169535
O29   O     O_R   0.279079 0.021784 0.357826 -0.283613
O30   O     O_R   0.416797 0.085804 0.310791 -0.287973
N3    N     N_R   0.662391 0.635093 0.153405 0.169204
O31   O     O_R   0.683048 0.587167 0.184130 -0.291517
O32   O     O_R   0.719950 0.741915 0.149816 -0.287767
N4    N     N_R   0.974228 0.338003 0.347235 0.169410
O33   O     O_R   0.905290 0.317201 0.316616 -0.290973
O34   O     O_R   0.023005 0.280040 0.350851 -0.288315
N5    N     N_R   0.377641 0.038602 0.155039 0.169265
O35   O     O_R   0.284199 0.028508 0.143030 -0.282651
O36   O     O_R   0.420685 0.087255 0.190417 -0.288769
N6    N     N_R   0.662099 0.636173 0.347072 0.168935
O37   O     O_R   0.683051 0.588170 0.316429 -0.291650
O38   O     O_R   0.719740 0.742987 0.350700 -0.288313
N7    N     N_R   0.336910 0.959627 0.657927 0.169289
O39   O     O_R   0.324163 0.896101 0.689657 -0.289753
O40   O     O_R   0.274210 0.003323 0.654700 -0.284218
N8    N     N_R   0.039066 0.376364 0.844480 0.158405
O41   O     O_R   0.032353 0.284812 0.857040 -0.277724
O42   O     O_R   0.086100 0.418460 0.808779 -0.293043
N9    N     N_R   0.630840 0.662959 0.655102 0.170031
O43   O     O_R   0.582626 0.681823 0.686235 -0.290917
O44   O     O_R   0.737616 0.721247 0.651520 -0.287378
N10   N     N_R   0.337020 0.960707 0.842499 0.169399
O45   O     O_R   0.324130 0.896863 0.810836 -0.289414
O46   O     O_R   0.274184 0.004251 0.845737 -0.284128
N11   N     N_R   0.033104 0.370141 0.655372 0.170376
O47   O     O_R   0.984858 0.263367 0.651787 -0.286903
O48   O     O_R   0.099841 0.418515 0.686577 -0.289127
N12   N     N_R   0.632367 0.662883 0.845500 0.169813
O49   O     O_R   0.584328 0.682439 0.814515 -0.290693
O50   O     O_R   0.739162 0.720788 0.849083 -0.287819
N13   N     N_R   0.913221 0.319458 0.067693 0.141950
O51   O     O_R   0.829249 0.299877 0.044298 -0.341670
O52   O     O_R   0.941457 0.244295 0.071102 -0.276323
N14   N     N_R   0.405744 0.082317 0.433574 0.146388
O53   O     O_R   0.431532 0.177621 0.417452 -0.296042
O54   O     O_R   0.346360 0.049936 0.467487 -0.326773
N15   N     N_R   0.677722 0.596261 0.066306 0.138633
O55   O     O_R   0.697932 0.532699 0.042651 -0.343207
O56   O     O_R   0.751747 0.700161 0.069535 -0.280067
N16   N     N_R   0.923474 0.323850 0.434606 0.139321
O57   O     O_R   0.839687 0.303150 0.458329 -0.344961
O58   O     O_R   0.954855 0.250943 0.431753 -0.278951
N17   N     N_R   0.410470 0.087650 0.067449 0.146920
O59   O     O_R   0.439019 0.183533 0.083718 -0.296289
O60   O     O_R   0.350316 0.056565 0.033717 -0.326976
N18   N     N_R   0.676609 0.598706 0.434320 0.138767
O61   O     O_R   0.697202 0.535480 0.457976 -0.343434
O62   O     O_R   0.749865 0.702913 0.431364 -0.280421
N19   N     N_R   0.314412 0.894461 0.571729 0.143646
O63   O     O_R   0.297627 0.810688 0.548722 -0.335409
O64   O     O_R   0.234902 0.916127 0.576444 -0.278214
N20   N     N_R   0.085807 0.407687 0.932315 0.147103
O65   O     O_R   0.185360 0.476386 0.945084 -0.327491
O66   O     O_R   0.038043 0.305347 0.944481 -0.291549
N21   N     N_R   0.587851 0.680888 0.568603 0.138157
O67   O     O_R   0.522806 0.699501 0.545206 -0.339854
O68   O     O_R   0.690517 0.757676 0.572602 -0.279978
N22   N     N_R   0.315075 0.897697 0.928889 0.144407
O69   O     O_R   0.297939 0.813888 0.951910 -0.335632
O70   O     O_R   0.236178 0.920353 0.924450 -0.277038
N23   N     N_R   0.095106 0.413714 0.568952 0.138054
O71   O     O_R   0.178756 0.479045 0.545572 -0.338201
O72   O     O_R   0.069887 0.311281 0.573074 -0.280702
N24   N     N_R   0.590615 0.680006 0.932208 0.138685
O73   O     O_R   0.526094 0.699148 0.955731 -0.339904
O74   O     O_R   0.693683 0.755933 0.928437 -0.279762

loop_
_geom_bond_atom_site_label_1
_geom_bond_atom_site_label_2
_geom_bond_distance
_ccdc_geom_bond_type
O16   C4    1.284246 A    
C16   C23   1.199144 T    
O15   Cr3   1.912043 S    
N7    O39   1.300819 A    
C76   C88   1.413882 A    
O18   Cr3   1.911831 S    
C26   C38   1.404467 A    
H18   C57   1.084206 S    
C45   C57   1.386558 A    
N17   O59   1.301331 A    
C52   C64   1.392508 A    
O22   Cr4   1.911983 S    
C34   C94   1.417189 A    
O19   C7    1.284377 A    
C83   N16   1.438156 S    
O4    C6    1.278911 A    
O6    Cr3   2.024283 S    
N21   O67   1.301438 A    
C12   C32   1.477088 S    
N7    O40   1.300845 A    
N5    O35   1.301311 A    
C78   N21   1.439061 S    
C31   C91   1.417383 A    
O20   Cr5   1.912760 S    
C42   C54   1.386307 A    
O14   Cr2   1.911971 S    
O19   Cr4   1.912606 S    
C29   C89   1.416490 A    
C25   C37   1.406571 A    
C56   C68   1.392613 A    
C9    C35   1.478207 S    
C58   C70   1.391681 A    
C82   N17   1.438016 S    
Cr6   O26   1.969544 S    
O21   C9    1.284506 A    
C28   C88   1.416840 A    
C59   C71   1.392364 A    
N19   O64   1.300344 A    
N13   O52   1.300368 A    
C28   C40   1.405296 A    
C83   C95   1.413151 A    
O5    Cr2   2.024203 S    
C3    C29   1.475544 S    
C66   C78   1.410064 A    
N8    O41   1.300672 A    
C34   C46   1.405236 A    
C74   N19   1.439110 S    
O11   Cr5   2.025112 S    
C18   C69   1.431671 S    
C37   C49   1.386143 A    
C48   C60   1.386391 A    
C11   C31   1.476262 S    
N20   O65   1.300763 A    
C8    C34   1.475649 S    
H14   C55   1.084383 S    
C7    C33   1.478372 S    
O12   Cr6   2.024440 S    
O21   Cr6   1.912111 S    
C36   C96   1.416936 A    
C63   C75   1.409939 A    
C17   C22   1.198610 T    
N3    O32   1.300833 A    
C22   C65   1.430443 S    
N16   O57   1.301345 A    
H10   C46   1.083486 S    
N1    O28   1.300812 A    
C61   C73   1.406692 A    
C84   C96   1.413264 A    
N4    O34   1.300807 A    
C14   C67   1.430567 S    
O2    Cr2   2.025103 S    
C26   C86   1.416528 A    
O1    C3    1.278852 A    
C25   C85   1.417761 A    
C40   C52   1.386136 A    
C96   N3    1.432856 S    
O11   C7    1.279718 A    
N5    O36   1.301325 A    
H16   C59   1.084214 S    
H11   C47   1.083359 S    
H23   C52   1.084221 S    
O12   C8    1.280265 A    
N17   O60   1.301301 A    
O13   C1    1.284185 A    
N13   O51   1.301346 A    
C93   N6    1.432915 S    
C71   C83   1.409717 A    
C78   C90   1.413883 A    
C30   C90   1.416926 A    
C51   C63   1.392432 A    
N10   O46   1.300813 A    
C24   C63   1.431347 S    
C31   C43   1.405437 A    
N21   O68   1.300365 A    
Cr1   O25   1.968929 S    
O22   C10   1.284340 A    
C33   C93   1.416938 A    
O7    C9    1.279851 A    
C55   C67   1.391833 A    
N19   O63   1.301443 A    
C53   C65   1.392781 A    
O18   C6    1.284340 A    
C29   C41   1.404569 A    
N22   O69   1.301382 A    
C35   C47   1.405974 A    
N23   O71   1.301436 A    
C68   C80   1.409566 A    
O2    C4    1.279585 A    
C49   C61   1.391574 A    
N9    O44   1.300875 A    
N24   O74   1.300365 A    
C16   C71   1.431503 S    
O14   C2    1.284355 A    
O16   Cr1   1.912645 S    
C90   N9    1.432697 S    
C67   C79   1.411398 A    
C18   C21   1.199275 T    
N14   O54   1.301218 A    
C6    C26   1.475555 S    
C47   C59   1.386503 A    
N11   O47   1.300880 A    
C5    C25   1.476618 S    
C62   C74   1.409825 A    
H22   C53   1.084248 S    
N23   O72   1.300373 A    
C13   C68   1.430992 S    
C41   C53   1.386062 A    
H21   C54   1.084207 S    
O15   C3    1.284318 A    
N3    O31   1.300825 A    
H24   C51   1.084210 S    
C95   N4    1.433004 S    
C27   C39   1.405463 A    
C27   C87   1.416920 A    
C32   C92   1.416893 A    
O8    C10   1.279658 A    
O23   Cr5   1.911723 S    
C46   C58   1.384717 A    
C91   N2    1.436528 S    
O4    Cr1   2.023861 S    
C80   C92   1.413098 A    
C39   C51   1.386216 A    
O5    C1    1.279570 A    
H15   C60   1.084196 S    
N20   O66   1.300666 A    
O24   Cr6   1.911703 S    
N6    O37   1.300839 A    
C81   C93   1.413229 A    
N18   O62   1.300360 A    
C44   C56   1.386329 A    
C79   C91   1.415212 A    
Cr2   O25   1.968679 S    
C4    C30   1.477929 S    
O8    Cr5   2.024013 S    
C87   N12   1.432734 S    
C77   C89   1.413266 A    
H20   C49   1.084185 S    
H8    C44   1.083420 S    
N12   O50   1.300862 A    
C32   C44   1.405294 A    
C75   C87   1.413665 A    
N10   O45   1.300841 A    
C1    C27   1.477852 S    
N4    O33   1.300845 A    
O20   C8    1.283414 A    
Cr5   O26   1.968970 S    
N2    O29   1.301268 A    
C2    C28   1.477668 S    
C15   C72   1.431372 S    
C33   C45   1.405927 A    
O17   Cr2   1.912744 S    
C64   C76   1.410072 A    
C77   N22   1.438876 S    
O10   Cr4   2.024796 S    
C17   C70   1.430440 S    
O3    Cr3   2.024177 S    
H2    C38   1.083506 S    
Cr4   O26   1.968650 S    
O13   Cr1   1.911652 S    
C15   C24   1.199101 T    
H6    C42   1.083404 S    
N16   O58   1.300348 A    
H19   C50   1.084228 S    
O7    Cr4   2.024236 S    
C81   N18   1.438291 S    
C21   C66   1.431624 S    
H9    C45   1.083311 S    
C43   C55   1.384846 A    
O23   C11   1.283623 A    
O24   C12   1.284521 A    
H1    C37   1.083416 S    
C80   N13   1.438416 S    
C76   N23   1.439136 S    
C69   C81   1.409758 A    
N14   O53   1.301360 A    
C57   C69   1.392444 A    
C13   C20   1.198723 T    
N2    O30   1.301302 A    
N12   O49   1.300806 A    
O1    Cr1   2.024861 S    
C14   C19   1.198697 T    
O17   C5    1.283549 A    
C54   C66   1.392547 A    
C35   C95   1.416919 A    
C94   N5    1.436643 S    
C73   N20   1.432131 S    
O3    C5    1.280466 A    
O6    C2    1.279874 A    
C20   C61   1.430537 S    
C60   C72   1.392406 A    
C89   N10   1.432960 S    
N6    O38   1.300812 A    
C70   C82   1.411321 A    
H5    C41   1.083498 S    
H4    C40   1.083408 S    
C75   N24   1.438908 S    
O9    Cr6   2.023893 S    
C82   C94   1.415249 A    
C72   C84   1.409746 A    
N24   O73   1.301430 A    
C30   C42   1.405346 A    
C84   N15   1.438488 S    
N8    O42   1.301397 A    
C79   N14   1.438405 S    
C88   N11   1.432668 S    
H17   C58   1.084353 S    
C38   C50   1.386031 A    
C85   N8    1.437695 S    
C36   C48   1.405762 A    
C19   C62   1.430511 S    
N15   O55   1.301386 A    
C73   C85   1.412734 A    
N18   O61   1.301353 A    
N11   O48   1.300798 A    
N9    O43   1.300807 A    
C92   N1    1.432977 S    
H7    C43   1.083491 S    
O9    C11   1.280262 A    
C23   C64   1.431396 S    
C74   C86   1.413416 A    
O10   C12   1.279155 A    
C65   C77   1.409743 A    
N1    O27   1.300838 A    
H12   C48   1.083354 S    
H13   C56   1.084206 S    
Cr3   O25   1.969557 S    
C50   C62   1.392842 A    
N22   O70   1.300368 A    
H3    C39   1.083395 S    
C86   N7    1.432890 S    
N15   O56   1.300359 A    
C10   C36   1.478076 S    
