data_mof_unit_25989.cif
_audit_creation_date              2013-03-05T15:52:27-0500
_audit_creation_method            fapswitch 2.2
_symmetry_space_group_name_H-M    P1
_symmetry_Int_Tables_number       1
_space_group_crystal_system       triclinic
_cell_length_a                    27.787488
_cell_length_b                    10.808239
_cell_length_c                    9.610937
_cell_angle_alpha                 92.370504
_cell_angle_beta                  90.013908
_cell_angle_gamma                 92.958548
_cell_volume                      2880.16706535

loop_
_atom_site_label
_atom_site_type_symbol
_atom_site_description
_atom_site_fract_x
_atom_site_fract_y
_atom_site_fract_z
_atom_type_partial_charge
O1    O     O_R   0.500000 0.319640 0.618810 -0.579897
O2    O     O_R   0.500000 0.319660 0.381240 -0.539596
C1    C     C_R   0.497578 0.262521 0.497277 0.915741
O3    O     O_R   0.430260 0.500010 0.618770 -0.539570
O4    O     O_R   0.430270 0.500030 0.381200 -0.559116
C2    C     C_R   0.407656 0.503485 0.500225 0.914821
Cu1   Cu    Cu3+1 0.500000 0.499990 0.640660 0.990495
Cu2   Cu    Cu3+1 0.500000 0.500010 0.359340 1.001692
O5    O     O_R   0.500000 0.680340 0.618760 -0.575246
O6    O     O_R   0.500000 0.680360 0.381190 -0.571751
O7    O     O_R   0.569730 0.499970 0.618800 -0.610388
O8    O     O_R   0.569740 0.499990 0.381230 -0.612278
C3    C     C_R   0.495720 0.736875 0.504384 0.842169
C4    C     C_R   0.592469 0.502020 0.500068 0.792760
C5    C     C_R   0.176192 0.407084 0.491011 0.594903
O9    O     O_2   0.198841 0.299538 0.481488 -0.501697
N1    N     N_R   0.202593 0.517310 0.501723 -0.458891
C6    C     C_R   0.180933 0.628025 0.510790 0.581157
C7    C     C_R   0.279542 0.529333 0.378350 -0.133773
C8    C     C_R   0.329605 0.526038 0.377299 -0.221706
C9    C     C_R   0.329169 0.497878 0.626440 -0.148198
C10   C     C_R   0.279055 0.501289 0.627679 0.319931
C11   C     C_R   0.254112 0.516561 0.503015 0.277006
C12   C     C_R   0.102392 0.518243 0.499764 -0.041469
C13   C     C_R   0.125654 0.405462 0.489933 -0.026339
C14   C     C_R   0.098149 0.293724 0.480209 -0.127571
C15   C     C_R   0.130458 0.630579 0.510218 -0.026552
C16   C     C_R   0.354844 0.509509 0.501269 -0.110236
H1    H     H_    0.347860 0.485070 0.723279 0.216231
H2    H     H_    0.115169 0.205682 0.474468 0.188843
C17   C     C_R   0.645516 0.508421 0.499753 -0.097631
C18   C     C_R   0.972422 0.405321 0.478916 0.043752
C19   C     C_R   0.977193 0.633132 0.518037 0.044494
C20   C     C_R   0.949538 0.519381 0.498408 0.070956
C21   C     C_R   0.943118 0.295638 0.453135 -0.198452
C22   C     C_R   0.893201 0.297336 0.451712 -0.140824
C23   C     C_R   0.870381 0.408267 0.475253 -0.034769
C24   C     C_R   0.898351 0.519655 0.498327 -0.043414
C25   C     C_R   0.874986 0.631271 0.521398 -0.018813
C26   C     C_R   0.824407 0.629330 0.521385 0.540528
N2    N     N_R   0.798123 0.519991 0.498528 -0.448314
C27   C     C_R   0.819929 0.410532 0.475596 0.594290
C28   C     C_R   0.721598 0.519553 0.624691 -0.190677
C29   C     C_R   0.671389 0.514470 0.625641 -0.225462
C30   C     C_R   0.670753 0.509966 0.373055 -0.314280
C31   C     C_R   0.721256 0.518085 0.371764 0.543908
C32   C     C_R   0.746571 0.519745 0.498286 0.278047
O10   O     O_2   0.792814 0.304251 0.453649 -0.523790
C33   C     C_R   0.023529 0.404508 0.484866 0.043589
C34   C     C_R   0.051209 0.518663 0.499157 0.072712
C35   C     C_R   0.028353 0.633208 0.512926 0.042801
C36   C     C_R   0.048177 0.292945 0.478071 -0.197649
H3    H     H_    0.652902 0.514280 0.724830 0.175927
H4    H     H_    0.741206 0.522114 0.722242 0.162400
H5    H     H_    0.872504 0.210664 0.431823 0.187939
H6    H     H_    0.957492 0.206377 0.431078 0.138281
H7    H     H_    0.030019 0.202478 0.473483 0.135955
O11   O     O_2   0.208182 0.735081 0.520834 -0.506758
C37   C     C_R   0.107695 0.742733 0.519280 -0.126465
H8    H     H_    0.348468 0.535579 0.279432 0.205116
H9    H     H_    0.260373 0.541068 0.282065 0.179669
H10   H     H_    0.128461 0.830455 0.525563 0.193747
C38   C     C_R   0.952451 0.743177 0.543212 -0.201330
C39   C     C_R   0.902443 0.741998 0.544568 -0.147280
O12   O     O_2   0.801645 0.735698 0.543460 -0.553711
C40   C     C_R   0.057747 0.744329 0.520323 -0.197099
H11   H     H_    0.970558 0.832322 0.564881 0.138157
H12   H     H_    0.651470 0.504066 0.274874 0.174761
H13   H     H_    0.885353 0.828883 0.564171 0.185958
H14   H     H_    0.043427 0.835038 0.524736 0.137537
H15   H     H_    0.558616 0.114042 0.379657 0.164413
C41   C     C_R   0.411810 0.126626 0.601059 0.409803
C42   C     C_R   0.380436 0.075938 0.698995 0.201926
C43   C     C_R   0.387143 0.958771 0.744326 -0.223537
H16   H     H_    0.362841 0.922460 0.822705 0.226663
C44   C     C_R   0.424099 0.887668 0.691217 0.229765
C45   C     C_R   0.457772 0.937728 0.590998 -0.096073
C46   C     C_R   0.453960 0.065056 0.561332 -0.080808
C47   C     C_R   0.492056 0.128134 0.491419 -0.113523
C48   C     C_R   0.529458 0.064533 0.432316 -0.265306
C49   C     C_R   0.530866 0.937850 0.443499 0.503795
C50   C     C_R   0.494482 0.872039 0.516718 -0.153726
C51   C     C_R   0.565666 0.662091 0.149937 -0.082281
H17   H     H_    0.569172 0.668723 0.259591 0.229458
C52   C     C_R   0.597457 0.741611 0.080869 -0.166058
H18   H     H_    0.622967 0.802594 0.139259 0.175308
C53   C     C_R   0.596398 0.743634 0.937616 -0.228495
H19   H     H_    0.620945 0.806373 0.883902 0.156535
C54   C     C_R   0.563906 0.665175 0.862631 -0.107545
H20   H     H_    0.565707 0.674102 0.753278 0.189257
C55   C     C_R   0.531576 0.581026 0.928640 0.221360
C56   C     C_R   0.531935 0.580331 0.078028 0.136360
N3    N     N_R   0.500460 0.501210 0.147910 -0.226764
C57   C     C_R   0.470128 0.421999 0.068206 0.341706
H21   H     H_    0.445831 0.359336 0.861825 0.184424
C58   C     C_R   0.470174 0.422735 0.921138 -0.033025
N4    N     N_R   0.500480 0.501290 0.852040 -0.212258
O13   O     O_3   0.746297 0.515106 0.247439 -0.563218
C59   C     C_3   0.742069 0.629047 0.183210 -0.312115
H22   H     H_    0.754331 0.708910 0.253688 0.183179
H23   H     H_    0.704570 0.640201 0.147151 0.151777
H24   H     H_    0.765609 0.630239 0.090031 0.201793
O14   O     O_3   0.399088 0.231206 0.535177 -0.597136
C60   C     C_3   0.366023 0.192944 0.428067 -0.189914
H25   H     H_    0.381925 0.125959 0.352158 0.186045
H26   H     H_    0.356413 0.274776 0.370699 0.215542
H27   H     H_    0.331850 0.151716 0.470304 0.198485
Br1   Br    Br    0.328393 0.167205 0.774531 -0.400884
Br2   Br    Br    0.245579 0.484680 0.800690 -0.408818
Br3   Br    Br    0.426872 0.740074 0.794108 -0.490783
O15   O     O_3   0.568372 0.877986 0.380473 -0.596979
C61   C     C_3   0.606233 0.873536 0.477600 -0.364933
H28   H     H_    0.594651 0.822088 0.570806 0.146642
H29   H     H_    0.620806 0.968379 0.509301 0.187236
H30   H     H_    0.635895 0.823111 0.427701 0.190807
Br4   Br    Br    0.426875 0.302679 0.147996 -0.493384

loop_
_geom_bond_atom_site_label_1
_geom_bond_atom_site_label_2
_geom_bond_distance
_ccdc_geom_bond_type
C45   C46   1.426148 A    
C53   H19   1.083031 S    
N3    C57   1.378805 A    
N2    C27   1.366702 A    
H21   C58   1.082452 S    
C12   C15   1.408759 A    
C4    C17   1.472087 S    
C1    C47   1.451436 S    
C60   H26   1.105543 S    
C49   C50   1.410959 A    
Cu1   Cu2   2.703758 S    
C40   H14   1.076183 S    
C30   C31   1.401671 A    
Cu1   O7    1.949039 S    
C51   C56   1.414466 A    
N1    C11   1.432072 S    
C43   C44   1.398190 A    
C22   C23   1.395319 A    
C37   C40   1.388946 A    
O4    C2    1.305419 A    
O7    C4    1.304963 A    
C5    C13   1.403548 A    
C5    O9    1.349936 S    
O13   C59   1.410405 S    
C5    N1    1.366645 A    
C42   C43   1.377758 A    
C23   C27   1.403405 A    
O5    C3    1.287984 A    
C60   H25   1.114073 S    
C41   C46   1.421299 A    
C29   H3    1.083044 S    
C6    O11   1.349748 S    
C2    C16   1.472309 S    
C51   H17   1.057487 S    
C12   C13   1.408706 A    
C8    H8    1.082955 S    
Cu2   O8    1.949244 S    
C33   C36   1.416358 A    
C31   O13   1.382931 S    
O1    Cu1   1.951890 S    
C9    C10   1.394975 A    
O3    Cu1   1.949250 S    
C61   H29   1.113040 S    
H15   C48   1.084788 S    
N1    C6    1.366577 A    
C52   C53   1.378205 A    
C12   C34   1.422511 A    
C38   H11   1.076184 S    
C17   C29   1.404707 A    
C6    C15   1.404280 A    
C18   C21   1.416244 A    
C49   O15   1.381750 S    
C44   C45   1.444749 A    
O3    C2    1.303698 A    
C43   H16   1.083909 S    
C55   C56   1.436126 A    
C57   Br4   1.902121 S    
C46   C47   1.414444 A    
C48   C49   1.380416 A    
C42   Br1   1.918322 S    
C8    C16   1.404824 A    
C34   C35   1.421697 A    
C13   C14   1.395260 A    
C52   H18   1.082952 S    
C9    H1    1.083040 S    
C3    C50   1.462966 S    
C38   C39   1.389052 A    
O1    C1    1.298464 A    
C35   C40   1.416437 A    
C18   C20   1.421641 A    
C7    C11   1.399278 A    
C28   C29   1.393463 A    
C23   C24   1.408502 A    
C25   C39   1.395545 A    
C14   C36   1.388321 A    
C28   H4    1.082919 S    
C59   H22   1.114059 S    
C19   C38   1.416538 A    
C10   Br2   1.915889 S    
C58   N4    1.358012 A    
C30   H12   1.082963 S    
C19   C20   1.421568 A    
N2    C32   1.432364 S    
C27   O10   1.349918 S    
C39   H13   1.083661 S    
C55   N4    1.379010 A    
C57   C58   1.413816 A    
Cu2   O6    1.951890 S    
C26   N2    1.366608 A    
C51   C52   1.388831 A    
C9    C16   1.405605 A    
O8    C4    1.303852 A    
C14   H2    1.083682 S    
C26   O12   1.349710 S    
C53   C54   1.386986 A    
C54   C55   1.414363 A    
C25   C26   1.404542 A    
Cu1   O5    1.969233 S    
C31   C32   1.403656 A    
C37   H10   1.083663 S    
Cu1   N4    2.031064 S    
O15   C61   1.410311 S    
C59   H23   1.112054 S    
C21   H6    1.076155 S    
C20   C24   1.422531 A    
O2    Cu2   1.969233 S    
Cu2   N3    2.032657 S    
C41   C42   1.392808 A    
O6    C3    1.317903 A    
O4    Cu2   1.949042 S    
C41   O14   1.379813 S    
C19   C35   1.422441 A    
C7    C8    1.393429 A    
O2    C1    1.297061 A    
C22   H5    1.083679 S    
C15   C37   1.395534 A    
C24   C25   1.408829 A    
C45   C50   1.444818 A    
C7    H9    1.082875 S    
C56   N3    1.384885 A    
C61   H28   1.112698 S    
C61   H30   1.109670 S    
C18   C33   1.421776 A    
C36   H7    1.076158 S    
C47   C48   1.384595 A    
C59   H24   1.109233 S    
C44   Br3   1.916176 S    
C33   C34   1.421535 A    
C17   C30   1.405599 A    
O14   C60   1.414216 S    
C10   C11   1.403907 A    
C21   C22   1.388222 A    
C54   H20   1.060329 S    
C28   C32   1.399271 A    
C60   H27   1.111991 S    
