data_mof_unit_62228.cif
_audit_creation_date              2012-10-26T18:37:16-0400
_audit_creation_method            fapswitch 2.2
_symmetry_space_group_name_H-M    P1
_symmetry_Int_Tables_number       1
_space_group_crystal_system       triclinic
_cell_length_a                    12.74535
_cell_length_b                    13.9024
_cell_length_c                    19.35491
_cell_angle_alpha                 90.238388
_cell_angle_beta                  92.935884
_cell_angle_gamma                 97.973533
_cell_volume                      3391.68143256

loop_
_atom_site_label
_atom_site_type_symbol
_atom_type_description
_atom_site_fract_x
_atom_site_fract_y
_atom_site_fract_z
_atom_type_partial_charge
C1    C     C_R   0.483549 0.315808 0.499313 0.541384
C2    C     C_2   0.971762 0.526604 0.519626 -0.152980
C3    C     C_1   0.854633 0.519203 0.514071 0.159900
C4    C     C_1   0.145367 0.480796 0.485929 0.159900
C5    C     C_R   0.500742 0.503134 0.367373 0.527829
C6    C     C_R   0.499258 0.496866 0.632627 0.527830
C7    C     C_R   0.429663 0.557340 0.252014 0.237776
C8    C     C_R   0.570340 0.442663 0.747986 0.237775
C9    C     C_R   0.428780 0.552836 0.179954 -0.044236
C10   C     C_R   0.571223 0.447168 0.820046 -0.044237
C11   C     C_R   0.501565 0.504377 0.146313 -0.016526
C12   C     C_R   0.516451 0.684192 0.500687 0.541384
C13   C     C_R   0.498436 0.495625 0.853687 -0.016526
C14   C     C_R   0.575635 0.459260 0.186015 -0.129093
C15   C     C_R   0.424363 0.540739 0.813985 -0.129093
C16   C     C_R   0.575850 0.461241 0.257947 -0.160071
C17   C     C_R   0.424148 0.538758 0.742053 -0.160071
C18   C     C_R   0.502304 0.508468 0.291679 0.008103
C19   C     C_R   0.497696 0.491533 0.708321 0.008101
C20   C     C_R   0.499278 0.498028 0.929889 0.347857
C21   C     C_R   0.500723 0.501974 0.070111 0.347857
C22   C     C_1   0.525883 0.787538 0.500925 -0.004456
C23   C     C_1   0.474117 0.212462 0.499075 -0.004457
C24   C     C_2   0.543562 0.978427 0.501351 -0.112362
C25   C     C_2   0.456438 0.021573 0.498649 -0.112362
C26   C     C_1   0.465575 0.125399 0.498866 -0.036427
C27   C     C_1   0.534425 0.874601 0.501133 -0.036426
C28   C     C_2   0.028238 0.473396 0.480373 -0.152981
Cu1   Cu    Cu3+1 0.395330 0.493960 0.495610 1.010890
Cu2   Cu    Cu3+1 0.604670 0.506040 0.504390 1.010891
H1    H     H_    0.372061 0.589551 0.150371 0.169965
H2    H     H_    0.986057 0.422274 0.442575 0.133622
H3    H     H_    0.389860 0.635617 0.327137 0.337552
H4    H     H_    0.610143 0.364385 0.672864 0.337550
H5    H     H_    0.627944 0.410456 0.849629 0.169965
H6    H     H_    0.633000 0.421553 0.161600 0.155457
H7    H     H_    0.366996 0.578445 0.838400 0.155457
H8    H     H_    0.632314 0.423949 0.287328 0.140003
H9    H     H_    0.367682 0.576048 0.712672 0.140004
H10   H     H_    0.377946 0.979234 0.496263 0.143394
H11   H     H_    0.622054 0.020766 0.503737 0.143394
H12   H     H_    0.013943 0.577725 0.557425 0.133623
N1    N     N_R   0.571516 0.456253 0.037106 -0.216226
N2    N     N_R   0.428484 0.543750 0.962894 -0.216226
N3    N     N_R   0.570787 0.454321 0.968383 -0.223868
N4    N     N_R   0.429214 0.545682 0.031617 -0.223867
N5    N     N_1   0.238030 0.484880 0.489000 -0.177440
N6    N     N_1   0.761970 0.515120 0.511000 -0.177440
O1    O     O_R   0.399110 0.356330 0.495750 -0.485903
O2    O     O_3   0.639854 0.388255 0.719006 -0.679471
O3    O     O_R   0.600890 0.643670 0.504250 -0.485903
O4    O     O_R   0.575900 0.366540 0.503170 -0.496232
O5    O     O_R   0.424100 0.633460 0.496830 -0.496232
O6    O     O_R   0.411580 0.494880 0.396430 -0.477833
O7    O     O_R   0.588420 0.505120 0.603570 -0.477832
O8    O     O_R   0.588360 0.505090 0.403850 -0.500606
O9    O     O_R   0.411640 0.494910 0.596150 -0.500606
O10   O     O_3   0.360151 0.611750 0.280994 -0.679474

loop_
_geom_bond_atom_site_label_1
_geom_bond_atom_site_label_2
_ccdc_geom_bond_type
Cu1   O9    S    
Cu2   O3    S    
C10   C13   A    
H3    O10   S    
C24   H11   S    
C12   C22   S    
C9    C11   A    
Cu2   O7    S    
C5    O6    A    
C5    O8    A    
C12   O5    A    
C24   C27   S    
C6    O7    A    
C7    C18   A    
C2    C3    S    
Cu1   O1    S    
C6    C19   S    
N1    N3    A    
C6    O9    A    
Cu1   Cu2   S    
Cu1   O5    S    
C2    H12   S    
Cu2   N6    S    
C20   N2    A    
Cu1   N5    S    
C1    C23   S    
C7    C9    A    
C22   C27   T    
C13   C15   A    
C25   H10   S    
C14   H6    S    
C1    O4    A    
C14   C16   A    
H4    O2    S    
C8    C19   A    
Cu1   O6    S    
C9    H1    S    
C10   H5    S    
C8    O2    S    
C3    N6    T    
C28   H2    S    
C12   O3    A    
C24   C25   D    
C16   C18   A    
C21   N4    A    
C17   H9    S    
C23   C26   T    
C16   H8    S    
C11   C14   A    
C15   C17   A    
Cu2   O4    S    
C17   C19   A    
C2    C28   D    
C5    C18   S    
C7    O10   S    
C13   C20   S    
C4    C28   S    
C25   C26   S    
C21   N1    A    
Cu2   O8    S    
C11   C21   S    
C8    C10   A    
C15   H7    S    
C20   N3    A    
N2    N4    A    
C4    N5    T    
C1    O1    A    
