data_mof_unit_24147.cif
_audit_creation_date              2012-12-10T17:19:25-0500
_audit_creation_method            fapswitch 2.2
_symmetry_space_group_name_H-M    P1
_symmetry_Int_Tables_number       1
_space_group_crystal_system       triclinic
_cell_length_a                    15.070398
_cell_length_b                    10.908382
_cell_length_c                    9.72178
_cell_angle_alpha                 89.831635
_cell_angle_beta                  90.110945
_cell_angle_gamma                 93.655091
_cell_volume                      1594.93873546

loop_
_atom_site_label
_atom_site_type_symbol
_atom_type_description
_atom_site_fract_x
_atom_site_fract_y
_atom_site_fract_z
_atom_type_partial_charge
C1    C     C_R   0.491330 0.262211 0.500392 0.784894
C2    C     C_R   0.910624 0.626403 0.506629 0.022242
C3    C     C_R   0.939238 0.290488 0.463356 -0.181018
C4    C     C_R   0.030671 0.287294 0.463923 -0.170086
C5    C     C_R   0.085401 0.395892 0.479341 0.070415
C6    C     C_R   0.045977 0.510272 0.494361 0.037744
C7    C     C_R   0.100024 0.620710 0.507923 0.015474
C8    C     C_R   0.058638 0.732831 0.528693 -0.084523
C9    C     C_R   0.965744 0.737029 0.517563 -0.067319
C10   C     C_R   0.178472 0.391799 0.480419 -0.067465
C11   C     C_R   0.232083 0.501109 0.495757 -0.105962
C12   C     C_R   0.329234 0.497984 0.499241 0.804435
C13   C     C_R   0.193578 0.615158 0.496949 -0.084484
C14   C     C_R   0.409202 0.115439 0.741012 0.002597
C15   C     C_R   0.401226 0.052841 0.866171 -0.178700
C16   C     C_R   0.407821 0.927248 0.869921 0.007073
C17   C     C_R   0.424108 0.865632 0.748805 -0.193801
C18   C     C_R   0.451422 0.929806 0.626591 0.085540
C19   C     C_R   0.446259 0.059732 0.623163 0.053095
C20   C     C_R   0.474406 0.126313 0.501002 -0.148361
C21   C     C_R   0.489936 0.059513 0.379172 -0.034003
C22   C     C_R   0.488823 0.933236 0.382815 -0.163245
C23   C     C_R   0.492856 0.736107 0.501196 0.821483
C24   C     C_R   0.478181 0.868236 0.505577 -0.073709
C25   C     C_R   0.650472 0.607836 0.138881 0.030882
C26   C     C_R   0.730606 0.614745 0.068323 -0.255109
C27   C     C_R   0.728042 0.629988 0.927404 -0.039788
C28   C     C_R   0.646482 0.612277 0.859234 -0.160286
C29   C     C_R   0.573197 0.550792 0.925592 0.159886
C30   C     C_R   0.572823 0.553437 0.074161 0.131978
C31   C     C_R   0.431276 0.450512 0.072901 0.031682
C32   C     C_R   0.426000 0.469767 0.929106 -0.004010
C33   C     C_R   0.670229 0.501654 0.499858 0.809098
C34   C     C_R   0.815682 0.622286 0.512140 -0.089829
C35   C     C_R   0.766480 0.509093 0.498335 -0.100368
C36   C     C_R   0.807902 0.400956 0.479316 -0.228416
C37   C     C_R   0.899754 0.401577 0.478718 0.115916
C38   C     C_R   0.952186 0.513235 0.493800 0.052913
Cu1   Cu    Cu3+1 0.499990 0.499990 0.640660 0.964111
Cu2   Cu    Cu3+1 0.500010 0.500010 0.359340 0.992323
N1    N     N_R   0.500860 0.501210 0.147910 -0.219157
N2    N     N_R   0.500890 0.501290 0.852040 -0.218806
O1    O     O_R   0.499990 0.319640 0.618810 -0.570899
O2    O     O_R   0.500000 0.319660 0.381240 -0.568262
O3    O     O_R   0.370250 0.499960 0.618800 -0.573827
O4    O     O_R   0.370260 0.499980 0.381230 -0.580559
O5    O     O_R   0.500000 0.680340 0.618760 -0.623696
O6    O     O_R   0.500010 0.680360 0.381190 -0.574294
O7    O     O_R   0.629740 0.500020 0.618770 -0.588582
O8    O     O_R   0.629750 0.500040 0.381200 -0.582233
C39   C     C_1   0.766388 0.729032 0.542545 0.242902
N3    N     N_1   0.726570 0.813233 0.568831 -0.259293
C40   C     C_1   0.348655 0.210698 0.729140 0.281984
N4    N     N_1   0.296250 0.283021 0.724395 -0.275563
H1    H     H_    0.376534 0.098302 0.956362 0.156337
C41   C     C_1   0.386206 0.859190 0.994113 0.230070
N5    N     N_1   0.368789 0.804169 0.093452 -0.264725
H2    H     H_    0.409020 0.768160 0.753515 0.178870
H3    H     H_    0.499906 0.885371 0.287553 0.184341
C42   C     C_1   0.361498 0.374947 0.137316 0.316759
N6    N     N_1   0.304767 0.312531 0.184887 -0.280413
C43   C     C_1   0.647796 0.711786 0.228478 0.299918
N7    N     N_1   0.651019 0.799116 0.295739 -0.299157
H4    H     H_    0.791644 0.643113 0.122618 0.160726
C44   C     C_1   0.806597 0.682982 0.860964 0.278501
N8    N     N_1   0.870983 0.726259 0.811536 -0.272984
H5    H     H_    0.639447 0.655456 0.760881 0.197067
H6    H     H_    0.767874 0.315250 0.467364 0.145027
C45   C     C_1   0.338864 0.498347 0.881987 0.317034
N9    N     N_1   0.268304 0.523110 0.848848 -0.254504
H7    H     H_    0.899027 0.205250 0.451214 0.177347
H8    H     H_    0.057817 0.198380 0.452582 0.173468
C46   C     C_1   0.218898 0.276181 0.457468 0.278020
N10   N     N_1   0.250255 0.183440 0.439088 -0.249867
C47   C     C_1   0.249106 0.723500 0.460175 0.245254
N11   N     N_1   0.291867 0.810520 0.427945 -0.253953
C48   C     C_1   0.109109 0.843646 0.574435 0.286280
N12   N     N_1   0.148551 0.932043 0.611466 -0.245247
C49   C     C_1   0.930280 0.857808 0.512629 0.295217
N13   N     N_1   0.903260 0.954731 0.508427 -0.277336
C50   C     C_1   0.511074 0.115362 0.246878 0.306084
N14   N     N_1   0.528196 0.159321 0.140912 -0.281147

loop_
_geom_bond_atom_site_label_1
_geom_bond_atom_site_label_2
_ccdc_geom_bond_type
C8    C9    A    
C29   N2    A    
C46   N10   T    
C35   C36   A    
C50   N14   T    
C7    C8    A    
C48   N12   T    
Cu2   O4    S    
C26   C27   A    
C43   N7    T    
C18   C24   A    
C28   C29   A    
C37   C38   A    
C18   C19   A    
C5    C6    A    
C10   C46   S    
C33   O7    A    
C15   C16   A    
C41   N5    T    
C34   C35   A    
C9    C49   S    
C26   H4    S    
C1    O1    A    
C13   C47   S    
C16   C17   A    
C23   C24   S    
C6    C38   A    
C30   N1    A    
C17   H2    S    
Cu1   O3    S    
C2    C34   A    
C22   H3    S    
C21   C22   A    
Cu1   N2    S    
C23   O5    A    
C39   N3    T    
C28   H5    S    
C12   O4    A    
Cu1   Cu2   S    
C12   O3    A    
Cu1   O1    S    
C25   C26   A    
C40   N4    T    
C42   N6    T    
C15   H1    S    
C31   C42   S    
C3    H7    S    
C47   N11   T    
C16   C41   S    
C29   C30   A    
C27   C44   S    
C2    C38   A    
C1    O2    A    
C31   C32   A    
Cu2   O2    S    
C17   C18   A    
C34   C39   S    
C32   C45   S    
Cu2   N1    S    
Cu1   O7    S    
C21   C50   S    
C8    C48   S    
C22   C24   A    
C3    C4    A    
C4    H8    S    
Cu1   O5    S    
C25   C30   A    
Cu2   O6    S    
C36   C37   A    
C1    C20   S    
C23   O6    A    
C31   N1    A    
C14   C19   A    
C4    C5    A    
C11   C12   S    
C36   H6    S    
C6    C7    A    
C19   C20   A    
C33   O8    A    
C5    C10   A    
C11   C13   A    
Cu2   O8    S    
C33   C35   S    
C25   C43   S    
C45   N9    T    
C10   C11   A    
C49   N13   T    
C7    C13   A    
C14   C40   S    
C20   C21   A    
C3    C37   A    
C44   N8    T    
C27   C28   A    
C32   N2    A    
C14   C15   A    
C2    C9    A    
