data_mof_unit_24081.cif
_audit_creation_date              2012-12-10T17:44:32-0500
_audit_creation_method            fapswitch 2.2
_symmetry_space_group_name_H-M    P1
_symmetry_Int_Tables_number       1
_space_group_crystal_system       triclinic
_cell_length_a                    9.95501
_cell_length_b                    10.725006
_cell_length_c                    15.443791
_cell_angle_alpha                 94.685352
_cell_angle_beta                  68.330297
_cell_angle_gamma                 88.892609
_cell_volume                      1525.06251962

loop_
_atom_site_label
_atom_site_type_symbol
_atom_type_description
_atom_site_fract_x
_atom_site_fract_y
_atom_site_fract_z
_atom_type_partial_charge
C1    C     C_R   0.501811 0.739428 0.493990 0.924571
C2    C     C_R   0.397371 0.421609 0.914695 -0.037523
C3    C     C_R   0.249862 0.451135 0.969462 0.104323
C4    C     C_R   0.491075 0.381058 0.957935 0.057599
C5    C     C_R   0.450846 0.411280 0.054906 0.064641
C6    C     C_R   0.303665 0.444703 0.109427 -0.225028
C7    C     C_R   0.203387 0.458669 0.066884 -0.216076
C8    C     C_R   0.625972 0.317058 0.906480 -0.158342
C9    C     C_R   0.727782 0.300857 0.947081 -0.246203
C10   C     C_R   0.698207 0.350789 0.038983 0.107488
C11   C     C_R   0.560350 0.408569 0.092818 0.084907
C12   C     C_R   0.409989 0.495806 0.676002 0.883452
C13   C     C_R   0.804556 0.343238 0.077790 -0.354035
C14   C     C_R   0.774504 0.389479 0.171753 0.532979
C15   C     C_R   0.538726 0.468519 0.180769 -0.314413
C16   C     C_R   0.267473 0.896975 0.463132 0.594434
C17   C     C_R   0.130218 0.957974 0.498645 -0.317270
C18   C     C_R   0.103445 0.066867 0.559243 -0.244548
C19   C     C_R   0.217326 0.123130 0.576932 0.579551
C20   C     C_R   0.360193 0.067809 0.533074 -0.171506
C21   C     C_R   0.377584 0.943877 0.493404 -0.083301
C22   C     C_R   0.501337 0.873262 0.490191 -0.167640
C23   C     C_R   0.494946 0.261946 0.510444 0.901299
C24   C     C_R   0.616877 0.933051 0.503187 -0.338957
C25   C     C_R   0.614831 0.061595 0.515011 0.527482
C26   C     C_R   0.487025 0.130464 0.526399 -0.201429
C27   C     C_R   0.783096 0.676887 0.614063 -0.207940
C28   C     C_R   0.812768 0.779929 0.660233 -0.437444
C29   C     C_R   0.946149 0.788042 0.667917 0.472772
C30   C     C_R   0.054601 0.688022 0.625462 0.455380
C31   C     C_R   0.033056 0.589006 0.561576 -0.071745
C32   C     C_R   0.889874 0.586503 0.559348 0.120177
C33   C     C_R   0.966695 0.424772 0.437224 -0.203866
C34   C     C_R   0.590370 0.492807 0.323645 0.880834
C35   C     C_R   0.111369 0.425940 0.435617 0.573983
C36   C     C_R   0.354675 0.479390 0.777018 -0.177129
C37   C     C_R   0.641514 0.456998 0.222114 -0.170644
C38   C     C_R   0.153600 0.480138 0.926101 -0.247440
C39   C     C_R   0.205189 0.488900 0.829833 -0.297441
C40   C     C_R   0.451576 0.452323 0.821354 0.455660
H1    H     H_    0.673096 0.673494 0.622601 0.241500
H2    H     H_    0.439750 0.524050 0.219099 0.196140
H3    H     H_    0.039139 0.498292 0.966715 0.161527
H4    H     H_    0.263215 0.456946 0.184961 0.199524
H5    H     H_    0.653432 0.279394 0.834506 0.196838
N1    N     N_R   0.856800 0.501200 0.500850 -0.104448
N2    N     N_R   0.142390 0.501280 0.500880 -0.103727
O1    O     O_R   0.385310 0.683220 0.500000 -0.504904
O2    O     O_R   0.614640 0.683250 0.500010 -0.672421
O3    O     O_R   0.319840 0.499980 0.632240 -0.539977
O4    O     O_R   0.549160 0.500000 0.632250 -0.584067
O5    O     O_R   0.385360 0.316750 0.499990 -0.580967
O6    O     O_R   0.614690 0.316780 0.500000 -0.570334
O7    O     O_R   0.450840 0.500000 0.367750 -0.556931
O8    O     O_R   0.680160 0.500020 0.367760 -0.575404
Zn1   Zn    Zn3+2 0.346880 0.499980 0.499990 1.074289
Zn2   Zn    Zn3+2 0.653120 0.500020 0.500010 0.992389
H6    H     H_    0.091598 0.484557 0.110065 0.200801
H7    H     H_    0.909456 0.298854 0.035288 0.147496
H8    H     H_    0.710613 0.880832 0.503941 0.198316
O9    O     O_3   0.291156 0.795543 0.396862 -0.584906
C41   C     C_3   0.387893 0.827774 0.309722 -0.357357
H9    H     H_    0.499637 0.833396 0.309019 0.155738
H10   H     H_    0.352017 0.917188 0.290785 0.145832
H11   H     H_    0.390691 0.753222 0.254870 0.190900
H12   H     H_    0.043525 0.918869 0.480690 0.182999
H13   H     H_    0.994701 0.109322 0.591059 0.219488
O10   O     O_3   0.184749 0.227370 0.641364 -0.588160
C42   C     C_3   0.194741 0.191883 0.724945 -0.319947
H14   H     H_    0.308485 0.194266 0.720761 0.161776
H15   H     H_    0.152374 0.097995 0.742728 0.168628
H16   H     H_    0.127440 0.259767 0.783625 0.194970
O11   O     O_3   0.732084 0.118881 0.525269 -0.578153
C43   C     C_3   0.848716 0.106727 0.438156 -0.329502
H17   H     H_    0.939395 0.157004 0.446712 0.180050
H18   H     H_    0.819348 0.149718 0.384008 0.166235
H19   H     H_    0.887465 0.007498 0.414029 0.146522
H20   H     H_    0.943819 0.367236 0.384217 0.172468
H21   H     H_    0.728376 0.853196 0.692142 0.191819
O12   O     O_3   0.978050 0.899133 0.707645 -0.609251
C44   C     C_3   0.871086 0.937458 0.796671 -0.388654
H22   H     H_    0.824006 0.857085 0.837287 0.148305
H23   H     H_    0.784654 0.997742 0.789372 0.192828
H24   H     H_    0.921993 0.995084 0.837887 0.179316
O13   O     O_3   0.182751 0.688144 0.641065 -0.562709
C45   C     C_3   0.178255 0.751128 0.726464 -0.242480
H25   H     H_    0.077109 0.736376 0.786404 0.145546
H26   H     H_    0.199914 0.851437 0.718316 0.200221
H27   H     H_    0.269314 0.714844 0.743307 0.133784
O14   O     O_3   0.226446 0.371576 0.358832 -0.590922
C46   C     C_3   0.219075 0.240775 0.349895 -0.357785
H28   H     H_    0.326402 0.199585 0.301788 0.195440
H29   H     H_    0.139539 0.213237 0.318416 0.135043
H30   H     H_    0.195068 0.201154 0.417470 0.167999
O15   O     O_3   0.872417 0.372296 0.215294 -0.607741
C47   C     C_3   0.935077 0.248799 0.194326 -0.370237
H31   H     H_    0.853997 0.177360 0.197426 0.154919
H32   H     H_    0.981174 0.229612 0.246995 0.173168
H33   H     H_    0.026390 0.238596 0.125481 0.179913
H34   H     H_    0.831502 0.253292 0.905482 0.146867
H35   H     H_    0.128291 0.508224 0.797488 0.202575
O16   O     O_3   0.598429 0.466888 0.776296 -0.589681
C48   C     C_3   0.634392 0.580725 0.813443 -0.295409
H36   H     H_    0.607171 0.585471 0.890178 0.153496
H37   H     H_    0.579744 0.662225 0.797478 0.147343
H38   H     H_    0.753205 0.588061 0.781558 0.191452

loop_
_geom_bond_atom_site_label_1
_geom_bond_atom_site_label_2
_ccdc_geom_bond_type
C16   C21   A    
C34   C37   S    
O11   C43   S    
O15   C47   S    
C4    C8    A    
C35   N2    A    
C44   H24   S    
C44   H22   S    
C23   O5    A    
O13   C45   S    
C17   H12   S    
C29   C30   A    
C43   H18   S    
C5    C6    A    
C28   C29   A    
C5    C11   A    
C3    C7    A    
C30   C31   A    
C45   H26   S    
C33   H20   S    
C16   C17   A    
C47   H33   S    
O2    Zn2   S    
C18   C19   A    
C23   C26   S    
C42   H15   S    
C28   H21   S    
C8    H5    S    
C15   C37   A    
C41   H10   S    
C11   C15   A    
C19   C20   A    
C3    C38   A    
O10   C42   S    
C43   H19   S    
C47   H32   S    
C39   H35   S    
O4    Zn2   S    
C12   C36   S    
C9    C10   A    
C7    H6    S    
C1    C22   S    
O9    C41   S    
C34   O8    A    
C31   N2    A    
C21   C22   A    
C33   N1    A    
O16   C48   S    
C44   H23   S    
C23   O6    A    
O7    Zn1   S    
C43   H17   S    
C36   C40   A    
C24   C25   A    
C46   H28   S    
O6    Zn2   S    
C45   H25   S    
C8    C9    A    
C18   H13   S    
C45   H27   S    
O3    Zn1   S    
C42   H16   S    
C2    C4    A    
C41   H9    S    
C46   H29   S    
C27   H1    S    
C31   C32   A    
C24   H8    S    
C47   H31   S    
C17   C18   A    
C19   O10   S    
C48   H37   S    
C30   O13   S    
C34   O7    A    
C9    H34   S    
O8    Zn2   S    
N1    Zn2   S    
C22   C24   A    
C16   O9    S    
C14   O15   S    
C48   H36   S    
C12   O4    A    
O1    Zn1   S    
C41   H11   S    
C27   C32   A    
C32   N1    A    
C36   C39   A    
C15   H2    S    
O12   C44   S    
C10   C13   A    
C12   O3    A    
C1    O1    A    
C6    C7    A    
C13   H7    S    
C2    C3    A    
C25   C26   A    
C38   H3    S    
C14   C37   A    
O14   C46   S    
C38   C39   A    
C29   O12   S    
C20   C26   A    
C33   C35   A    
C48   H38   S    
C25   O11   S    
C42   H14   S    
C10   C11   A    
C40   O16   S    
C35   O14   S    
C2    C40   A    
C4    C5    A    
C20   C21   A    
C27   C28   A    
C6    H4    S    
C13   C14   A    
C1    O2    A    
O5    Zn1   S    
N2    Zn1   S    
C46   H30   S    
