data_mof_unit_28019.cif
_audit_creation_date              2012-12-10T18:56:30-0500
_audit_creation_method            fapswitch 2.2
_symmetry_space_group_name_H-M    P1
_symmetry_Int_Tables_number       1
_space_group_crystal_system       triclinic
_cell_length_a                    10.836241
_cell_length_b                    19.450909
_cell_length_c                    18.117264
_cell_angle_alpha                 90.050192
_cell_angle_beta                  90.622973
_cell_angle_gamma                 90.285819
_cell_volume                      3818.38668237

loop_
_atom_site_label
_atom_site_type_symbol
_atom_type_description
_atom_site_fract_x
_atom_site_fract_y
_atom_site_fract_z
_atom_type_partial_charge
C1    C     C_R   0.499604 0.367509 0.499986 0.782447
C2    C     C_R   0.499691 0.632486 0.499985 0.784545
C3    C     C_R   0.871532 0.498011 0.501251 -0.106647
C4    C     C_R   0.128040 0.503277 0.498612 -0.120636
C5    C     C_R   0.939917 0.474118 0.562724 0.054919
C6    C     C_R   0.059396 0.526541 0.436670 0.014210
C7    C     C_R   0.499465 0.744259 0.433039 -0.200250
C8    C     C_R   0.498192 0.255749 0.566798 -0.197554
C9    C     C_R   0.498150 0.815835 0.433055 -0.170499
C10   C     C_R   0.497148 0.184202 0.566858 -0.170269
C11   C     C_R   0.496235 0.852177 0.499961 0.108829
C12   C     C_R   0.496150 0.147773 0.499966 0.108497
C13   C     C_R   0.495241 0.815900 0.566854 -0.170135
C14   C     C_R   0.495932 0.184029 0.433022 -0.167591
C15   C     C_R   0.496290 0.744332 0.566884 -0.184944
C16   C     C_R   0.497098 0.255617 0.432968 -0.192550
C17   C     C_R   0.498551 0.707938 0.499971 -0.034419
C18   C     C_R   0.498447 0.292045 0.499899 -0.034081
C19   C     C_R   0.572132 0.964419 0.549487 -0.176564
C20   C     C_R   0.419459 0.035480 0.450620 -0.177367
C21   C     C_R   0.572145 0.035990 0.549475 -0.177812
C22   C     C_R   0.419558 0.963884 0.450580 -0.177885
C23   C     C_R   0.261968 0.501795 0.499466 0.794231
C24   C     C_R   0.737893 0.498579 0.500483 0.807646
C25   C     C_R   0.495816 0.072079 0.500044 0.097867
C26   C     C_R   0.495890 0.927836 0.500023 0.097732
C27   C     C_R   0.427722 0.454157 0.720224 -0.003971
C28   C     C_R   0.580763 0.542279 0.281348 -0.011573
C29   C     C_R   0.431181 0.450048 0.797758 0.350200
C30   C     C_R   0.590163 0.542276 0.203496 0.359701
C31   C     C_R   0.505230 0.497097 0.838494 -0.015275
C32   C     C_R   0.508411 0.500392 0.161540 0.015451
C33   C     C_R   0.578408 0.543916 0.799041 -0.345346
C34   C     C_R   0.425791 0.457530 0.199681 -0.361369
C35   C     C_R   0.574939 0.544296 0.721620 0.089900
C36   C     C_R   0.423923 0.457577 0.277033 0.083099
C37   C     C_R   0.618062 0.497750 0.961181 -0.226703
C38   C     C_R   0.396283 0.500817 0.038372 -0.218783
C39   C     C_R   0.619155 0.498083 0.038729 -0.116063
C40   C     C_R   0.395188 0.499694 0.960850 -0.132075
C41   C     C_R   0.508297 0.500241 0.078568 0.159236
C42   C     C_R   0.506082 0.498236 0.921211 0.134853
C43   C     C_R   0.243592 0.637428 0.305494 -0.120705
C44   C     C_R   0.764433 0.351359 0.685568 -0.125207
C45   C     C_R   0.189573 0.612518 0.369901 -0.156257
C46   C     C_R   0.819459 0.380362 0.623502 -0.190542
C47   C     C_R   0.116529 0.552609 0.367920 0.014432
C48   C     C_R   0.882261 0.443549 0.629036 0.050115
C49   C     C_R   0.096754 0.518217 0.299780 0.452732
C50   C     C_R   0.892017 0.477129 0.697837 0.474542
C51   C     C_R   0.148996 0.544844 0.235378 -0.219317
C52   C     C_R   0.834675 0.447657 0.759845 -0.230760
C53   C     C_R   0.223343 0.603665 0.238372 -0.186455
C54   C     C_R   0.771732 0.385040 0.753547 -0.174851
C55   C     C_R   0.931668 0.523859 0.439188 -0.192545
C56   C     C_R   0.067609 0.477938 0.560906 -0.202633
Cu1   Cu    Cu3+1 0.499960 0.500000 0.573360 0.942195
Cu2   Cu    Cu3+1 0.500040 0.500000 0.426640 0.936641
H1    H     H_    0.264813 0.623277 0.188503 0.152482
H2    H     H_    0.727698 0.362907 0.801355 0.140805
H3    H     H_    0.633191 0.063144 0.587333 0.127502
H4    H     H_    0.358753 0.936662 0.412639 0.127809
H5    H     H_    0.632548 0.580104 0.691819 0.144057
H6    H     H_    0.361638 0.423634 0.305711 0.125423
H7    H     H_    0.704950 0.495730 0.932313 0.127229
H8    H     H_    0.309165 0.502817 0.067015 0.128358
H9    H     H_    0.706987 0.495318 0.067468 0.137220
H10   H     H_    0.307376 0.500777 0.931803 0.153951
H11   H     H_    0.300674 0.683209 0.307546 0.132705
H12   H     H_    0.715668 0.302835 0.680896 0.137222
H13   H     H_    0.492283 0.842920 0.619098 0.126775
H14   H     H_    0.496563 0.157000 0.380741 0.127081
N1    N     N_R   0.499990 0.500020 0.683620 -0.194161
N2    N     N_R   0.500010 0.499980 0.316380 -0.186989
O1    O     O_R   0.499950 0.400180 0.561980 -0.587663
O2    O     O_R   0.500050 0.599820 0.438020 -0.586491
O3    O     O_R   0.500010 0.400190 0.438070 -0.588872
O4    O     O_R   0.499990 0.599810 0.561930 -0.588704
O5    O     O_R   0.319610 0.500000 0.561950 -0.588629
O6    O     O_R   0.680390 0.500000 0.438050 -0.590996
O7    O     O_R   0.319670 0.500010 0.438050 -0.583000
O8    O     O_R   0.680330 0.499990 0.561950 -0.566658
H15   H     H_    0.495110 0.717589 0.619289 0.148229
H16   H     H_    0.497257 0.282339 0.380543 0.147891
H17   H     H_    0.633088 0.937637 0.587374 0.129086
H18   H     H_    0.358494 0.062246 0.412728 0.128612
H19   H     H_    0.369002 0.419283 0.689080 0.132098
H20   H     H_    0.638545 0.576066 0.314241 0.122901
O9    O     O_3   0.358171 0.401602 0.832488 -0.638586
C57   C     C_3   0.431322 0.344833 0.854298 0.071439
H21   H     H_    0.382093 0.318009 0.899467 0.170603
H22   H     H_    0.523063 0.360376 0.877516 0.129825
C58   C     C_3   0.447503 0.294288 0.790121 -0.383782
H23   H     H_    0.355523 0.279423 0.767343 0.229868
H24   H     H_    0.501216 0.319332 0.745769 0.203417
C59   C     C_3   0.516054 0.229836 0.814766 -0.931706
H25   H     H_    0.609084 0.243624 0.836670 0.252314
H26   H     H_    0.527100 0.194799 0.766886 0.252057
H27   H     H_    0.463360 0.202505 0.858142 0.259460
O10   O     O_3   0.669172 0.587529 0.167904 -0.601595
C60   C     C_3   0.792935 0.580389 0.193362 0.047263
H28   H     H_    0.851935 0.569231 0.145072 0.155868
H29   H     H_    0.808211 0.536763 0.232363 0.119040
C61   C     C_3   0.838244 0.647182 0.229698 -0.355649
H30   H     H_    0.776178 0.661618 0.275471 0.200769
H31   H     H_    0.931883 0.638884 0.253526 0.188683
C62   C     C_3   0.844413 0.706292 0.174469 -0.754388
H32   H     H_    0.908205 0.693457 0.128949 0.231963
H33   H     H_    0.879171 0.753316 0.202769 0.220302
H34   H     H_    0.751313 0.717087 0.151138 0.275847
H35   H     H_    0.637300 0.580395 0.827949 0.160989
H36   H     H_    0.364026 0.423397 0.169687 0.148855
H37   H     H_    0.205235 0.639595 0.421462 0.130106
H38   H     H_    0.812486 0.353920 0.570961 0.127025
O11   O     O_3   0.019240 0.461591 0.294168 -0.642774
C63   C     C_3   0.076692 0.402618 0.324550 0.065164
H39   H     H_    0.009053 0.376749 0.361032 0.167645
H40   H     H_    0.159929 0.413735 0.359447 0.133626
C64   C     C_3   0.110993 0.353196 0.262520 -0.360430
H41   H     H_    0.026098 0.337406 0.231831 0.227220
H42   H     H_    0.173365 0.379709 0.223428 0.206550
C65   C     C_3   0.175250 0.289307 0.292735 -0.932659
H43   H     H_    0.261805 0.303811 0.322393 0.250913
H44   H     H_    0.198721 0.254505 0.246413 0.256246
H45   H     H_    0.113555 0.261352 0.331141 0.259578
O12   O     O_3   0.946811 0.541700 0.700855 -0.621345
C66   C     C_3   0.038974 0.544463 0.756552 0.021378
H46   H     H_    0.092952 0.495756 0.759902 0.143702
H47   H     H_    0.995687 0.554978 0.810760 0.146397
C67   C     C_3   0.128196 0.603089 0.738683 -0.301931
H48   H     H_    0.175875 0.591465 0.686101 0.228456
H49   H     H_    0.075743 0.651637 0.731450 0.226087
C68   C     C_3   0.224331 0.613121 0.799891 -0.922552
H50   H     H_    0.179011 0.627768 0.852264 0.250800
H51   H     H_    0.289828 0.654535 0.784168 0.257159
H52   H     H_    0.276800 0.565053 0.808584 0.262804
H53   H     H_    0.132528 0.519493 0.182943 0.136681
H54   H     H_    0.836312 0.473754 0.812584 0.122268
H55   H     H_    0.878903 0.542910 0.392303 0.158400
H56   H     H_    0.120104 0.458824 0.607853 0.149808
H57   H     H_    0.501737 0.717460 0.380650 0.146165
H58   H     H_    0.498412 0.282582 0.619093 0.142382
H59   H     H_    0.500411 0.842819 0.380816 0.126926
H60   H     H_    0.495653 0.157350 0.619189 0.125690

loop_
_geom_bond_atom_site_label_1
_geom_bond_atom_site_label_2
_ccdc_geom_bond_type
C38   C40   A    
C58   H23   S    
C31   C42   S    
C27   C29   A    
C1    O3    A    
Cu1   O5    S    
C5    C56   A    
C36   H6    S    
C6    C55   A    
C28   N2    A    
C61   H31   S    
C53   H1    S    
Cu2   O2    S    
C39   C41   A    
C54   H2    S    
C1    C18   S    
C60   H28   S    
C55   H55   S    
C19   C21   A    
C56   H56   S    
C50   C52   A    
C20   C25   A    
O11   C63   S    
C59   H27   S    
C30   O10   S    
C16   H16   S    
C34   H36   S    
C63   H39   S    
C7    C9    A    
Cu1   N1    S    
C37   C42   A    
C19   C26   A    
C24   O8    A    
Cu2   O3    S    
C24   O6    A    
C3    C55   A    
C43   C53   A    
C35   N1    A    
C38   H8    S    
C44   C46   A    
C7    C17   A    
C20   H18   S    
C28   H20   S    
C68   H52   S    
C52   H54   S    
C32   C41   S    
C31   C33   A    
C44   H12   S    
C50   O12   S    
C21   H3    S    
Cu2   O6    S    
C48   C50   A    
C60   H29   S    
C4    C56   A    
C2    C17   S    
C29   C31   A    
C62   H33   S    
C3    C24   S    
C14   H14   S    
C19   H17   S    
C29   O9    S    
C61   H30   S    
C52   C54   A    
Cu1   Cu2   S    
C45   C47   A    
C9    H59   S    
C5    C48   S    
C46   C48   A    
C6    C47   S    
C46   H38   S    
C1    O1    A    
C38   C41   A    
C4    C6    A    
Cu2   O7    S    
C4    C23   S    
C15   H15   S    
C13   H13   S    
C11   C26   S    
C49   C51   A    
C8    C18   A    
C59   H26   S    
C51   C53   A    
C32   C34   A    
C67   H49   S    
C66   H47   S    
C2    O4    A    
C45   H37   S    
C22   H4    S    
C43   C45   A    
C57   H22   S    
C62   H32   S    
C59   H25   S    
C16   C18   A    
C10   H60   S    
C27   H19   S    
C9    C11   A    
C64   H42   S    
C10   C12   A    
C33   H35   S    
C51   H53   S    
C37   H7    S    
C49   O11   S    
C12   C14   A    
C58   C59   S    
C13   C15   A    
C40   H10   S    
C68   H50   S    
C62   H34   S    
C14   C16   A    
C67   C68   S    
C65   H44   S    
C66   H46   S    
C7    H57   S    
C2    O2    A    
Cu2   N2    S    
C57   C58   S    
C64   C65   S    
C15   C17   A    
C21   C25   A    
C36   N2    A    
C23   O7    A    
C39   H9    S    
Cu1   O4    S    
C20   C22   A    
C3    C5    A    
C35   H5    S    
C64   H41   S    
C47   C49   A    
C63   C64   S    
C12   C25   S    
Cu1   O1    S    
C65   H45   S    
C28   C30   A    
C67   H48   S    
O9    C57   S    
C66   C67   S    
C37   C39   A    
C27   N1    A    
C30   C32   A    
C11   C13   A    
C57   H21   S    
C58   H24   S    
O12   C66   S    
C40   C42   A    
O10   C60   S    
C33   C35   A    
C63   H40   S    
C34   C36   A    
C44   C54   A    
C8    C10   A    
C22   C26   A    
C68   H51   S    
Cu1   O8    S    
C8    H58   S    
C60   C61   S    
C23   O5    A    
C65   H43   S    
C43   H11   S    
C61   C62   S    
