data_mof_unit_56981.cif
_audit_creation_date              2012-12-11T20:55:42-0500
_audit_creation_method            fapswitch 2.2
_symmetry_space_group_name_H-M    P1
_symmetry_Int_Tables_number       1
_space_group_crystal_system       triclinic
_cell_length_a                    8.280601
_cell_length_b                    19.117153
_cell_length_c                    22.788071
_cell_angle_alpha                 100.05616
_cell_angle_beta                  89.387752
_cell_angle_gamma                 92.496893
_cell_volume                      3548.57651959

loop_
_atom_site_label
_atom_site_type_symbol
_atom_type_description
_atom_site_fract_x
_atom_site_fract_y
_atom_site_fract_z
_atom_type_partial_charge
Ba1   Ba    Ba6+2 0.157290 0.533910 0.474710 1.696819
Ba2   Ba    Ba6+2 0.652900 0.466090 0.525240 1.662663
C1    C     C_3   0.416128 0.734423 0.266619 0.369266
C2    C     C_R   0.986752 0.272837 0.479152 0.053607
C3    C     C_R   0.137674 0.183819 0.544035 -0.150599
C4    C     C_3   0.944707 0.725186 0.352689 0.386011
C5    C     C_R   0.202318 0.252758 0.543189 0.002700
C6    C     C_R   0.652185 0.818968 0.462046 -0.143005
C7    C     C_R   0.593389 0.750203 0.465119 -0.000885
C8    C     C_R   0.884771 0.800347 0.518836 -0.138810
C9    C     C_R   0.828040 0.728829 0.519182 0.070832
C10   C     C_R   0.017651 0.152707 0.502099 0.000916
C11   C     C_R   0.115940 0.298840 0.516065 -0.256998
C12   C     C_3   0.460875 0.721063 0.328315 0.534981
C13   C     C_R   0.805989 0.845691 0.484352 -0.012506
C14   C     C_R   0.684054 0.704696 0.490944 -0.241097
C15   C     C_R   0.252828 0.037846 0.505766 -0.078514
C16   C     C_3   0.964861 0.795740 0.330753 -0.347516
C17   C     C_R   0.359846 0.988077 0.517488 -0.077433
C18   C     C_R   0.310454 0.917258 0.509031 -0.062031
C19   C     C_R   0.155727 0.896901 0.488562 -0.077776
C20   C     C_R   0.035942 0.946004 0.489930 0.012199
C21   C     C_R   0.085407 0.020104 0.497369 0.038973
C22   C     C_R   0.874570 0.921077 0.475401 -0.022872
C23   C     C_3   0.547808 0.688470 0.696424 0.649180
C24   C     C_R   0.782087 0.971116 0.452175 0.038116
C25   C     C_R   0.812861 0.045495 0.471773 0.022281
C26   C     C_R   0.969657 0.072563 0.492903 -0.013812
C27   C     C_R   0.673281 0.951257 0.404240 -0.086515
C28   C     C_3   0.823428 0.377447 0.343477 0.418189
C29   C     C_R   0.565580 0.999563 0.389621 -0.061557
C30   C     C_R   0.566388 0.068114 0.422408 -0.068682
C31   C     C_R   0.686561 0.090166 0.464836 -0.107464
C32   C     C_R   0.641903 0.527139 0.336984 -0.282537
C33   C     C_R   0.492613 0.488033 0.926936 -0.036459
C34   C     C_3   0.508159 0.695268 0.763857 0.249270
C35   C     C_R   0.445241 0.476262 0.866546 0.576788
C36   C     C_R   0.167084 0.467457 0.895702 0.579795
C37   C     C_R   0.213429 0.468580 0.955126 -0.021753
C38   C     C_R   0.375814 0.482983 0.971295 -0.052925
C39   C     C_R   0.653725 0.505956 0.944144 -0.063664
C40   C     C_3   0.816154 0.361000 0.275627 0.324414
C41   C     C_R   0.697895 0.516467 0.004165 -0.096649
C42   C     C_R   0.583716 0.506924 0.048469 -0.021090
C43   C     C_R   0.421390 0.492268 0.032109 -0.049308
C44   C     C_R   0.099615 0.457907 0.999215 -0.086491
C45   C     C_3   0.864509 0.278071 0.643755 0.356565
C46   C     C_R   0.143435 0.468598 0.059125 -0.089736
C47   C     C_R   0.304079 0.487515 0.076329 -0.044813
C48   C     C_R   0.349673 0.501679 0.136716 0.563414
C49   C     C_R   0.628687 0.510588 0.108503 0.565136
C50   C     C_2   0.092130 0.443715 0.765684 -0.108373
C51   C     C_3   0.028734 0.467996 0.711130 -0.027937
C52   C     C_3   0.998071 0.628489 0.658012 0.302712
C53   C     C_1   0.297086 0.513941 0.693952 -0.028978
C54   C     C_2   0.335696 0.515649 0.750730 -0.098945
C55   C     C_2   0.233540 0.474494 0.789707 0.196856
C56   C     C_3   0.846800 0.204467 0.660424 -0.364239
C57   C     C_R   0.697170 0.556659 0.239628 -0.107419
C58   C     C_R   0.744107 0.557317 0.298579 -0.063047
C59   C     C_R   0.504469 0.487177 0.315109 0.033140
C60   C     C_R   0.467651 0.478523 0.254509 -0.084952
C61   C     C_R   0.558243 0.515842 0.215784 0.218612
C62   C     C_2   0.167456 0.477904 0.669664 -0.272338
C63   C     C_3   0.014810 0.650875 0.725282 -0.403548
C64   C     C_3   0.322739 0.317140 0.394400 0.331353
C65   C     C_3   0.318180 0.236568 0.376947 -0.391796
C66   C     C_3   0.973184 0.346726 0.190491 0.293898
C67   C     C_3   0.375987 0.309353 0.681440 0.322995
C68   C     C_3   0.125747 0.313592 0.162621 -0.308006
C69   C     C_3   0.251943 0.695824 0.184966 0.328049
C70   C     C_3   0.080307 0.667281 0.167856 -0.122762
C71   C     C_3   0.049139 0.664036 0.101551 -0.516497
C72   C     C_3   0.458644 0.799100 0.679453 0.320994
C73   C     C_3   0.420807 0.804268 0.615298 -0.332501
C74   C     C_3   0.712649 0.771048 0.811451 0.289588
C75   C     C_3   0.750218 0.846052 0.845426 -0.170997
C76   C     C_3   0.928901 0.856900 0.861844 -0.507209
C77   C     C_3   0.417031 0.294221 0.742757 -0.319586
C78   C     C_R   0.951752 0.199101 0.466750 -0.143541
H1    H     H_    0.487629 0.663918 0.324835 -0.037366
H2    H     H_    0.406665 0.332509 0.432545 0.076312
H3    H     H_    0.228090 0.219096 0.341042 0.130974
H4    H     H_    0.284421 0.211539 0.415969 0.060488
H5    H     H_    0.439259 0.218670 0.360933 0.120055
H6    H     H_    0.570749 0.754879 0.342351 -0.265893
H7    H     H_    0.522465 0.722123 0.236719 -0.101988
H8    H     H_    0.657173 0.657075 0.687844 0.012890
H9    H     H_    0.568740 0.653431 0.782814 -0.081696
H10   H     H_    0.376379 0.684820 0.769331 0.025401
H11   H     H_    0.389852 0.791626 0.269970 -0.019526
H12   H     H_    0.729747 0.314924 0.261933 0.013267
H13   H     H_    0.925096 0.839380 0.365535 0.062311
H14   H     H_    0.779655 0.280262 0.606739 0.102286
H15   H     H_    0.990254 0.286851 0.629167 -0.056711
H16   H     H_    0.723777 0.195869 0.678428 0.148309
H17   H     H_    0.865304 0.163171 0.620510 0.072835
H18   H     H_    0.937747 0.199107 0.694660 0.108060
H19   H     H_    0.244027 0.298687 0.674396 -0.058450
H20   H     H_    0.407206 0.366305 0.680637 0.071119
H21   H     H_    0.343505 0.327008 0.777227 0.078560
H22   H     H_    0.546979 0.307311 0.752508 0.173075
H23   H     H_    0.770226 0.408186 0.259786 -0.114862
H24   H     H_    0.012155 0.728981 0.395089 0.072844
H25   H     H_    0.390545 0.237189 0.744580 0.099022
H26   H     H_    0.873435 0.179299 0.429452 0.071224
H27   H     H_    0.188845 0.153903 0.574874 0.071791
H28   H     H_    0.569830 0.850199 0.443423 0.071334
H29   H     H_    0.988864 0.819346 0.545993 0.084660
H30   H     H_    0.156601 0.354025 0.520147 0.061676
H31   H     H_    0.637392 0.651173 0.492044 0.074310
H32   H     H_    0.306654 0.088733 0.501322 0.076602
H33   H     H_    0.484293 0.003663 0.528848 0.082437
H34   H     H_    0.118732 0.617494 0.638523 0.044063
H35   H     H_    0.394208 0.877967 0.515224 0.081095
H36   H     H_    0.814340 0.714607 0.360940 -0.084713
H37   H     H_    0.129318 0.843245 0.467916 0.122372
H38   H     H_    0.674892 0.899394 0.376301 0.067835
H39   H     H_    0.479086 0.983254 0.354065 0.065228
H40   H     H_    0.476928 0.104693 0.413940 0.074570
H41   H     H_    0.684885 0.142967 0.490057 0.129368
H42   H     H_    0.051848 0.461051 0.091881 0.156838
H43   H     H_    0.976601 0.440586 0.987219 0.119211
H44   H     H_    0.821016 0.533578 0.016121 0.112310
H45   H     H_    0.918250 0.579658 0.648388 0.037500
H46   H     H_    0.771192 0.587121 0.213076 0.112552
H47   H     H_    0.744880 0.513852 0.911348 0.171213
H48   H     H_    0.093671 0.806655 0.320181 0.149752
H49   H     H_    0.437987 0.548564 0.769362 0.092727
H50   H     H_    0.017567 0.407369 0.786942 0.148957
H51   H     H_    0.368896 0.441953 0.238140 0.111291
H52   H     H_    0.675948 0.530154 0.383088 0.076220
H53   H     H_    0.177438 0.442123 0.627304 0.059360
H54   H     H_    0.891029 0.794241 0.290118 0.092939
H55   H     H_    0.700910 0.389808 0.360921 -0.115766
H56   H     H_    0.071162 0.705359 0.736185 0.124605
H57   H     H_    0.906938 0.424428 0.356868 0.041548
H58   H     H_    0.972855 0.402861 0.183363 0.105733
H59   H     H_    0.867322 0.316339 0.167275 0.007671
H60   H     H_    0.125925 0.256729 0.167271 0.116160
H61   H     H_    0.130705 0.317381 0.114548 0.055819
H62   H     H_    0.234385 0.341730 0.184875 0.124333
H63   H     H_    0.340344 0.663302 0.156188 0.036035
H64   H     H_    0.263635 0.751837 0.177130 -0.011866
H65   H     H_    0.060873 0.613214 0.178793 0.197983
H66   H     H_    0.991897 0.702420 0.193965 0.109248
H67   H     H_    0.091482 0.614403 0.744029 0.060256
H68   H     H_    0.064749 0.717898 0.089756 0.127588
H69   H     H_    0.923400 0.643626 0.090881 0.163631
H70   H     H_    0.133704 0.627884 0.074442 0.147051
H71   H     H_    0.492690 0.853223 0.703675 0.061349
H72   H     H_    0.347363 0.781056 0.701511 0.049413
H73   H     H_    0.391117 0.750571 0.589533 0.167411
H74   H     H_    0.315902 0.838211 0.614033 0.065414
H75   H     H_    0.527242 0.827861 0.594612 0.096399
H76   H     H_    0.789022 0.762965 0.770609 0.075130
H77   H     H_    0.742802 0.732159 0.840409 0.036247
H78   H     H_    0.894399 0.649450 0.746829 0.084231
H79   H     H_    0.718526 0.885471 0.817323 0.127303
H80   H     H_    0.676107 0.855243 0.886804 0.123246
H81   H     H_    0.962694 0.818762 0.890777 0.139450
H82   H     H_    0.952473 0.911814 0.886409 0.144598
H83   H     H_    0.005129 0.849125 0.820987 0.140883
H84   H     H_    0.200399 0.334495 0.407612 -0.001478
N1    N     N_R   0.282336 0.470788 0.851032 -0.423827
N2    N     N_R   0.512052 0.509947 0.153002 -0.421607
O1    O     O_2   0.108070 0.674980 0.540650 -0.453412
O2    O     O_2   0.693494 0.448100 0.698527 -0.430807
O3    O     O_3   0.829619 0.329041 0.693737 -0.603689
O4    O     O_3   0.861930 0.586170 0.535430 -0.485283
O5    O     O_3   0.451480 0.461630 0.428900 -0.497422
O6    O     O_2   0.599240 0.538720 0.642170 -0.477169
O7    O     O_3   0.416776 0.656104 0.660611 -0.695975
O8    O     O_2   0.533018 0.243828 0.523888 -0.508912
O9    O     O_3   0.464916 0.265384 0.638064 -0.597485
O10   O     O_2   0.549631 0.470107 0.827945 -0.579028
O11   O     O_2   0.023199 0.466248 0.884582 -0.619123
O12   O     O_3   0.374009 0.347203 0.345303 -0.630985
O13   O     O_2   0.243813 0.507813 0.174732 -0.586370
O14   O     O_2   0.772125 0.512061 0.120520 -0.637321
O15   O     O_3   0.366390 0.628250 0.433820 -0.456267
O16   O     O_2   0.265256 0.750247 0.483159 -0.513284
O17   O     O_3   0.931993 0.684019 0.634955 -0.618818
O18   O     O_3   0.334494 0.739681 0.369082 -0.602073
O19   O     O_2   0.211060 0.461230 0.357810 -0.440097
O20   O     O_3   0.958150 0.591500 0.402390 -0.502018
O21   O     O_2   0.074824 0.538294 0.295557 -0.407172
O22   O     O_3   0.971359 0.344677 0.252173 -0.617794
O23   O     O_3   0.007369 0.672025 0.309283 -0.554035
O24   O     O_3   0.279621 0.691102 0.245201 -0.601036
O25   O     O_3   0.592363 0.755491 0.680802 -0.646352
O26   O     O_3   0.547030 0.764102 0.796270 -0.645870
O27   O     O_2   0.702240 0.324970 0.459330 -0.468289
O28   O     O_3   0.948380 0.413820 0.464520 -0.493505
O29   O     O_3   0.443920 0.371740 0.566130 -0.469977
O30   O     O_3   0.876806 0.318091 0.364842 -0.632818
O31   O     O_3   0.358830 0.538360 0.571050 -0.440511
O32   O     O_3   0.852160 0.408490 0.597560 -0.495976
P1    P     P_3+3 0.933470 0.664380 0.557030 1.015377
P2    P     P_3+3 0.383600 0.440030 0.365120 1.007869
P3    P     P_3+3 0.946291 0.589151 0.325685 1.002745
P4    P     P_3+3 0.876840 0.335610 0.442930 0.982058
P5    P     P_3+3 0.852532 0.413919 0.674910 0.984332
P6    P     P_3+3 0.391725 0.718948 0.437576 0.948669
P7    P     P_3+3 0.418973 0.562642 0.645736 0.919923
P8    P     P_3+3 0.409191 0.281811 0.568140 0.923527

loop_
_geom_bond_atom_site_label_1
_geom_bond_atom_site_label_2
_ccdc_geom_bond_type
C34   H9    S    
C36   N1    Am   
C32   C58   A    
C53   C54   D    
C65   H3    S    
O18   P6    S    
C71   H70   S    
Ba2   O31   S    
C39   H47   S    
O31   P7    S    
C17   C18   A    
Ba2   P4    S    
C40   H23   S    
C45   H15   S    
C52   C63   S    
C75   C76   S    
C25   C31   A    
C57   H46   S    
C68   H60   S    
C64   O12   S    
C24   C25   A    
C11   H30   S    
C10   C26   S    
O16   P6    D    
O6    P7    D    
C33   C35   A    
C7    C14   A    
C22   C24   A    
C2    C78   A    
C8    C13   A    
C46   H42   S    
C36   C37   A    
C51   C62   S    
C64   H2    S    
C17   H33   S    
C34   H10   S    
C70   H65   S    
O28   P4    S    
C78   H26   S    
Ba1   O4    S    
C54   C55   S    
C77   H25   S    
C8    H29   S    
C1    H11   S    
Ba1   Ba2   S    
C48   O13   D    
C2    C11   A    
C47   C48   A    
C56   H16   S    
C19   H37   S    
C16   H48   S    
C66   H58   S    
C61   N2    S    
C28   O30   S    
C6    C7    A    
C56   H18   S    
C48   N2    Am   
C77   H22   S    
C16   H54   S    
C4    H24   S    
C63   H67   S    
C54   H49   S    
Ba2   O5    S    
C64   C65   S    
C32   H52   S    
C65   H4    S    
O19   P2    D    
C36   O11   D    
C34   O26   S    
C19   C20   A    
C31   H41   S    
C39   C41   A    
C72   H72   S    
C50   C55   D    
Ba1   P1    S    
C56   H17   S    
C30   H40   S    
C5    P8    S    
C53   P7    S    
C6    H28   S    
C59   P2    S    
O4    P1    S    
C45   O3    S    
C38   C43   A    
C4    C16   S    
C52   H45   S    
C44   C46   A    
C74   H77   S    
C65   H5    S    
C68   H62   S    
C72   C73   S    
C71   H68   S    
C1    H7    S    
C76   H81   S    
C74   C75   S    
C12   H6    S    
C3    C10   A    
C23   O25   S    
C1    O24   S    
C37   C38   A    
C3    C5    A    
Ba1   O15   S    
C70   C71   S    
C35   N1    Am   
C23   C34   S    
O23   P3    S    
Ba1   O20   S    
C74   H76   S    
C23   H8    S    
O17   P1    S    
O27   P4    D    
O20   P3    S    
Ba2   O28   S    
C41   C42   A    
C57   C58   A    
C60   C61   A    
C74   O26   S    
C7    P6    S    
C73   H75   S    
O3    P5    S    
C9    C14   A    
C73   H73   S    
C2    P4    S    
C29   C30   A    
C51   P5    S    
C43   C47   A    
C29   H39   S    
C53   C62   D    
C64   H84   S    
C15   C21   A    
C21   C26   A    
C76   H83   S    
C4    H36   S    
C1    C12   S    
C75   H79   S    
C37   C44   A    
C67   H19   S    
C42   C49   A    
C46   C47   A    
Ba2   O4    S    
C76   H82   S    
C6    C13   A    
C20   C22   A    
C72   H71   S    
C67   C77   S    
O15   P6    S    
O30   P4    S    
C49   O14   D    
C15   H32   S    
C25   C26   A    
C50   C51   S    
C69   H63   S    
C3    H27   S    
C40   O22   S    
O12   P2    S    
C62   H53   S    
C13   C22   S    
C68   H61   S    
O1    P1    D    
C71   H69   S    
Ba2   O32   S    
C28   C40   S    
C60   H51   S    
Ba1   O31   S    
C42   C43   A    
O5    P2    S    
C63   H78   S    
C49   N2    Am   
C52   H34   S    
C18   H35   S    
C12   O18   S    
C52   O17   S    
Ba2   O29   S    
Ba1   O19   S    
C44   H43   S    
C27   H38   S    
O21   P3    D    
C57   C61   A    
C12   H1    S    
O2    P5    D    
Ba2   O27   S    
C50   H50   S    
C30   C31   A    
C33   C38   A    
C69   C70   S    
C27   C29   A    
C35   O10   D    
C73   H74   S    
O29   P8    S    
C70   H66   S    
O8    P8    D    
C10   C78   A    
C4    O23   S    
C15   C17   A    
C45   H14   S    
Ba1   O5    S    
Ba1   O28   S    
C40   H12   S    
C32   C59   A    
C69   O24   S    
C59   C60   A    
C33   C39   A    
C9    P1    S    
C63   H56   S    
C8    C9    A    
C75   H80   S    
C72   O25   S    
Ba1   P2    S    
C67   H20   S    
C23   O7    S    
C58   P3    S    
C5    C11   A    
C55   N1    S    
C18   C19   A    
C66   O22   S    
C24   C27   A    
C66   C68   S    
C28   H55   S    
O32   P5    S    
C28   H57   S    
C16   H13   S    
Ba1   O1    S    
C20   C21   A    
C77   H21   S    
C66   H59   S    
O7    P7    S    
C67   O9    S    
O9    P8    S    
C41   H44   S    
C14   H31   S    
Ba2   O6    S    
C69   H64   S    
C45   C56   S    
