data_mof_unit_52015.cif
_audit_creation_date              2012-12-10T20:20:46-0500
_audit_creation_method            fapswitch 2.2
_symmetry_space_group_name_H-M    P1
_symmetry_Int_Tables_number       1
_space_group_crystal_system       triclinic
_cell_length_a                    19.303798
_cell_length_b                    18.409107
_cell_length_c                    10.670442
_cell_angle_alpha                 89.410534
_cell_angle_beta                  90.366432
_cell_angle_gamma                 90.230825
_cell_volume                      3791.60091151

loop_
_atom_site_label
_atom_site_type_symbol
_atom_type_description
_atom_site_fract_x
_atom_site_fract_y
_atom_site_fract_z
_atom_type_partial_charge
C1    C     C_R   0.365153 0.499944 0.500776 0.942511
C2    C     C_R   0.634147 0.500255 0.499966 0.982847
C3    C     C_R   0.818778 0.542595 0.420737 0.396309
C4    C     C_R   0.180747 0.567287 0.524556 0.385248
C5    C     C_R   0.746263 0.547847 0.424024 0.279119
C6    C     C_R   0.252789 0.567024 0.507085 0.293656
C7    C     C_R   0.708961 0.500756 0.503921 -0.318158
C8    C     C_R   0.289124 0.500126 0.507620 -0.335317
C9    C     C_R   0.960444 0.526818 0.620454 -0.214156
C10   C     C_R   0.032216 0.527777 0.626343 -0.136989
C11   C     C_R   0.070230 0.499001 0.527543 0.232450
C12   C     C_R   0.927216 0.496928 0.516011 0.232744
C13   C     C_R   0.036798 0.467781 0.424443 -0.220867
C14   C     C_R   0.965185 0.466542 0.418858 -0.142213
C15   C     C_R   0.468300 0.724800 0.595234 -0.033626
C16   C     C_R   0.529971 0.727335 0.404445 -0.019454
C17   C     C_R   0.467269 0.800926 0.598149 -0.252524
C18   C     C_R   0.529016 0.803474 0.402450 -0.215227
C19   C     C_R   0.497782 0.841582 0.500683 0.229767
C20   C     C_R   0.437307 0.962910 0.526895 0.281018
C21   C     C_R   0.560553 0.962041 0.479809 0.276418
C22   C     C_R   0.498310 0.500211 0.259751 0.883459
C23   C     C_R   0.503351 0.499512 0.740002 0.870852
C24   C     C_R   0.439331 0.039608 0.532402 0.350976
C25   C     C_R   0.560622 0.038724 0.473423 0.352301
C26   C     C_R   0.500261 0.077804 0.501532 -0.129064
C27   C     C_R   0.498323 0.923187 0.502197 -0.245588
C28   C     C_R   0.533775 0.197213 0.598330 0.378668
C29   C     C_R   0.468355 0.197808 0.402306 0.361567
C30   C     C_R   0.533761 0.274212 0.593418 -0.156794
C31   C     C_R   0.467572 0.274354 0.406025 -0.142941
C32   C     C_R   0.500973 0.158983 0.500526 0.059659
C33   C     C_R   0.537020 0.553617 0.064100 -0.030088
C34   C     C_R   0.545637 0.550992 0.937276 -0.039157
C35   C     C_R   0.501825 0.499070 0.128003 -0.085639
C36   C     C_R   0.511234 0.496357 0.871441 -0.119886
C37   C     C_R   0.480012 0.436846 0.064424 -0.233721
C38   C     C_R   0.484017 0.435765 0.935602 -0.215752
C39   C     C_3   0.548272 0.632608 0.923378 0.201504
C40   C     C_3   0.533545 0.634863 0.064062 0.316404
C41   C     C_R   0.743450 0.454728 0.589640 0.428031
C42   C     C_R   0.251956 0.433886 0.516114 0.442132
C43   C     C_R   0.815296 0.453839 0.591676 -0.359459
C44   C     C_R   0.180465 0.435281 0.528827 -0.373094
C45   C     C_R   0.852487 0.497708 0.508683 -0.135942
C46   C     C_R   0.145189 0.500950 0.530184 -0.129813
H1    H     H_    0.456295 0.391219 0.113044 0.155995
H2    H     H_    0.461505 0.390032 0.886529 0.165959
H3    H     H_    0.443827 0.693878 0.669464 0.142341
H4    H     H_    0.554387 0.698408 0.329278 0.153588
H5    H     H_    0.443396 0.827682 0.676639 0.176731
H6    H     H_    0.552371 0.832324 0.324434 0.174024
H7    H     H_    0.560718 0.305668 0.663370 0.158966
H8    H     H_    0.440763 0.305143 0.334124 0.153289
H9    H     H_    0.507707 0.657551 0.862503 0.095498
H10   H     H_    0.577025 0.658054 0.119126 0.130406
H11   H     H_    0.842154 0.418548 0.657676 0.185298
H12   H     H_    0.152091 0.384462 0.536219 0.186706
H13   H     H_    0.930791 0.549761 0.696206 0.133821
H14   H     H_    0.057959 0.550582 0.707366 0.128790
H15   H     H_    0.066260 0.445030 0.348263 0.134068
H16   H     H_    0.939474 0.441981 0.339361 0.126843
N1    N     N_R   0.500000 0.689440 0.500000 -0.102487
N2    N     N_R   0.500000 0.310560 0.500000 -0.119600
O1    O     O_R   0.398180 0.560840 0.499970 -0.562562
O2    O     O_R   0.601820 0.560840 0.500030 -0.637897
O3    O     O_R   0.398180 0.439210 0.499910 -0.580140
O4    O     O_R   0.601820 0.439210 0.500090 -0.573047
O5    O     O_R   0.499990 0.560820 0.316770 -0.609331
O6    O     O_R   0.500010 0.560820 0.683230 -0.667492
O7    O     O_R   0.499990 0.439200 0.316710 -0.638974
O8    O     O_R   0.500010 0.439200 0.683290 -0.620012
Zn1   Zn    Zn3+2 0.500000 0.581210 0.500000 0.943461
Zn2   Zn    Zn3+2 0.500000 0.418790 0.500000 0.970282
O9    O     O_3   0.375858 0.927111 0.552512 -0.598570
C47   C     C_3   0.337459 0.920918 0.440142 0.153540
H17   H     H_    0.364059 0.883833 0.374347 0.130193
H18   H     H_    0.329913 0.974815 0.393469 0.171375
C48   C     C_3   0.266272 0.889652 0.469857 -0.835781
H19   H     H_    0.237126 0.928096 0.529072 0.261297
H20   H     H_    0.236859 0.880611 0.381580 0.205298
H21   H     H_    0.271385 0.837116 0.521071 0.260364
O10   O     O_3   0.621751 0.925083 0.461117 -0.600547
C49   C     C_3   0.654570 0.914356 0.578451 0.172747
H22   H     H_    0.618789 0.889411 0.648597 0.125344
H23   H     H_    0.674476 0.966962 0.614925 0.178189
C50   C     C_3   0.715308 0.863036 0.562684 -0.861005
H24   H     H_    0.742650 0.855533 0.653734 0.210807
H25   H     H_    0.696214 0.809428 0.530282 0.244192
H26   H     H_    0.752213 0.885652 0.492895 0.265782
O11   O     O_3   0.380459 0.077746 0.563683 -0.569953
C51   C     C_3   0.377109 0.081801 0.695649 0.119739
H27   H     H_    0.427169 0.100318 0.737547 0.136852
H28   H     H_    0.363059 0.027868 0.736378 0.176087
C52   C     C_3   0.321821 0.136223 0.731583 -0.840775
H29   H     H_    0.271104 0.120441 0.690115 0.265825
H30   H     H_    0.316979 0.137687 0.835181 0.206641
H31   H     H_    0.336375 0.191290 0.697157 0.260013
O12   O     O_3   0.621286 0.075838 0.447131 -0.558585
C53   C     C_3   0.628492 0.080806 0.315739 0.126836
H32   H     H_    0.580993 0.103203 0.270099 0.107495
H33   H     H_    0.639790 0.026489 0.275955 0.172567
C54   C     C_3   0.688362 0.131661 0.284874 -0.817686
H34   H     H_    0.737123 0.110514 0.326997 0.265210
H35   H     H_    0.694561 0.135885 0.181643 0.200491
H36   H     H_    0.677917 0.186582 0.322401 0.259781
O13   O     O_3   0.567898 0.157251 0.691450 -0.585716
C55   C     C_3   0.563553 0.189890 0.810480 0.098683
H37   H     H_    0.511122 0.212858 0.827813 0.116934
H38   H     H_    0.603591 0.233122 0.819187 0.160806
C56   C     C_3   0.577889 0.132809 0.911285 -0.860138
H39   H     H_    0.629289 0.107628 0.895912 0.268839
H40   H     H_    0.577928 0.158483 0.004980 0.194340
H41   H     H_    0.537254 0.089946 0.908720 0.239841
O14   O     O_3   0.432426 0.160086 0.310394 -0.598670
C57   C     C_3   0.455491 0.179466 0.188667 0.085365
H42   H     H_    0.472176 0.129049 0.141470 0.154903
H43   H     H_    0.500776 0.217390 0.186189 0.117272
C58   C     C_3   0.395947 0.211963 0.112703 -0.871048
H44   H     H_    0.377815 0.262930 0.156095 0.233953
H45   H     H_    0.413510 0.224314 0.015846 0.210525
H46   H     H_    0.352125 0.172776 0.108325 0.262982
O15   O     O_3   0.616568 0.657774 0.902115 -0.621317
C59   C     C_3   0.630005 0.662892 0.772849 0.139583
H47   H     H_    0.597370 0.705727 0.728289 0.147318
H48   H     H_    0.620866 0.610065 0.726433 0.160319
C60   C     C_3   0.705766 0.683113 0.755093 -0.857303
H49   H     H_    0.739429 0.640585 0.797639 0.249444
H50   H     H_    0.717625 0.687729 0.653964 0.188154
H51   H     H_    0.717005 0.736008 0.800183 0.264541
O16   O     O_3   0.469328 0.666679 0.099807 -0.624303
C61   C     C_3   0.408880 0.638712 0.040587 0.108672
H52   H     H_    0.374804 0.615178 0.114067 0.154202
H53   H     H_    0.417692 0.595288 0.971492 0.128758
C62   C     C_3   0.370327 0.700302 0.974607 -0.866847
H54   H     H_    0.402251 0.723298 0.897594 0.240665
H55   H     H_    0.320928 0.679559 0.934525 0.209736
H56   H     H_    0.358703 0.744162 0.041684 0.260389
O17   O     O_3   0.707068 0.408821 0.669073 -0.585030
C63   C     C_3   0.701023 0.442531 0.786751 0.109640
H57   H     H_    0.669449 0.492788 0.778313 0.128108
H58   H     H_    0.752805 0.456350 0.826957 0.131827
C64   C     C_3   0.665014 0.390752 0.877431 -0.812282
H59   H     H_    0.696616 0.341007 0.891289 0.245985
H60   H     H_    0.658061 0.417537 0.969271 0.222973
H61   H     H_    0.613430 0.375172 0.839768 0.250184
O18   O     O_3   0.285174 0.367445 0.521420 -0.573547
C65   C     C_3   0.276823 0.331511 0.405632 0.070640
H62   H     H_    0.318129 0.349759 0.340250 0.140790
H63   H     H_    0.225585 0.341392 0.359633 0.117482
C66   C     C_3   0.283234 0.250018 0.427457 -0.734531
H64   H     H_    0.239345 0.230110 0.485357 0.237865
H65   H     H_    0.282463 0.221413 0.336353 0.224074
H66   H     H_    0.332346 0.237483 0.477278 0.281992
O19   O     O_3   0.857494 0.585383 0.339467 -0.595653
C67   C     C_3   0.850095 0.558959 0.216077 0.137314
H67   H     H_    0.799791 0.576218 0.174647 0.193794
H68   H     H_    0.853385 0.498553 0.212443 0.107215
C68   C     C_3   0.907776 0.590359 0.135407 -0.846854
H69   H     H_    0.958953 0.573309 0.173451 0.263674
H70   H     H_    0.902336 0.570445 0.037924 0.198504
H71   H     H_    0.905003 0.650617 0.134277 0.261950
O20   O     O_3   0.143709 0.631634 0.523237 -0.607272
C69   C     C_3   0.156394 0.669697 0.635565 0.118370
H72   H     H_    0.207077 0.698384 0.631433 0.188327
H73   H     H_    0.155832 0.633108 0.719564 0.110397
C70   C     C_3   0.100235 0.726446 0.651798 -0.833241
H74   H     H_    0.048662 0.699659 0.657237 0.261776
H75   H     H_    0.109673 0.757037 0.739463 0.204918
H76   H     H_    0.100570 0.765121 0.571204 0.262233
O21   O     O_3   0.711722 0.594386 0.342264 -0.609173
C71   C     C_3   0.718945 0.666927 0.383641 0.134248
H77   H     H_    0.767321 0.677448 0.438486 0.150934
H78   H     H_    0.674070 0.680557 0.443368 0.149292
C72   C     C_3   0.719374 0.718271 0.271025 -0.809701
H79   H     H_    0.671074 0.711965 0.215623 0.246037
H80   H     H_    0.723140 0.775341 0.303084 0.217399
H81   H     H_    0.764453 0.706571 0.210495 0.264593
O22   O     O_3   0.288157 0.632218 0.494656 -0.595632
C73   C     C_3   0.278988 0.660021 0.371763 0.123733
H82   H     H_    0.229394 0.690337 0.365391 0.180468
H83   H     H_    0.279161 0.616700 0.299242 0.103920
C74   C     C_3   0.337968 0.712353 0.342453 -0.783961
H84   H     H_    0.386625 0.681656 0.328614 0.286870
H85   H     H_    0.325859 0.743793 0.255950 0.193915
H86   H     H_    0.345647 0.750710 0.420772 0.264102

loop_
_geom_bond_atom_site_label_1
_geom_bond_atom_site_label_2
_ccdc_geom_bond_type
C64   H61   S    
C50   H24   S    
C26   C32   S    
C30   N2    A    
C6    O22   S    
C62   H56   S    
C1    C8    S    
C2    C7    S    
C49   C50   S    
O21   C71   S    
C17   H5    S    
C52   H31   S    
C18   H6    S    
C62   H54   S    
C72   H80   S    
C4    C46   A    
C57   H42   S    
C15   H3    S    
C22   C35   S    
C67   H67   S    
C35   C37   A    
C47   H18   S    
C29   C32   A    
C2    O4    A    
C74   H85   S    
C28   O13   S    
O4    Zn2   S    
C64   H59   S    
C14   H16   S    
C64   H60   S    
O1    Zn1   S    
C55   H37   S    
C15   C17   A    
C18   C19   A    
C66   H66   S    
C20   C24   A    
C51   H27   S    
C54   H34   S    
O18   C65   S    
C33   C35   A    
C49   H22   S    
C25   O12   S    
C39   H9    S    
C68   H69   S    
C71   H78   S    
C61   H52   S    
C40   H10   S    
C1    O1    A    
O13   C55   S    
C47   C48   S    
O5    Zn1   S    
C16   N1    A    
C72   H81   S    
C19   C27   S    
C9    C10   A    
C22   O5    A    
C38   H2    S    
C71   C72   S    
C7    C41   A    
C29   O14   S    
C13   C14   A    
C41   C43   A    
C23   O6    A    
C56   H41   S    
C42   C44   A    
C42   O18   S    
C31   N2    A    
C3    O19   S    
C44   C46   A    
C70   H76   S    
C58   H45   S    
C30   H7    S    
C4    O20   S    
C33   C40   S    
C39   O15   S    
C34   C39   S    
C57   C58   S    
C21   O10   S    
O15   C59   S    
C65   C66   S    
C47   H17   S    
O8    Zn2   S    
C74   H86   S    
C44   H12   S    
O11   C51   S    
C5    C7    A    
C17   C19   A    
C6    C8    A    
N1    Zn1   S    
C3    C5    A    
C25   C26   A    
O2    Zn1   S    
C3    C45   A    
C53   C54   S    
O22   C73   S    
C70   H75   S    
C9    H13   S    
C10   H14   S    
O9    C47   S    
C60   H50   S    
C74   H84   S    
C37   C38   A    
O7    Zn2   S    
O10   C49   S    
C28   C32   A    
C66   H64   S    
O6    Zn1   S    
C53   H33   S    
C33   C34   A    
C5    O21   S    
C68   H71   S    
C56   H40   S    
O3    Zn2   S    
C63   H57   S    
C63   C64   S    
C43   C45   A    
C59   C60   S    
C4    C6    A    
C40   O16   S    
C12   C14   A    
C23   C36   S    
C50   H25   S    
C54   H35   S    
C37   H1    S    
C51   C52   S    
C8    C42   A    
C60   H49   S    
C24   O11   S    
C22   O7    A    
C70   H74   S    
C71   H77   S    
C59   H48   S    
C58   H46   S    
C62   H55   S    
C21   C25   A    
C52   H30   S    
C69   H72   S    
C15   N1    A    
C73   H83   S    
C56   H39   S    
C23   O8    A    
C67   C68   S    
C24   C26   A    
C65   H63   S    
C12   C45   S    
C2    O2    A    
C48   H21   S    
O17   C63   S    
C73   C74   S    
C63   H58   S    
C20   C27   A    
C48   H20   S    
C55   C56   S    
C69   H73   S    
C68   H70   S    
C60   H51   S    
C28   C30   A    
C29   C31   A    
C72   H79   S    
O12   C53   S    
C36   C38   A    
C11   C13   A    
C51   H28   S    
C55   H38   S    
C61   C62   S    
C61   H53   S    
C67   H68   S    
C53   H32   S    
C1    O3    A    
C57   H43   S    
C54   H36   S    
C34   C36   A    
C65   H62   S    
C66   H65   S    
C31   H8    S    
C21   C27   A    
O16   C61   S    
C16   H4    S    
C9    C12   A    
C41   O17   S    
O20   C69   S    
C10   C11   A    
C43   H11   S    
C48   H19   S    
C39   C40   S    
C13   H15   S    
C20   O9    S    
C16   C18   A    
C58   H44   S    
C50   H26   S    
C52   H29   S    
N2    Zn2   S    
C49   H23   S    
C11   C46   S    
C69   C70   S    
O19   C67   S    
C73   H82   S    
O14   C57   S    
C59   H47   S    
