data_mof_unit_55512.cif
_audit_creation_date              2013-03-05T16:45:21-0500
_audit_creation_method            fapswitch 2.2
_symmetry_space_group_name_H-M    P1
_symmetry_Int_Tables_number       1
_space_group_crystal_system       triclinic
_cell_length_a                    8.90544
_cell_length_b                    10.682249
_cell_length_c                    9.893794
_cell_angle_alpha                 89.993518
_cell_angle_beta                  90.040335
_cell_angle_gamma                 89.968754
_cell_volume                      941.197505777

loop_
_atom_site_label
_atom_site_type_symbol
_atom_site_description
_atom_site_fract_x
_atom_site_fract_y
_atom_site_fract_z
_atom_type_partial_charge
O1    O     O_R   0.500020 0.316790 0.614690 -0.617195
O2    O     O_R   0.500000 0.316760 0.385350 -0.620463
C1    C     C_R   0.502178 0.260225 0.500053 0.913610
O3    O     O_R   0.285350 0.500020 0.614650 -0.608579
O4    O     O_R   0.285340 0.499980 0.385310 -0.620029
C2    C     C_R   0.218806 0.499788 0.499961 0.966111
Zn1   Zn    Zn3+2 0.500010 0.500020 0.653130 0.965349
Zn2   Zn    Zn3+2 0.499990 0.499980 0.346870 0.954660
O5    O     O_R   0.500000 0.683240 0.614650 -0.616878
O6    O     O_R   0.499980 0.683210 0.385310 -0.622474
O7    O     O_R   0.714660 0.500020 0.614690 -0.621757
O8    O     O_R   0.714650 0.499980 0.385350 -0.631531
C3    C     C_R   0.502878 0.739778 0.500105 0.866258
C4    C     C_R   0.781217 0.499864 0.500052 0.934753
C5    C     C_1   0.065447 0.499628 0.499978 -0.160498
C6    C     C_1   0.934603 0.499659 0.500074 -0.176098
C7    C     C_R   0.479575 0.063699 0.618709 0.021939
C8    C     C_R   0.516852 0.128502 0.501596 -0.046741
C9    C     C_R   0.575201 0.064840 0.389436 -0.178270
H1    H     H_    0.613377 0.114459 0.300350 0.166189
C10   C     C_R   0.575821 0.935238 0.389597 -0.195192
H2    H     H_    0.613877 0.885664 0.300431 0.166200
C11   C     C_R   0.518885 0.871440 0.502238 -0.052168
C12   C     C_R   0.482523 0.936038 0.619761 0.080230
C13   C     C_3   0.345360 0.925937 0.706422 -0.521241
C14   C     C_3   0.340165 0.068177 0.703797 0.140898
H3    H     H_    0.250249 0.878778 0.654215 0.225732
H4    H     H_    0.372078 0.887534 0.808069 0.183943
H5    H     H_    0.358497 0.112352 0.804273 0.103766
C15   C     C_R   0.368776 0.509866 0.071105 0.217445
N1    N     N_R   0.499010 0.499140 0.142800 -0.107325
C16   C     C_R   0.630948 0.499588 0.071829 -0.132690
H6    H     H_    0.736806 0.497413 0.125260 0.157840
C17   C     C_R   0.630947 0.499615 0.928271 -0.121225
H7    H     H_    0.736797 0.497463 0.874959 0.161424
N2    N     N_R   0.499010 0.499180 0.857150 -0.109213
C18   C     C_R   0.368768 0.509794 0.928765 0.191128
C19   C     C_3   0.239788 0.421059 0.923471 -0.449156
C20   C     C_3   0.239458 0.421533 0.076875 -0.503017
H8    H     H_    0.137810 0.464653 0.878806 0.213909
H9    H     H_    0.271634 0.329109 0.879599 0.236516
H10   H     H_    0.137577 0.466009 0.120567 0.207838
H11   H     H_    0.270188 0.329670 0.122054 0.226639
N3    N     N_R   0.209135 0.117331 0.631216 0.225226
O9    O     O_R   0.123637 0.200476 0.688743 -0.417420
O10   O     O_R   0.174790 0.077149 0.510817 -0.398442

loop_
_geom_bond_atom_site_label_1
_geom_bond_atom_site_label_2
_geom_bond_distance
_ccdc_geom_bond_type
O4    Zn2   1.949281 S    
Zn1   O7    1.949282 S    
C11   C12   1.390504 A    
C18   C19   1.490531 S    
C13   H3    1.112606 S    
Zn1   N2    2.018577 S    
C19   H9    1.110674 S    
N1    C16   1.369229 A    
Zn2   O8    1.948921 S    
C16   H6    1.080727 S    
O2    C1    1.285609 A    
C2    C5    1.365727 S    
C14   N3    1.466651 S    
C10   H2    1.083460 S    
N3    O9    1.300961 A    
C13   H4    1.111638 S    
C19   H8    1.111676 S    
C15   N1    1.363847 A    
C14   H5    1.112434 S    
O3    Zn1   1.948921 S    
C7    C14   1.501247 S    
O3    C2    1.279766 A    
N2    C18   1.364260 A    
C9    C10   1.384451 A    
O8    C4    1.279970 A    
C15   C20   1.490348 S    
C7    C8    1.390174 A    
C20   H10   1.111705 S    
C17   N2    1.369130 A    
C10   C11   1.401619 A    
O4    C2    1.280135 A    
O7    C4    1.280113 A    
C4    C6    1.365970 S    
C7    C12   1.363985 A    
C5    C6    1.165231 T    
C19   C20   1.517759 S    
C12   C13   1.496811 S    
C3    C11   1.413882 S    
C1    C8    1.413154 S    
Zn2   O6    1.993957 S    
C17   H7    1.080741 S    
Zn1   O5    1.993842 S    
O5    C3    1.284388 A    
C8    C9    1.401598 A    
C20   H11   1.112252 S    
C13   C14   1.520333 S    
O1    Zn1   1.993957 S    
Zn2   N1    2.019060 S    
O2    Zn2   1.993844 S    
C9    H1    1.083469 S    
C15   C18   1.408282 A    
N3    O10   1.302497 A    
O1    C1    1.285319 A    
O6    C3    1.286815 A    
C16   C17   1.420328 A    
