data_mof_unit_34436.cif
_audit_creation_date              2012-12-10T19:11:29-0500
_audit_creation_method            fapswitch 2.2
_symmetry_space_group_name_H-M    P1
_symmetry_Int_Tables_number       1
_space_group_crystal_system       triclinic
_cell_length_a                    10.993557
_cell_length_b                    10.080628
_cell_length_c                    10.69056
_cell_angle_alpha                 91.850369
_cell_angle_beta                  94.246197
_cell_angle_gamma                 88.934108
_cell_volume                      1180.72450005

loop_
_atom_site_label
_atom_site_type_symbol
_atom_type_description
_atom_site_fract_x
_atom_site_fract_y
_atom_site_fract_z
_atom_type_partial_charge
C1    C     C_R   0.258881 0.500440 0.504939 0.883403
C2    C     C_3   0.484358 0.497758 0.121585 -0.257113
C3    C     C_3   0.077125 0.614072 0.606985 0.415772
C4    C     C_3   0.077127 0.355868 0.562811 0.488436
C5    C     C_3   0.933084 0.617890 0.593715 -0.071307
C6    C     C_3   0.934508 0.364608 0.576479 -0.087073
C7    C     C_3   0.058091 0.521989 0.370699 0.127220
C8    C     C_3   0.121563 0.498377 0.510841 -0.165097
C9    C     C_3   0.879166 0.493874 0.513799 -0.221089
C10   C     C_3   0.917767 0.491776 0.372276 0.607973
C11   C     C_3   0.385192 0.080960 0.435855 0.029782
C12   C     C_3   0.383547 0.922798 0.438777 0.009457
C13   C     C_3   0.610556 0.074294 0.442310 0.028785
C14   C     C_3   0.605546 0.916508 0.432436 0.100261
C15   C     C_3   0.506333 0.083235 0.629090 -0.021965
C16   C     C_3   0.514625 0.922295 0.628112 0.015389
C17   C     C_R   0.492956 0.498569 0.257835 0.985438
C18   C     C_R   0.741557 0.498368 0.506922 0.975816
C19   C     C_R   0.499059 0.502507 0.741510 0.915150
C20   C     C_3   0.382091 0.554179 0.032132 0.357788
C21   C     C_3   0.499310 0.378134 0.031585 0.416884
C22   C     C_3   0.396270 0.433814 0.941362 -0.376953
C23   C     C_3   0.492813 0.508773 0.876180 -0.275439
C24   C     C_3   0.476099 0.629617 0.964633 0.394690
C25   C     C_3   0.594300 0.454232 0.966580 0.376310
C26   C     C_3   0.578871 0.575688 0.055548 -0.289320
H1    H     H_    0.319834 0.373950 0.898733 0.206244
H2    H     H_    0.310846 0.114904 0.493925 0.202285
H3    H     H_    0.311507 0.900054 0.501384 0.207991
H4    H     H_    0.419261 0.110210 0.671776 0.158245
H5    H     H_    0.438017 0.887540 0.680392 0.226215
H6    H     H_    0.691212 0.095985 0.508488 0.148524
H7    H     H_    0.691421 0.880845 0.481803 0.161239
H8    H     H_    0.652295 0.640571 0.096063 0.253456
H9    H     H_    0.903756 0.703507 0.535220 0.216398
H10   H     H_    0.890571 0.279639 0.523379 0.257395
N1    N     N_3   0.499750 0.138610 0.497240 -0.098631
N2    N     N_3   0.499750 0.861390 0.497240 -0.101887
O1    O     O_R   0.314910 0.616040 0.499970 -0.594283
O2    O     O_R   0.314910 0.383960 0.499970 -0.615829
O3    O     O_R   0.500080 0.616020 0.313900 -0.631365
O4    O     O_R   0.500080 0.383980 0.313900 -0.623481
O5    O     O_R   0.685320 0.616040 0.499930 -0.631203
O6    O     O_R   0.685320 0.383960 0.499930 -0.647690
O7    O     O_R   0.500150 0.616060 0.686000 -0.609959
O8    O     O_R   0.500150 0.383940 0.686000 -0.640514
Zn1   Zn    Zn3+2 0.500150 0.654960 0.499940 0.938419
Zn2   Zn    Zn3+2 0.500150 0.345040 0.499940 0.916340
Cl1   Cl    Cl    0.826145 0.601013 0.273997 -0.669706
Cl2   Cl    Cl    0.876857 0.338360 0.289774 -0.544520
C27   C     C_3   0.344499 0.140322 0.308354 -0.657614
H11   H     H_    0.251976 0.106432 0.275294 0.248256
H12   H     H_    0.335088 0.248559 0.314549 0.278782
H13   H     H_    0.405431 0.110127 0.236203 0.268600
C28   C     C_3   0.333999 0.858810 0.312928 -0.684737
H14   H     H_    0.236057 0.886275 0.296465 0.236939
H15   H     H_    0.375483 0.891870 0.229363 0.262933
H16   H     H_    0.339739 0.751421 0.313991 0.289378
C29   C     C_3   0.652599 0.135165 0.324026 -0.646217
H17   H     H_    0.598498 0.100846 0.240442 0.277841
H18   H     H_    0.655975 0.242119 0.328639 0.330166
H19   H     H_    0.748264 0.103317 0.311517 0.246458
C30   C     C_3   0.628949 0.857055 0.301541 -0.745803
H20   H     H_    0.647940 0.752633 0.307522 0.319970
H21   H     H_    0.559935 0.878338 0.225423 0.262104
H22   H     H_    0.716659 0.891874 0.270724 0.232171
C31   C     C_3   0.604403 0.152264 0.720960 -0.655166
H23   H     H_    0.677945 0.093552 0.768292 0.231871
H24   H     H_    0.652852 0.225929 0.671285 0.251785
H25   H     H_    0.560170 0.199580 0.800847 0.296453
C32   C     C_3   0.631406 0.868036 0.700980 -0.779488
H26   H     H_    0.716047 0.914939 0.675721 0.189464
H27   H     H_    0.627337 0.881686 0.803554 0.293756
H28   H     H_    0.646084 0.763987 0.678290 0.284149
Cl3   Cl    Cl    0.240438 0.629660 0.064794 -0.675706
Cl4   Cl    Cl    0.505628 0.204181 0.044449 -0.625610
Cl5   Cl    Cl    0.450385 0.800038 0.932192 -0.574496
Cl6   Cl    Cl    0.742130 0.388419 0.946777 -0.573649
Cl7   Cl    Cl    0.124546 0.781794 0.582473 -0.670724
Cl8   Cl    Cl    0.095040 0.217002 0.454981 -0.668985
C33   C     C_3   0.136525 0.599276 0.742905 -0.677660
H29   H     H_    0.101835 0.518195 0.794403 0.205540
H30   H     H_    0.237043 0.587926 0.742741 0.234541
H31   H     H_    0.119719 0.689034 0.802936 0.308034
C34   C     C_3   0.155615 0.304264 0.682222 -0.759442
H32   H     H_    0.242185 0.357111 0.699673 0.208580
H33   H     H_    0.112499 0.308290 0.771679 0.219459
H34   H     H_    0.182566 0.197672 0.674232 0.271886
C35   C     C_3   0.874190 0.651416 0.719725 -0.793209
H35   H     H_    0.872244 0.760570 0.736345 0.255865
H36   H     H_    0.781140 0.612854 0.720846 0.233494
H37   H     H_    0.921697 0.611314 0.804723 0.269897
C36   C     C_3   0.892081 0.340458 0.707580 -0.812313
H38   H     H_    0.794983 0.366875 0.710123 0.264754
H39   H     H_    0.904115 0.233941 0.730310 0.267171
H40   H     H_    0.939156 0.399702 0.783304 0.279180
C37   C     C_3   0.072088 0.667168 0.328850 -0.688693
H41   H     H_    0.010199 0.740156 0.371481 0.270604
H42   H     H_    0.164935 0.696921 0.349975 0.265470
H43   H     H_    0.052066 0.678769 0.226359 0.299546
C38   C     C_3   0.120664 0.441257 0.263822 -0.593151
H44   H     H_    0.075211 0.464734 0.170636 0.292099
H45   H     H_    0.218389 0.466281 0.263172 0.204151
H46   H     H_    0.117063 0.333151 0.263335 0.284440

loop_
_geom_bond_atom_site_label_1
_geom_bond_atom_site_label_2
_ccdc_geom_bond_type
C7    C10   S    
C28   H14   S    
C30   H21   S    
C36   H38   S    
C12   H3    S    
C1    C8    S    
C13   H6    S    
C4    C8    S    
C3    Cl7   S    
C37   H43   S    
C14   H7    S    
C37   H41   S    
C19   O8    A    
C7    C8    S    
C34   H32   S    
C16   H5    S    
C21   Cl4   S    
C38   H44   S    
C24   C26   S    
C4    Cl8   S    
C15   C16   S    
C11   N1    S    
C17   O4    A    
C15   N1    S    
C1    O2    A    
C37   H42   S    
C26   H8    S    
C20   C24   S    
C3    C33   S    
C23   C24   S    
C35   H36   S    
C9    C10   S    
C13   N1    S    
C34   H33   S    
C30   H22   S    
C29   H17   S    
C38   H45   S    
C21   C22   S    
C2    C17   S    
C16   C32   S    
C6    C9    S    
C33   H30   S    
C33   H29   S    
O7    Zn1   S    
O8    Zn2   S    
C29   H18   S    
C2    C20   S    
C31   H23   S    
C4    C6    S    
C3    C8    S    
C32   H27   S    
C4    C34   S    
C25   C26   S    
C25   Cl6   S    
C27   H11   S    
C20   Cl3   S    
C27   H12   S    
C19   C23   S    
C5    C9    S    
C18   O6    A    
C14   N2    S    
C24   Cl5   S    
C6    C36   S    
C15   C31   S    
C2    C21   S    
O3    Zn1   S    
C2    C26   S    
O4    Zn2   S    
C35   H37   S    
N2    Zn1   S    
C20   C22   S    
C36   H40   S    
C22   H1    S    
C28   H15   S    
C10   Cl2   S    
C33   H31   S    
C15   H4    S    
O1    Zn1   S    
C34   H34   S    
O2    Zn2   S    
C21   C25   S    
C29   H19   S    
C7    C37   S    
C3    C5    S    
C32   H28   S    
C11   C12   S    
C19   O7    A    
C13   C29   S    
C38   H46   S    
C31   H25   S    
C27   H13   S    
C32   H26   S    
C18   O5    A    
N1    Zn2   S    
C11   H2    S    
C14   C30   S    
C5    H9    S    
C6    H10   S    
C23   C25   S    
C12   N2    S    
C17   O3    A    
C12   C28   S    
C11   C27   S    
C1    O1    A    
C30   H20   S    
C9    C18   S    
C36   H39   S    
C7    C38   S    
C28   H16   S    
C22   C23   S    
C31   H24   S    
C35   H35   S    
C13   C14   S    
C10   Cl1   S    
O5    Zn1   S    
C5    C35   S    
O6    Zn2   S    
C16   N2    S    
