data_mof_unit_66435.cif
_audit_creation_date              2012-12-10T19:09:37-0500
_audit_creation_method            fapswitch 2.2
_symmetry_space_group_name_H-M    P1
_symmetry_Int_Tables_number       1
_space_group_crystal_system       triclinic
_cell_length_a                    34.591893
_cell_length_b                    34.530428
_cell_length_c                    24.982121
_cell_angle_alpha                 89.630347
_cell_angle_beta                  46.142826
_cell_angle_gamma                 89.806629
_cell_volume                      21516.568069

loop_
_atom_site_label
_atom_site_type_symbol
_atom_type_description
_atom_site_fract_x
_atom_site_fract_y
_atom_site_fract_z
_atom_type_partial_charge
C1    C     C_R   0.400267 0.749890 0.699476 0.524726
C2    C     C_3   0.299516 0.251595 0.974951 0.208529
C3    C     C_R   0.271094 0.249801 0.500918 -0.000435
C4    C     C_R   0.769507 0.246923 0.503405 -0.002364
C5    C     C_R   0.226638 0.747445 0.503846 -0.005327
C6    C     C_R   0.228655 0.249929 0.500991 -0.000710
C7    C     C_R   0.771092 0.749809 0.500918 -0.000418
C8    C     C_R   0.475409 0.541731 0.567906 0.267591
C9    C     C_R   0.525332 0.458243 0.431670 0.269182
C10   C     C_R   0.547263 0.542426 0.435493 0.270174
C11   C     C_R   0.453260 0.457669 0.564083 0.269108
C12   C     C_R   0.975415 0.041730 0.567900 0.267587
C13   C     C_3   0.245470 0.781529 0.974925 0.217793
C14   C     C_R   0.025339 0.958242 0.431663 0.269188
C15   C     C_R   0.047267 0.042427 0.435486 0.270166
C16   C     C_R   0.953263 0.957670 0.564076 0.269122
C17   C     C_R   0.469893 0.581917 0.568385 0.223189
C18   C     C_R   0.530630 0.418036 0.431363 0.222515
C19   C     C_R   0.543042 0.582770 0.434117 0.220418
C20   C     C_R   0.457274 0.417313 0.565596 0.217904
C21   C     C_R   0.969898 0.081916 0.568381 0.223201
C22   C     C_R   0.030635 0.918035 0.431359 0.222515
C23   C     C_R   0.043044 0.082771 0.434113 0.220378
C24   C     C_3   0.752925 0.216168 0.025471 0.206466
C25   C     C_R   0.957275 0.917314 0.565592 0.217934
C26   C     C_R   0.501777 0.602434 0.500587 -0.034313
C27   C     C_R   0.498485 0.397567 0.499227 -0.034379
C28   C     C_R   0.001779 0.102434 0.500584 -0.034330
C29   C     C_R   0.998488 0.897567 0.499224 -0.034361
C30   C     C_R   0.505194 0.521287 0.500579 -0.020839
C31   C     C_R   0.495471 0.478738 0.498970 -0.020836
C32   C     C_R   0.005199 0.021287 0.500572 -0.020833
C33   C     C_R   0.995477 0.978738 0.498963 -0.020829
C34   C     C_R   0.499555 0.644829 0.500807 0.583605
C35   C     C_3   0.201896 0.246140 0.024775 0.221209
C36   C     C_R   0.500492 0.355168 0.499157 0.588513
C37   C     C_R   0.999555 0.144829 0.500807 0.583581
C38   C     C_R   0.000493 0.855168 0.499157 0.588556
C39   C     C_R   0.499981 0.855121 0.500046 0.512299
C40   C     C_R   0.499964 0.144795 0.499972 0.518349
C41   C     C_R   0.999981 0.355124 0.500044 0.512263
C42   C     C_R   0.999967 0.644798 0.499965 0.518346
C43   C     C_R   0.464668 0.958293 0.499361 0.255639
C44   C     C_R   0.459666 0.041118 0.565919 0.256877
C45   C     C_R   0.534582 0.958360 0.500572 0.263968
C46   C     C_3   0.799285 0.753540 0.974931 0.209308
C47   C     C_R   0.539813 0.041554 0.433114 0.254689
C48   C     C_R   0.964550 0.458298 0.499552 0.255557
C49   C     C_R   0.959840 0.541125 0.565955 0.256873
C50   C     C_R   0.034700 0.458378 0.500292 0.263900
C51   C     C_R   0.039643 0.541570 0.432990 0.254761
C52   C     C_R   0.465022 0.917756 0.498862 0.237479
C53   C     C_R   0.459999 0.081624 0.566546 0.235385
C54   C     C_R   0.533888 0.917888 0.502557 0.249868
C55   C     C_R   0.539664 0.082075 0.432826 0.240310
C56   C     C_R   0.964914 0.417760 0.499045 0.237473
C57   C     C_3   0.745160 0.281370 0.974927 0.217869
C58   C     C_R   0.960204 0.581630 0.566588 0.235587
C59   C     C_R   0.033996 0.417906 0.502318 0.249870
C60   C     C_R   0.039499 0.582092 0.432720 0.240206
C61   C     C_R   0.499773 0.897486 0.500252 -0.036440
C62   C     C_R   0.499882 0.102283 0.499782 -0.033826
C63   C     C_R   0.999772 0.397493 0.500234 -0.036534
C64   C     C_R   0.999893 0.602290 0.499753 -0.033813
C65   C     C_R   0.499842 0.978567 0.499365 0.013587
C66   C     C_R   0.499688 0.021107 0.499420 0.013273
C67   C     C_R   0.999841 0.478578 0.499311 0.013641
C68   C     C_3   0.252598 0.716010 0.025472 0.206539
C69   C     C_R   0.999680 0.521119 0.499368 0.013285
C70   C     C_3   0.242511 0.279038 0.974868 0.220372
C71   C     C_3   0.760388 0.719861 0.024905 0.212560
C72   C     C_3   0.700297 0.250856 0.024761 0.211778
C73   C     C_3   0.297773 0.746321 0.975629 0.218000
C74   C     C_3   0.740914 0.777959 0.974891 0.220172
C75   C     C_3   0.258878 0.218698 0.024917 0.212015
C76   C     C_3   0.200312 0.751212 0.024754 0.211865
C77   C     C_3   0.797805 0.246676 0.975622 0.217996
C78   C     C_3   0.452940 0.889662 0.429148 0.041779
C79   C     C_1   0.639749 0.749753 0.221347 0.120905
C80   C     C_3   0.411735 0.869649 0.432978 -0.266883
C81   C     C_3   0.434961 0.860496 0.355754 -0.423670
C82   C     C_3   0.436513 0.110368 0.667544 0.039604
C83   C     C_3   0.391258 0.131746 0.739557 -0.234415
C84   C     C_3   0.408821 0.146160 0.777605 -0.420116
C85   C     C_3   0.537226 0.882526 0.577769 0.042961
C86   C     C_3   0.559225 0.897573 0.609751 -0.216534
C87   C     C_3   0.533646 0.876650 0.681857 -0.425478
C88   C     C_3   0.563423 0.111964 0.331909 0.030860
C89   C     C_3   0.609176 0.133099 0.259331 -0.226713
C90   C     C_1   0.360937 0.249388 0.778541 0.100730
C91   C     C_3   0.591818 0.148380 0.221219 -0.431426
C92   C     C_3   0.952622 0.389686 0.429554 0.041839
C93   C     C_3   0.911332 0.369670 0.433566 -0.266951
C94   C     C_3   0.934404 0.360563 0.356410 -0.423774
C95   C     C_3   0.937538 0.610348 0.667042 0.039293
C96   C     C_3   0.892710 0.631904 0.739047 -0.234210
C97   C     C_3   0.910921 0.646289 0.776277 -0.420176
C98   C     C_3   0.037541 0.382600 0.577367 0.043017
C99   C     C_3   0.059641 0.397741 0.609159 -0.216494
C100  C     C_3   0.034225 0.376852 0.681224 -0.425360
C101  C     C_1   0.360380 0.749390 0.778718 0.124824
C102  C     C_3   0.062863 0.612045 0.332107 0.030785
C103  C     C_3   0.108467 0.633220 0.259492 -0.226721
C104  C     C_3   0.090828 0.648572 0.221776 -0.431727
C105  C     C_3   0.343275 0.715542 0.340733 0.033763
C106  C     C_3   0.350003 0.719267 0.273708 -0.244888
C107  C     C_3   0.357740 0.679773 0.240374 -0.412672
C108  C     C_3   0.721877 0.335465 0.535658 0.039696
C109  C     C_3   0.766828 0.355452 0.523501 -0.278295
C110  C     C_3   0.745080 0.376948 0.592902 -0.424491
C111  C     C_3   0.746860 0.659679 0.483682 0.018756
C112  C     C_R   0.599576 0.249957 0.300573 0.512589
C113  C     C_1   0.638721 0.249624 0.221432 0.096119
C114  C     C_3   0.747615 0.620976 0.512813 -0.217434
C115  C     C_3   0.791626 0.594584 0.449239 -0.454684
C116  C     C_3   0.359395 0.225252 0.322766 0.048683
C117  C     C_3   0.325836 0.213591 0.306413 -0.275389
C118  C     C_3   0.345769 0.175814 0.263065 -0.436216
C119  C     C_3   0.843312 0.215654 0.340653 0.033769
C120  C     C_3   0.850020 0.219424 0.273650 -0.244896
C121  C     C_3   0.857795 0.179952 0.240226 -0.412701
C122  C     C_3   0.222084 0.835471 0.535345 0.039685
C123  C     C_3   0.267108 0.855441 0.523036 -0.278224
C124  C     C_1   0.139768 0.249733 0.221344 0.120891
C125  C     C_3   0.245460 0.876976 0.592352 -0.424600
C126  C     C_3   0.246793 0.159666 0.483815 0.018751
C127  C     C_3   0.247522 0.120975 0.513001 -0.217429
C128  C     C_3   0.291511 0.094557 0.449465 -0.454628
C129  C     C_3   0.859407 0.725326 0.322728 0.048635
C130  C     C_3   0.825854 0.713675 0.306361 -0.275375
C131  C     C_3   0.845813 0.675917 0.262954 -0.436128
C132  C     C_1   0.860922 0.749400 0.778545 0.100836
C133  C     C_1   0.860382 0.249390 0.778719 0.124872
C134  C     C_1   0.138717 0.749623 0.221432 0.096157
C135  C     C_3   0.752582 0.782667 0.024000 0.213858
C136  C     C_3   0.247072 0.215901 0.975690 0.210706
C137  C     C_3   0.241021 0.718348 0.975901 0.214450
C138  C     C_3   0.756812 0.279382 0.024396 0.218645
C139  C     C_3   0.254365 0.281839 0.024005 0.214158
C140  C     C_R   0.599775 0.750000 0.300596 0.523893
C141  C     C_3   0.748765 0.715158 0.975710 0.210802
C142  C     C_3   0.741324 0.218150 0.975908 0.214404
C143  C     C_3   0.257097 0.779186 0.024401 0.218588
C144  C     C_3   0.713835 0.749003 0.073664 -0.071857
C145  C     C_3   0.287508 0.248809 0.926126 -0.074821
C146  C     C_3   0.286029 0.748677 0.926396 -0.070052
C147  C     C_3   0.712110 0.248887 0.073907 -0.076082
C148  C     C_3   0.213877 0.248956 0.073658 -0.071747
C149  C     C_3   0.787463 0.748845 0.926132 -0.074712
C150  C     C_3   0.786037 0.248676 0.926397 -0.070020
C151  C     C_R   0.400340 0.249872 0.699364 0.518918
C152  C     C_3   0.212101 0.748887 0.073906 -0.076030
C153  C     C_1   0.673264 0.749385 0.154680 0.115451
C154  C     C_1   0.327808 0.249020 0.845170 0.099728
C155  C     C_1   0.326784 0.748963 0.845384 0.118960
C156  C     C_1   0.671763 0.249245 0.154828 0.095129
C157  C     C_1   0.173296 0.249349 0.154677 0.115384
C158  C     C_1   0.827778 0.749044 0.845174 0.100119
C159  C     C_1   0.826789 0.248962 0.845385 0.118990
C160  C     C_1   0.171756 0.749243 0.154828 0.095257
C161  C     C_R   0.256625 0.745590 0.570577 0.230724
C162  C     C_R   0.900267 0.249890 0.699476 0.524791
C163  C     C_R   0.698599 0.213326 0.518079 0.237114
C164  C     C_R   0.717233 0.784126 0.483540 0.269004
C165  C     C_R   0.257637 0.247569 0.568333 0.263468
C166  C     C_R   0.756631 0.245566 0.570570 0.230739
C167  C     C_R   0.198540 0.713329 0.518184 0.237225
C168  C     C_R   0.217269 0.284111 0.483477 0.269008
C169  C     C_R   0.757636 0.747555 0.568330 0.263464
C170  C     C_R   0.297619 0.746622 0.569633 0.208583
C171  C     C_R   0.658678 0.214143 0.516856 0.209949
C172  C     C_R   0.677217 0.784241 0.482704 0.192103
C173  C     C_R   0.099575 0.749957 0.300573 0.512523
C174  C     C_R   0.298178 0.247589 0.568069 0.208074
C175  C     C_R   0.797624 0.246596 0.569626 0.208555
C176  C     C_R   0.158618 0.714151 0.516965 0.209919
C177  C     C_R   0.177260 0.284228 0.482629 0.192084
C178  C     C_R   0.798177 0.747574 0.568066 0.208076
C179  C     C_R   0.351655 0.749332 0.501377 -0.044477
C180  C     C_R   0.646872 0.249103 0.501239 -0.029843
C181  C     C_R   0.647968 0.749916 0.500053 -0.046219
C182  C     C_R   0.352415 0.250030 0.500040 -0.037853
C183  C     C_R   0.851657 0.249335 0.501375 -0.044481
C184  C     C_R   0.099778 0.249997 0.300596 0.523930
C185  C     C_R   0.146868 0.749101 0.501245 -0.029774
C186  C     C_R   0.147975 0.249912 0.500045 -0.046243
C187  C     C_R   0.852413 0.750031 0.500040 -0.037876
C188  C     C_R   0.364299 0.750886 0.434264 0.175566
C189  C     C_R   0.675145 0.283169 0.486775 0.199955
C190  C     C_R   0.659336 0.715735 0.518678 0.205883
C191  C     C_R   0.365677 0.253034 0.432460 0.194419
C192  C     C_R   0.864300 0.250926 0.434265 0.175504
C193  C     C_R   0.175195 0.783153 0.486678 0.200008
C194  C     C_R   0.159311 0.215739 0.518730 0.205877
C195  C     C_R   0.900338 0.749873 0.699366 0.518684
C196  C     C_R   0.865674 0.753057 0.432462 0.194399
C197  C     C_R   0.323355 0.749101 0.435244 0.270247
C198  C     C_R   0.714647 0.282419 0.488695 0.276226
C199  C     C_R   0.699635 0.715780 0.518907 0.254172
C200  C     C_R   0.324952 0.252415 0.432876 0.263537
C201  C     C_R   0.823357 0.249150 0.435243 0.270214
C202  C     C_R   0.214699 0.782400 0.488592 0.276214
C203  C     C_R   0.199610 0.215782 0.518959 0.254184
C204  C     C_R   0.824947 0.752444 0.432879 0.263548
C205  C     C_R   0.605359 0.749953 0.499988 0.555650
C206  C     C_3   0.702037 0.744281 0.024814 0.221539
C207  C     C_R   0.394863 0.249987 0.499885 0.573960
C208  C     C_R   0.394768 0.750007 0.500102 0.573001
C209  C     C_R   0.605134 0.249942 0.499971 0.589151
C210  C     C_R   0.105361 0.249952 0.499986 0.555567
C211  C     C_R   0.894863 0.749987 0.499885 0.573869
C212  C     C_R   0.894768 0.250007 0.500102 0.573043
C213  C     C_R   0.105133 0.749942 0.499971 0.589125
C214  C     C_R   0.269503 0.746909 0.503409 -0.002429
C215  C     C_R   0.726641 0.247455 0.503843 -0.005294
C216  C     C_R   0.728652 0.749936 0.500991 -0.000714
Cl1   Cl    Cl    0.420000 0.983350 0.499453 -0.493035
Cl2   Cl    Cl    0.540365 0.479560 0.354286 -0.315506
Cl3   Cl    Cl    0.611768 0.521613 0.366588 -0.339868
Cl4   Cl    Cl    0.388868 0.478648 0.632996 -0.315241
Cl5   Cl    Cl    0.960636 0.020360 0.645069 -0.324072
Cl6   Cl    Cl    0.040373 0.979557 0.354277 -0.315526
Cl7   Cl    Cl    0.111772 0.021616 0.366579 -0.339865
Cl8   Cl    Cl    0.888872 0.978651 0.632986 -0.315248
Cl9   Cl    Cl    0.423175 0.605918 0.654711 -0.347559
Cl10  Cl    Cl    0.577404 0.393934 0.345159 -0.348567
Cl11  Cl    Cl    0.592895 0.608674 0.350507 -0.384448
Cl12  Cl    Cl    0.409056 0.015739 0.649688 -0.437623
Cl13  Cl    Cl    0.407270 0.391506 0.649277 -0.361921
Cl14  Cl    Cl    0.923181 0.105916 0.654708 -0.347489
Cl15  Cl    Cl    0.077411 0.893932 0.345157 -0.348609
Cl16  Cl    Cl    0.092893 0.108676 0.350503 -0.384289
Cl17  Cl    Cl    0.907268 0.891509 0.649272 -0.362175
Cl18  Cl    Cl    0.637178 0.738122 0.058423 -0.341986
Cl19  Cl    Cl    0.364684 0.255120 0.941197 -0.374085
Cl20  Cl    Cl    0.240910 0.825075 0.940940 -0.338916
Cl21  Cl    Cl    0.757494 0.172844 0.059944 -0.411925
Cl22  Cl    Cl    0.136791 0.242507 0.058340 -0.343055
Cl23  Cl    Cl    0.578101 0.983480 0.502300 -0.423943
Cl24  Cl    Cl    0.864201 0.759606 0.941166 -0.370852
Cl25  Cl    Cl    0.740178 0.324705 0.940944 -0.338465
Cl26  Cl    Cl    0.256741 0.672476 0.059952 -0.411730
Cl27  Cl    Cl    0.231866 0.319140 0.941141 -0.316358
Cl28  Cl    Cl    0.773125 0.681231 0.058534 -0.368724
Cl29  Cl    Cl    0.635175 0.253535 0.058163 -0.357428
Cl30  Cl    Cl    0.362746 0.743048 0.942583 -0.363872
Cl31  Cl    Cl    0.728202 0.816567 0.941184 -0.317000
Cl32  Cl    Cl    0.269548 0.178576 0.058565 -0.367030
Cl33  Cl    Cl    0.135222 0.754361 0.058144 -0.356835
Cl34  Cl    Cl    0.590480 0.016714 0.349249 -0.428744
Cl35  Cl    Cl    0.862809 0.243873 0.942568 -0.364210
Cl36  Cl    Cl    0.242805 0.172095 0.942705 -0.394783
Cl37  Cl    Cl    0.754945 0.827540 0.056461 -0.340776
Cl38  Cl    Cl    0.766864 0.320084 0.057080 -0.340563
Cl39  Cl    Cl    0.230552 0.677893 0.943284 -0.339176
Cl40  Cl    Cl    0.746761 0.670318 0.942782 -0.398384
Cl41  Cl    Cl    0.259046 0.325664 0.056483 -0.340441
Cl42  Cl    Cl    0.267540 0.819627 0.057091 -0.341102
Cl43  Cl    Cl    0.731243 0.177435 0.943299 -0.339177
Cl44  Cl    Cl    0.188861 0.743460 0.656342 -0.401695
Cl45  Cl    Cl    0.919716 0.483349 0.499972 -0.493011
Cl46  Cl    Cl    0.714303 0.169249 0.535852 -0.397420
Cl47  Cl    Cl    0.751476 0.827617 0.466248 -0.346979
Cl48  Cl    Cl    0.189575 0.246768 0.653736 -0.351112
Cl49  Cl    Cl    0.688870 0.243385 0.656331 -0.401506
Cl50  Cl    Cl    0.214182 0.669261 0.536070 -0.397607
Cl51  Cl    Cl    0.251547 0.327594 0.466122 -0.347143
Cl52  Cl    Cl    0.689574 0.746727 0.653731 -0.351060
Cl53  Cl    Cl    0.280745 0.743077 0.654489 -0.382568
Cl54  Cl    Cl    0.622420 0.171383 0.537161 -0.443968
Cl55  Cl    Cl    0.663161 0.828553 0.463010 -0.431362
Cl56  Cl    Cl    0.909455 0.515742 0.649822 -0.437278
Cl57  Cl    Cl    0.279912 0.247220 0.654131 -0.371344
Cl58  Cl    Cl    0.780757 0.243010 0.654474 -0.382591
Cl59  Cl    Cl    0.122286 0.671412 0.537401 -0.445334
Cl60  Cl    Cl    0.163272 0.328528 0.462815 -0.431616
Cl61  Cl    Cl    0.779908 0.747183 0.654130 -0.371084
Cl62  Cl    Cl    0.431152 0.756770 0.348040 -0.529673
Cl63  Cl    Cl    0.663211 0.326880 0.463129 -0.465684
Cl64  Cl    Cl    0.625376 0.671459 0.539929 -0.447497
Cl65  Cl    Cl    0.433044 0.257430 0.346261 -0.482396
Cl66  Cl    Cl    0.931151 0.256841 0.348052 -0.529418
Cl67  Cl    Cl    0.078387 0.483510 0.501676 -0.424287
Cl68  Cl    Cl    0.163321 0.826848 0.462916 -0.465579
Cl69  Cl    Cl    0.125314 0.171471 0.540057 -0.447496
Cl70  Cl    Cl    0.933039 0.757473 0.346266 -0.482677
Cl71  Cl    Cl    0.090109 0.516735 0.349028 -0.428956
Cl72  Cl    Cl    0.460629 0.520363 0.645077 -0.324027
H1    H     H_    0.487848 0.869954 0.401252 0.124158
H2    H     H_    0.378398 0.156929 0.727192 0.210439
H3    H     H_    0.239483 0.153969 0.447537 0.162011
H4    H     H_    0.254532 0.126150 0.549597 0.208075
H5    H     H_    0.208039 0.106408 0.546213 0.230632
H6    H     H_    0.284798 0.088468 0.412809 0.177191
H7    H     H_    0.291078 0.066716 0.472365 0.193010
H8    H     H_    0.331444 0.108351 0.416238 0.155047
H9    H     H_    0.863672 0.700135 0.346522 0.103565
H10   H     H_    0.900425 0.732758 0.269285 0.227542
H11   H     H_    0.783317 0.710030 0.359138 0.147967
H12   H     H_    0.827805 0.737044 0.273740 0.225913
H13   H     H_    0.356350 0.111988 0.777943 0.241369
H14   H     H_    0.888262 0.678956 0.209415 0.195961
H15   H     H_    0.821055 0.668607 0.251234 0.200889
H16   H     H_    0.842460 0.651914 0.295827 0.146649
H17   H     H_    0.421421 0.121443 0.791232 0.204334
H18   H     H_    0.374845 0.161205 0.829858 0.210814
H19   H     H_    0.442656 0.166921 0.740956 0.166711
H20   H     H_    0.541926 0.850536 0.572153 0.163826
H21   H     H_    0.493264 0.888793 0.618367 0.110628
H22   H     H_    0.603338 0.893332 0.568937 0.261795
H23   H     H_    0.550915 0.929084 0.620778 0.220243
H24   H     H_    0.489505 0.880877 0.723945 0.182979
H25   H     H_    0.466624 0.916752 0.395655 0.182801
H26   H     H_    0.550040 0.888492 0.703975 0.208465
H27   H     H_    0.542688 0.845178 0.671689 0.180827
H28   H     H_    0.528029 0.131559 0.367528 0.108372
H29   H     H_    0.552707 0.085674 0.318816 0.175052
H30   H     H_    0.622873 0.157816 0.270950 0.209080
H31   H     H_    0.643483 0.112950 0.221289 0.241465
H32   H     H_    0.578296 0.124144 0.208455 0.191136
H33   H     H_    0.626176 0.163138 0.168472 0.214649
H34   H     H_    0.558687 0.169589 0.257428 0.157888
H35   H     H_    0.987559 0.369990 0.401520 0.124131
H36   H     H_    0.398191 0.842287 0.465429 0.188219
H37   H     H_    0.966230 0.416787 0.396113 0.182750
H38   H     H_    0.897877 0.342289 0.465942 0.188284
H39   H     H_    0.875977 0.388873 0.462409 0.192139
H40   H     H_    0.946588 0.387691 0.323881 0.182114
H41   H     H_    0.903479 0.345784 0.361557 0.205974
H42   H     H_    0.969747 0.341228 0.326464 0.207289
H43   H     H_    0.973591 0.629404 0.630656 0.135455
H44   H     H_    0.947490 0.583643 0.680714 0.187119
H45   H     H_    0.879792 0.657118 0.726831 0.209699
H46   H     H_    0.857714 0.612275 0.777881 0.242174
H47   H     H_    0.376415 0.888870 0.461659 0.192115
H48   H     H_    0.923557 0.621537 0.789791 0.204319
H49   H     H_    0.877271 0.661502 0.828515 0.211191
H50   H     H_    0.944892 0.666895 0.739142 0.166890
H51   H     H_    0.042273 0.350611 0.571798 0.164152
H52   H     H_    0.993567 0.388832 0.618057 0.110494
H53   H     H_    0.103766 0.393550 0.568233 0.261903
H54   H     H_    0.051272 0.429246 0.620185 0.220136
H55   H     H_    0.990074 0.381027 0.723419 0.182928
H56   H     H_    0.050685 0.388763 0.703207 0.208435
H57   H     H_    0.043332 0.345388 0.671050 0.180997
H58   H     H_    0.447268 0.887603 0.323126 0.182116
H59   H     H_    0.027473 0.631632 0.367942 0.108234
H60   H     H_    0.052040 0.585778 0.319119 0.175077
H61   H     H_    0.122286 0.657907 0.270984 0.208870
H62   H     H_    0.142750 0.613082 0.221247 0.241631
H63   H     H_    0.077183 0.624367 0.209137 0.190901
H64   H     H_    0.125083 0.663362 0.168994 0.214558
H65   H     H_    0.057714 0.669769 0.258189 0.157957
H66   H     H_    0.308203 0.696396 0.382527 0.160613
H67   H     H_    0.379950 0.701955 0.322753 0.203432
H68   H     H_    0.313796 0.733288 0.291091 0.201954
H69   H     H_    0.404082 0.845743 0.360770 0.206117
H70   H     H_    0.385366 0.737825 0.230765 0.228962
H71   H     H_    0.394172 0.665432 0.221646 0.196638
H72   H     H_    0.362593 0.683514 0.191807 0.204425
H73   H     H_    0.322279 0.661023 0.282000 0.193117
H74   H     H_    0.693651 0.357696 0.547060 0.203520
H75   H     H_    0.699438 0.316381 0.585667 0.160329
H76   H     H_    0.796279 0.333415 0.509068 0.164806
H77   H     H_    0.787907 0.376312 0.476494 0.201313
H78   H     H_    0.715809 0.399373 0.608161 0.187760
H79   H     H_    0.778551 0.391346 0.582187 0.188142
H80   H     H_    0.470249 0.841122 0.325985 0.206998
H81   H     H_    0.725226 0.356342 0.639979 0.206758
H82   H     H_    0.786522 0.673621 0.450728 0.100796
H83   H     H_    0.739557 0.653997 0.447393 0.162029
H84   H     H_    0.754618 0.626136 0.549421 0.208034
H85   H     H_    0.708143 0.606396 0.546000 0.230634
H86   H     H_    0.784921 0.588511 0.412570 0.177223
H87   H     H_    0.791211 0.566734 0.472099 0.192965
H88   H     H_    0.831548 0.608391 0.416036 0.154953
H89   H     H_    0.363642 0.200071 0.346598 0.103607
H90   H     H_    0.400418 0.232664 0.269314 0.227584
H91   H     H_    0.472446 0.129554 0.631605 0.135301
H92   H     H_    0.283296 0.209968 0.359193 0.147954
H93   H     H_    0.327805 0.236946 0.273755 0.225913
H94   H     H_    0.388222 0.178833 0.209522 0.196008
H95   H     H_    0.321008 0.168497 0.251353 0.200678
H96   H     H_    0.342398 0.151826 0.295975 0.146696
H97   H     H_    0.808266 0.196479 0.382406 0.160612
H98   H     H_    0.880008 0.202080 0.322625 0.203421
H99   H     H_    0.813793 0.233434 0.291080 0.201923
H100  H     H_    0.885359 0.238008 0.230744 0.229005
H101  H     H_    0.894247 0.165622 0.221451 0.196576
H102  H     H_    0.446439 0.083692 0.681318 0.186857
H103  H     H_    0.862633 0.183726 0.191676 0.204442
H104  H     H_    0.822357 0.161176 0.281814 0.193125
H105  H     H_    0.193872 0.857716 0.546743 0.203482
H106  H     H_    0.199652 0.816422 0.585397 0.160256
H107  H     H_    0.296549 0.833390 0.508591 0.164870
H108  H     H_    0.288177 0.876273 0.475989 0.201380
H109  H     H_    0.216202 0.899416 0.607621 0.187760
H110  H     H_    0.278983 0.891360 0.581525 0.188174
H111  H     H_    0.225619 0.856398 0.639464 0.206698
H112  H     H_    0.286465 0.173595 0.450837 0.100810
O1    O     O_3   0.500000 0.749990 0.500000 -0.508387
O2    O     O_R   0.104930 0.727270 0.335600 -0.549283
O3    O     O_R   0.104930 0.272730 0.335600 -0.522969
O4    O     O_R   0.895070 0.727270 0.664400 -0.526014
O5    O     O_R   0.565180 0.727260 0.543110 -0.482499
O6    O     O_R   0.434820 0.272740 0.456890 -0.474510
O7    O     O_R   0.434820 0.727260 0.456890 -0.482287
O8    O     O_R   0.565180 0.272740 0.543110 -0.496302
O9    O     O_R   0.065180 0.227260 0.543110 -0.482483
O10   O     O_R   0.934820 0.772740 0.456890 -0.474498
O11   O     O_R   0.934820 0.227260 0.456890 -0.482297
O12   O     O_3   0.500000 0.250010 0.500000 -0.504586
O13   O     O_R   0.065180 0.772740 0.543110 -0.496403
O14   O     O_R   0.501190 0.663260 0.543120 -0.474656
O15   O     O_R   0.498810 0.336740 0.456880 -0.485789
O16   O     O_R   0.498810 0.663260 0.456880 -0.491537
O17   O     O_R   0.501190 0.336740 0.543120 -0.480473
O18   O     O_R   0.001190 0.163260 0.543120 -0.474675
O19   O     O_R   0.998810 0.836740 0.456880 -0.485753
O20   O     O_R   0.998810 0.163260 0.456880 -0.491564
O21   O     O_R   0.001190 0.836740 0.543120 -0.480453
O22   O     O_R   0.455720 0.836720 0.543090 -0.510945
O23   O     O_3   0.000000 0.249990 0.500000 -0.508387
O24   O     O_R   0.544280 0.163280 0.456910 -0.492089
O25   O     O_R   0.544280 0.836720 0.456910 -0.498703
O26   O     O_R   0.455720 0.163280 0.543090 -0.514641
O27   O     O_R   0.955720 0.336720 0.543090 -0.510837
O28   O     O_R   0.044280 0.663280 0.456910 -0.492214
O29   O     O_R   0.044280 0.336720 0.456910 -0.498665
O30   O     O_R   0.955720 0.663280 0.543090 -0.514569
O31   O     O_R   0.608280 0.772740 0.456900 -0.488590
O32   O     O_R   0.391720 0.227260 0.543100 -0.499647
O33   O     O_R   0.391720 0.772740 0.543100 -0.506808
O34   O     O_3   0.000000 0.750010 0.500000 -0.504627
O35   O     O_R   0.608280 0.227260 0.456900 -0.495506
O36   O     O_R   0.108280 0.272740 0.456900 -0.488601
O37   O     O_R   0.891720 0.727260 0.543100 -0.499690
O38   O     O_R   0.891720 0.272740 0.543100 -0.506904
O39   O     O_R   0.108280 0.727260 0.456900 -0.495508
O40   O     O_R   0.440550 0.727250 0.664400 -0.504913
O41   O     O_R   0.559450 0.272750 0.335600 -0.483124
O42   O     O_R   0.559450 0.727250 0.335600 -0.493503
O43   O     O_R   0.440550 0.272750 0.664400 -0.503276
O44   O     O_R   0.940550 0.227250 0.664400 -0.504895
O45   O     O_R   0.395070 0.772730 0.664400 -0.511191
O46   O     O_R   0.059450 0.772750 0.335600 -0.483198
O47   O     O_R   0.059450 0.227250 0.335600 -0.493539
O48   O     O_R   0.940550 0.772750 0.664400 -0.503420
O49   O     O_3   0.428702 0.898003 0.502079 -0.496472
O50   O     O_3   0.419200 0.100867 0.632006 -0.487908
O51   O     O_3   0.567346 0.898628 0.505975 -0.458370
O52   O     O_3   0.580588 0.101720 0.367532 -0.479188
O53   O     O_3   0.928517 0.398002 0.502430 -0.496328
O54   O     O_3   0.919682 0.600880 0.632193 -0.487877
O55   O     O_3   0.067546 0.398655 0.505568 -0.458363
O56   O     O_R   0.604930 0.227270 0.335600 -0.549542
O57   O     O_3   0.080296 0.601746 0.367363 -0.479290
O58   O     O_3   0.335631 0.752810 0.369673 -0.496822
O59   O     O_3   0.744536 0.315340 0.470292 -0.493148
O60   O     O_3   0.706623 0.683359 0.544407 -0.476062
O61   O     O_3   0.336750 0.258709 0.367895 -0.480559
O62   O     O_3   0.835628 0.252903 0.369681 -0.496858
O63   O     O_3   0.244655 0.815301 0.470058 -0.493051
O64   O     O_3   0.206574 0.183370 0.544506 -0.476038
O65   O     O_3   0.836741 0.758765 0.367907 -0.480570
O66   O     O_R   0.604930 0.772730 0.335600 -0.523038
O67   O     O_R   0.395070 0.227270 0.664400 -0.526448
O68   O     O_R   0.895070 0.272730 0.664400 -0.511155
Zn1   Zn    Zn3+2 0.563280 0.782480 0.438420 1.022424
Zn2   Zn    Zn3+2 0.498300 0.282490 0.438410 1.083078
Zn3   Zn    Zn3+2 0.498300 0.717510 0.438410 1.065477
Zn4   Zn    Zn3+2 0.501700 0.282490 0.561590 1.066883
Zn5   Zn    Zn3+2 0.001700 0.217510 0.561590 1.069195
Zn6   Zn    Zn3+2 0.998300 0.782490 0.438410 1.083033
Zn7   Zn    Zn3+2 0.998300 0.217510 0.438410 1.065450
Zn8   Zn    Zn3+2 0.001700 0.782490 0.561590 1.066718
Zn9   Zn    Zn3+2 0.436720 0.217520 0.561580 1.011725
Zn10  Zn    Zn3+2 0.436720 0.782480 0.561580 1.013631
Zn11  Zn    Zn3+2 0.563280 0.217520 0.438420 1.010355
Zn12  Zn    Zn3+2 0.063280 0.282480 0.438420 1.022470
Zn13  Zn    Zn3+2 0.936720 0.717520 0.561580 1.011971
Zn14  Zn    Zn3+2 0.936720 0.282480 0.561580 1.013697
Zn15  Zn    Zn3+2 0.063280 0.717520 0.438420 1.010376
Zn16  Zn    Zn3+2 0.501700 0.717510 0.561590 1.069187

loop_
_geom_bond_atom_site_label_1
_geom_bond_atom_site_label_2
_ccdc_geom_bond_type
C9    Cl2   S    
C110  H78   S    
C126  C127  S    
C22   C29   A    
C42   C64   S    
C131  H14   S    
C81   H80   S    
O22   Zn10  S    
C14   C33   A    
C114  C115  S    
C15   C32   A    
C213  O39   A    
C119  O62   S    
C188  Cl62  S    
C107  H72   S    
C128  H6    S    
C189  Cl63  S    
C190  Cl64  S    
C37   O20   A    
C50   C59   A    
O31   Zn1   S    
C38   O19   A    
C115  H87   S    
C52   C61   A    
C84   H17   S    
C106  C107  S    
C101  C155  T    
C55   C62   A    
C195  O4    A    
C108  C109  S    
C205  O5    A    
C41   O29   A    
C141  C206  S    
C47   Cl34  S    
C4    C215  S    
C95   H44   S    
O1    Zn3   S    
C98   H52   S    
C122  O63   S    
C111  O60   S    
C114  H84   S    
O11   Zn7   S    
C196  C204  A    
C203  O64   S    
C49   C69   A    
C133  C162  S    
C143  Cl42  S    
C97   H49   S    
C102  H59   S    
C172  Cl55  S    
O46   Zn6   S    
C93   H39   S    
C190  C199  A    
C111  H82   S    
C25   C29   A    
C39   C61   S    
O1    Zn16  S    
C11   C20   A    
C114  H85   S    
O32   Zn9   S    
C137  C146  S    
C77   C138  S    
C191  Cl65  S    
C198  O59   S    
C75   C136  S    
O38   Zn14  S    
C179  C188  A    
C177  C186  A    
O35   Zn11  S    
C34   O16   A    
C204  O65   S    
C72   C142  S    
C89   H30   S    
C99   H54   S    
C209  O8    A    
C91   H32   S    
C10   C30   A    
C201  O62   S    
C184  O3    A    
C40   O26   A    
C151  O43   A    
C137  Cl39  S    
C116  H90   S    
C13   Cl20  S    
C21   C28   A    
C187  C211  S    
C108  O59   S    
C16   Cl8   S    
O48   Zn8   S    
C1    C101  S    
C175  C183  A    
C16   C25   A    
C128  H8    S    
C169  Cl52  S    
C87   H27   S    
C20   Cl13  S    
O4    Zn13  S    
C59   O55   S    
C77   C150  S    
C84   H19   S    
C54   C61   A    
C75   C148  S    
C59   C63   A    
C8    C17   A    
C60   C64   A    
C130  C131  S    
C165  C174  A    
C167  Cl50  S    
C6    C203  A    
C4    C201  A    
C30   C31   S    
C118  H96   S    
C21   Cl14  S    
C129  H9    S    
C1    O40   A    
O6    Zn2   S    
C48   C67   A    
C212  O11   A    
C8    Cl72  S    
C24   C77   S    
C88   C89   S    
C122  H106  S    
C98   C99   S    
C76   C152  S    
C136  Cl36  S    
C51   C69   A    
C109  C110  S    
C210  O9    A    
C75   Cl32  S    
C177  Cl60  S    
C134  C160  T    
C125  H110  S    
C3    C6    S    
C174  C182  A    
C205  O31   A    
C85   C86   S    
C110  H81   S    
C96   H45   S    
C42   O28   A    
C34   O14   A    
C131  H15   S    
C71   Cl28  S    
C124  C184  S    
C180  C189  A    
C105  H67   S    
C97   H48   S    
C78   C80   S    
C43   C52   A    
O2    Zn15  S    
C173  O2    A    
C82   H91   S    
O41   Zn2   S    
C56   O53   S    
C91   H34   S    
C19   Cl11  S    
C58   O54   S    
C54   O51   S    
C120  H100  S    
C17   Cl9   S    
C172  C181  A    
C104  H64   S    
C29   C38   S    
C100  H55   S    
O33   Zn10  S    
C89   C91   S    
C149  C158  S    
C7    C216  S    
C71   C141  S    
C92   H35   S    
C39   O22   A    
O18   Zn5   S    
C104  H65   S    
C94   H41   S    
O7    Zn3   S    
C57   C150  S    
C162  O44   A    
C196  Cl70  S    
C44   C53   A    
C10   Cl3   S    
O17   Zn4   S    
C83   H13   S    
C121  H104  S    
C58   C64   A    
C86   H23   S    
C6    C168  A    
C139  C148  S    
C82   O50   S    
C46   C71   S    
C22   Cl15  S    
C191  C200  A    
O47   Zn7   S    
C111  H83   S    
C118  H94   S    
C183  C212  S    
O16   Zn3   S    
C194  Cl69  S    
C124  C157  T    
O12   Zn9   S    
C45   Cl23  S    
C70   Cl27  S    
C79   C153  T    
C83   C84   S    
C208  O33   A    
C3    C200  A    
C23   C28   A    
C103  H61   S    
C151  O67   A    
C145  C154  S    
C45   C65   A    
C164  C172  A    
O10   Zn6   S    
O40   Zn16  S    
C176  Cl59  S    
O14   Zn16  S    
C119  H98   S    
C120  C121  S    
C3    C165  A    
C129  C130  S    
C110  H79   S    
C141  Cl40  S    
C186  C194  A    
C24   C147  S    
C127  H4    S    
C107  H71   S    
C87   H26   S    
C72   C147  S    
O25   Zn1   S    
C116  O61   S    
C170  C179  A    
C206  Cl18  S    
C14   C22   A    
C117  C118  S    
O12   Zn2   S    
C53   O50   S    
C28   C37   S    
C185  C213  S    
C100  H57   S    
C35   C148  S    
C102  C103  S    
C105  O58   S    
O23   Zn12  S    
C197  C214  A    
C95   H43   S    
C92   H37   S    
O19   Zn6   S    
C9    C18   A    
C46   C149  S    
C85   O51   S    
C171  Cl54  S    
C51   C60   A    
C123  H108  S    
C24   Cl21  S    
C78   O49   S    
C161  C214  A    
C109  H77   S    
C187  C196  A    
C173  O46   A    
C102  H60   S    
C183  C192  A    
C93   H38   S    
C107  H73   S    
C108  H75   S    
C176  C185  A    
O44   Zn5   S    
C164  C216  A    
C2    C145  S    
O8    Zn4   S    
O37   Zn13  S    
C166  C175  A    
O12   Zn11  S    
C2    C139  S    
C51   Cl71  S    
C95   O54   S    
C74   C206  S    
C199  O60   S    
C123  C125  S    
C198  C215  A    
C168  C177  A    
O67   Zn9   S    
C109  H76   S    
C48   C56   A    
C19   C26   A    
C57   Cl25  S    
C99   H53   S    
O21   Zn8   S    
C46   C135  S    
C163  C215  A    
C146  C155  S    
C24   C142  S    
O12   Zn4   S    
C132  C195  S    
C192  C201  A    
C74   C149  S    
C90   C154  T    
C163  C171  A    
C47   C66   A    
O9    Zn5   S    
C79   C140  S    
C70   C139  S    
C68   C137  S    
C162  O68   A    
C76   Cl33  S    
O23   Zn7   S    
O34   Zn6   S    
C144  C206  S    
C40   O24   A    
C106  H70   S    
C115  H88   S    
C150  C159  S    
O39   Zn15  S    
C86   C87   S    
O23   Zn14  S    
C85   H21   S    
C73   Cl30  S    
C121  H101  S    
C76   C137  S    
C207  O32   A    
C132  C158  T    
C193  C202  A    
C133  C159  T    
C72   Cl29  S    
C7    C204  A    
C68   C152  S    
C98   H51   S    
C60   O57   S    
O27   Zn14  S    
C10   C19   A    
C43   C65   A    
C74   C135  S    
C170  Cl53  S    
C212  O38   A    
C165  Cl48  S    
C147  C156  S    
C44   Cl12  S    
O34   Zn15  S    
C85   H20   S    
C178  C187  A    
C161  Cl44  S    
C143  C152  S    
C102  O57   S    
C213  O13   A    
C186  C210  S    
C97   H50   S    
C17   C26   A    
O24   Zn11  S    
C127  C128  S    
C168  Cl51  S    
C192  Cl66  S    
C36   O17   A    
C78   H1    S    
C73   C143  S    
C210  O36   A    
C87   H24   S    
C179  C208  S    
C125  H109  S    
C90   C151  S    
C208  O7    A    
C119  C120  S    
C20   C27   A    
C27   C36   S    
O66   Zn1   S    
C105  C106  S    
C73   C146  S    
C96   H46   S    
C130  H11   S    
C8    C30   A    
C32   C33   S    
C142  C150  S    
C89   H31   S    
C211  O10   A    
C105  H66   S    
C178  Cl61  S    
C188  C197  A    
C5    C214  S    
C139  Cl41  S    
C163  Cl46  S    
C92   C93   S    
C166  Cl49  S    
C202  O63   S    
O36   Zn12  S    
C111  C114  S    
C13   C143  S    
C57   C72   S    
C15   Cl7   S    
C180  C209  S    
C91   H33   S    
C116  H89   S    
C49   Cl56  S    
C82   C83   S    
C42   O30   A    
C130  H12   S    
C103  C104  S    
C100  H56   S    
C138  Cl38  S    
O29   Zn12  S    
O23   Zn5   S    
O3    Zn12  S    
C92   O53   S    
C71   C144  S    
C189  C198  A    
C82   H102  S    
C128  H7    S    
C84   H18   S    
C152  C160  S    
C93   C94   S    
C94   H42   S    
C134  C173  S    
C48   Cl45  S    
C44   C66   A    
C95   C96   S    
C115  H86   S    
C184  O47   A    
C141  C149  S    
C197  O58   S    
C121  H103  S    
C81   H58   S    
O34   Zn8   S    
O30   Zn13  S    
O28   Zn15  S    
C108  H74   S    
C174  Cl57  S    
C118  H95   S    
C129  O65   S    
O26   Zn9   S    
C164  Cl47  S    
C129  H10   S    
C88   H28   S    
C80   H47   S    
C40   C62   S    
C116  C117  S    
C209  O35   A    
C182  C207  S    
C181  C190  A    
C144  C153  S    
C88   O52   S    
C195  O48   A    
O34   Zn13  S    
C18   Cl10  S    
C26   C34   S    
C52   O49   S    
C35   C70   S    
C68   Cl26  S    
C77   Cl35  S    
C46   Cl24  S    
C136  C145  S    
C148  C157  S    
O68   Zn14  S    
C15   C23   A    
C11   C31   A    
C2    C75   S    
C78   H25   S    
O42   Zn3   S    
C43   Cl1   S    
C35   Cl22  S    
C13   C146  S    
C125  H111  S    
C207  O6    A    
C126  H112  S    
C112  C113  S    
C119  H97   S    
C83   H2    S    
C106  H68   S    
C199  C216  A    
C131  H16   S    
C122  H105  S    
C5    C202  A    
O45   Zn10  S    
O1    Zn10  S    
C68   C73   S    
C117  H93   S    
C12   C21   A    
C112  O56   A    
O13   Zn8   S    
C49   C58   A    
C37   O18   A    
C67   C69   S    
C1    O45   A    
C38   O21   A    
C181  C205  S    
C200  O61   S    
C16   C33   A    
C120  H99   S    
C53   C62   A    
C104  H63   S    
C99   C100  S    
C13   C76   S    
C138  C147  S    
C96   C97   S    
O43   Zn4   S    
C56   C63   A    
C140  O66   A    
C70   C145  S    
C81   H69   S    
C135  Cl37  S    
C41   O27   A    
C98   O55   S    
O1    Zn1   S    
C161  C170  A    
O20   Zn7   S    
C135  C144  S    
C117  H92   S    
C45   C54   A    
C193  Cl68  S    
C94   H40   S    
C88   H29   S    
C80   H36   S    
C171  C180  A    
C123  H107  S    
C169  C178  A    
C47   C55   A    
C50   C67   A    
C86   H22   S    
C36   O15   A    
O56   Zn11  S    
C14   Cl6   S    
C18   C27   A    
C23   Cl16  S    
C185  C193  A    
C80   C81   S    
C35   C136  S    
C127  H5    S    
C50   Cl67  S    
C7    C169  A    
C55   O52   S    
C175  Cl58  S    
C140  O42   A    
C126  O64   S    
C74   Cl31  S    
C194  C203  A    
C4    C166  A    
C57   C138  S    
C5    C167  A    
C103  H62   S    
C12   Cl5   S    
C9    C31   A    
C25   Cl17  S    
C126  H3    S    
C2    Cl19  S    
C142  Cl43  S    
C211  O37   A    
C39   O25   A    
C65   C66   S    
C182  C191  A    
C112  O41   A    
O15   Zn2   S    
O5    Zn16  S    
C41   C63   S    
C113  C156  T    
C122  C123  S    
C11   Cl4   S    
C12   C32   A    
C167  C176  A    
