data_mof_unit_32632.cif
_audit_creation_date              2012-12-10T16:43:25-0500
_audit_creation_method            fapswitch 2.2
_symmetry_space_group_name_H-M    P1
_symmetry_Int_Tables_number       1
_space_group_crystal_system       triclinic
_cell_length_a                    12.213854
_cell_length_b                    12.179221
_cell_length_c                    23.757332
_cell_angle_alpha                 90.067348
_cell_angle_beta                  90.19377
_cell_angle_gamma                 90.040034
_cell_volume                      3534.00379361

loop_
_atom_site_label
_atom_site_type_symbol
_atom_type_description
_atom_site_fract_x
_atom_site_fract_y
_atom_site_fract_z
_atom_type_partial_charge
C1    C     C_3   0.998778 0.999616 0.248584 0.023194
C2    C     C_R   0.897965 0.999731 0.289752 0.075337
C3    C     C_R   0.998833 0.650275 0.921627 0.912788
C4    C     C_R   0.000106 0.350027 0.078230 0.940971
C5    C     C_R   0.348798 0.999716 0.421720 0.768234
C6    C     C_R   0.650335 0.000424 0.578376 0.765165
C7    C     C_R   0.000731 0.350883 0.920921 0.878425
C8    C     C_R   0.000219 0.649152 0.078590 0.903276
C9    C     C_R   0.650597 0.000435 0.421469 0.766313
C10   C     C_R   0.349336 0.999671 0.578389 0.767070
C11   C     C_R   0.083238 0.104660 0.165492 0.281256
C12   C     C_3   0.999798 0.998869 0.750103 0.039897
C13   C     C_R   0.908615 0.887321 0.828054 0.377290
C14   C     C_R   0.892288 0.087369 0.669081 0.359326
C15   C     C_R   0.106116 0.913224 0.330302 0.364663
C16   C     C_R   0.915865 0.893556 0.165350 0.283712
C17   C     C_R   0.086454 0.107073 0.831281 0.297416
C18   C     C_R   0.110845 0.910484 0.670798 0.365940
C19   C     C_R   0.889534 0.088466 0.328462 0.362440
C20   C     C_R   0.089002 0.823716 0.798448 0.406673
C21   C     C_R   0.911812 0.178116 0.202109 0.449070
C22   C     C_R   0.822205 0.910787 0.295340 0.433779
C23   C     C_R   0.998620 0.099746 0.206727 0.187621
C24   C     C_R   0.174034 0.090537 0.702630 0.444964
C25   C     C_R   0.909740 0.174106 0.797840 0.534422
C26   C     C_R   0.085375 0.819114 0.204261 0.541251
C27   C     C_R   0.175657 0.088700 0.295662 0.436516
C28   C     C_R   0.825061 0.909643 0.701328 0.448683
C29   C     C_R   0.075049 0.177761 0.119871 -0.161517
C30   C     C_R   0.907456 0.807877 0.870927 -0.109445
C31   C     C_R   0.813804 0.086046 0.625531 -0.113383
C32   C     C_R   0.188639 0.911232 0.371852 -0.119820
C33   C     C_R   0.926725 0.822007 0.119348 -0.127113
C34   C     C_R   0.999516 0.898155 0.791295 0.116260
C35   C     C_R   0.090979 0.192319 0.871037 -0.056264
C36   C     C_R   0.194227 0.907777 0.630150 -0.125817
C37   C     C_R   0.805270 0.092514 0.368741 -0.133472
C38   C     C_R   0.078908 0.732621 0.834600 -0.163001
C39   C     C_R   0.924375 0.270666 0.167173 -0.175038
C40   C     C_R   0.740457 0.912598 0.337345 -0.143299
C41   C     C_R   0.257270 0.088389 0.661491 -0.146100
C42   C     C_R   0.919550 0.266470 0.833682 -0.162236
C43   C     C_R   0.073450 0.726701 0.168829 -0.185839
C44   C     C_R   0.258989 0.086305 0.337116 -0.138551
C45   C     C_R   0.900068 0.999009 0.708057 0.059056
C46   C     C_R   0.732801 0.920829 0.665942 -0.144202
C47   C     C_R   0.000477 0.265886 0.122687 -0.148662
C48   C     C_R   0.994248 0.730552 0.874893 -0.210472
C49   C     C_R   0.733814 0.001991 0.623630 -0.271081
C50   C     C_R   0.264518 0.998832 0.376199 -0.269661
C51   C     C_R   0.000444 0.733477 0.122906 -0.182177
C52   C     C_R   0.003925 0.269176 0.874501 -0.249743
C53   C     C_R   0.266038 0.998404 0.624000 -0.270302
C54   C     C_R   0.733191 0.002006 0.375315 -0.271824
C55   C     C_2   0.135200 0.152833 0.067095 0.465557
C56   C     C_R   0.099054 0.000305 0.290506 0.057741
C57   C     C_2   0.813761 0.809676 0.910906 0.474835
C58   C     C_2   0.815817 0.173614 0.582221 0.456088
C59   C     C_2   0.193123 0.816513 0.411040 0.460776
C60   C     C_2   0.871475 0.849533 0.065449 0.454124
C61   C     C_2   0.195329 0.208181 0.902558 0.520644
C62   C     C_2   0.204219 0.807969 0.594563 0.459446
C63   C     C_2   0.793754 0.194262 0.402757 0.454982
C64   C     C_2   0.152521 0.636228 0.825802 0.481474
C65   C     C_2   0.860214 0.371968 0.180197 0.455428
C66   C     C_2   0.660927 0.820161 0.340449 0.446673
C67   C     C_R   0.999337 0.898554 0.207434 0.144475
C68   C     C_2   0.336257 0.181301 0.658532 0.457940
C69   C     C_2   0.850195 0.366099 0.823396 0.470139
C70   C     C_2   0.133969 0.622883 0.181601 0.464065
C71   C     C_2   0.341441 0.176325 0.338940 0.444273
C72   C     C_2   0.631847 0.854413 0.677201 0.428111
C73   C     C_R   0.998461 0.098494 0.792199 0.096584
C74   C     C_R   0.100540 0.999881 0.708949 0.078081
Cu1   Cu    Cu3+1 0.889520 0.500000 0.000000 1.008229
Cu2   Cu    Cu3+1 0.110480 0.500000 0.000000 1.008872
Cu3   Cu    Cu3+1 0.500000 0.889520 0.500000 1.033151
Cu4   Cu    Cu3+1 0.500000 0.110480 0.500000 1.050120
H1    H     H_    0.217709 0.120324 0.067738 0.082488
H2    H     H_    0.787212 0.368152 0.205922 0.109431
H3    H     H_    0.574000 0.837022 0.344259 0.075807
H4    H     H_    0.423456 0.164888 0.655999 0.079909
H5    H     H_    0.859978 0.439611 0.848531 0.090266
H6    H     H_    0.131402 0.553439 0.153172 0.087103
H7    H     H_    0.427859 0.156858 0.342841 0.069913
H8    H     H_    0.558945 0.863478 0.651638 0.100833
H9    H     H_    0.236289 0.068310 0.154563 0.314861
H10   H     H_    0.751724 0.914620 0.826781 0.366202
H11   H     H_    0.991327 0.194195 0.636504 0.345778
H12   H     H_    0.767220 0.736200 0.919966 0.088957
H13   H     H_    0.009040 0.806865 0.365069 0.341434
H14   H     H_    0.763188 0.928971 0.151867 0.315350
H15   H     H_    0.187803 0.003880 0.863538 0.359206
H16   H     H_    0.018506 0.798246 0.637016 0.327278
H17   H     H_    0.982100 0.200022 0.362957 0.343221
H18   H     H_    0.247647 0.822470 0.797250 0.320019
H19   H     H_    0.753472 0.190904 0.205627 0.313770
H20   H     H_    0.760297 0.796553 0.248490 0.338880
H21   H     H_    0.230628 0.209385 0.748250 0.349250
H22   H     H_    0.751205 0.177701 0.795732 0.358810
H23   H     H_    0.809914 0.151496 0.538282 0.016779
H24   H     H_    0.243221 0.800540 0.210606 0.346454
H25   H     H_    0.236792 0.201723 0.248157 0.336983
H26   H     H_    0.816969 0.750289 0.702044 0.371974
H27   H     H_    0.200874 0.830449 0.455770 0.029242
H28   H     H_    0.789787 0.884038 0.064254 0.084466
H29   H     H_    0.240485 0.284400 0.898182 0.087349
H30   H     H_    0.209628 0.815120 0.549373 0.046318
H31   H     H_    0.785680 0.190124 0.447902 0.061454
H32   H     H_    0.234253 0.646051 0.808985 0.092352
O1    O     O_R   0.907020 0.615090 0.941240 -0.629861
O2    O     O_R   0.092980 0.615090 0.941240 -0.563079
O3    O     O_R   0.384910 0.092980 0.558760 -0.570740
O4    O     O_R   0.615090 0.907020 0.441240 -0.570244
O5    O     O_R   0.092980 0.615090 0.058760 -0.620998
O6    O     O_R   0.907020 0.384910 0.941240 -0.608630
O7    O     O_R   0.615090 0.907020 0.558760 -0.587236
O8    O     O_R   0.384910 0.092980 0.441240 -0.568205
O9    O     O_2   0.089699 0.163522 0.021629 -0.511010
O10   O     O_2   0.784101 0.896009 0.932172 -0.498577
O11   O     O_2   0.821411 0.270400 0.595430 -0.450768
O12   O     O_R   0.092980 0.384910 0.058760 -0.599497
O13   O     O_2   0.189382 0.722364 0.393373 -0.431083
O14   O     O_2   0.920755 0.839051 0.021205 -0.526239
O15   O     O_2   0.232625 0.136367 0.932818 -0.532181
O16   O     O_2   0.206832 0.716785 0.615867 -0.447253
O17   O     O_2   0.792995 0.284198 0.380066 -0.450394
O18   O     O_2   0.119820 0.542833 0.833986 -0.544720
O19   O     O_2   0.892174 0.462606 0.165748 -0.549400
O20   O     O_2   0.692065 0.724890 0.340162 -0.460385
O21   O     O_2   0.304454 0.276323 0.657340 -0.463252
O22   O     O_2   0.786064 0.370992 0.783938 -0.473687
O23   O     O_R   0.384910 0.907020 0.441240 -0.586814
O24   O     O_2   0.182839 0.610868 0.226105 -0.449731
O25   O     O_2   0.313357 0.272519 0.337756 -0.455090
O26   O     O_2   0.625584 0.793555 0.717885 -0.506814
O27   O     O_3   0.169642 0.031944 0.169078 -0.751802
O28   O     O_3   0.820216 0.956700 0.820937 -0.702236
O29   O     O_3   0.963829 0.174571 0.674358 -0.638451
O30   O     O_3   0.031691 0.828011 0.326568 -0.643376
O31   O     O_3   0.828472 0.965133 0.168336 -0.745287
O32   O     O_3   0.174109 0.036734 0.826086 -0.726399
O33   O     O_3   0.038911 0.823496 0.675309 -0.670962
O34   O     O_R   0.615090 0.092980 0.558760 -0.576908
O35   O     O_3   0.963932 0.173708 0.324564 -0.657643
O36   O     O_3   0.186968 0.841390 0.771236 -0.684496
O37   O     O_3   0.813628 0.161707 0.229363 -0.701131
O38   O     O_3   0.833543 0.817484 0.263069 -0.661193
O39   O     O_3   0.158705 0.185596 0.733086 -0.654887
O40   O     O_3   0.811717 0.154753 0.770603 -0.656096
O41   O     O_3   0.183351 0.835904 0.232084 -0.672520
O42   O     O_3   0.163987 0.181856 0.263399 -0.665049
O43   O     O_3   0.845142 0.809747 0.726716 -0.680877
O44   O     O_R   0.092980 0.384910 0.941240 -0.579176
O45   O     O_R   0.907020 0.615090 0.058760 -0.556228
O46   O     O_R   0.615090 0.092980 0.441240 -0.594731
O47   O     O_R   0.384910 0.907020 0.558760 -0.593930
O48   O     O_R   0.907020 0.384910 0.058760 -0.566673

loop_
_geom_bond_atom_site_label_1
_geom_bond_atom_site_label_2
_ccdc_geom_bond_type
C27   O42   S    
C12   C74   S    
H19   O37   S    
H17   O35   S    
C14   C31   A    
Cu4   O46   S    
C15   C32   A    
C55   O9    D    
Cu3   Cu4   S    
C5    O23   A    
H21   O39   S    
C46   C49   A    
C28   C46   A    
C59   H27   S    
C29   C47   A    
H16   O33   S    
C21   O37   S    
C31   C58   S    
C30   C48   A    
C18   O33   S    
Cu4   O8    S    
C1    C56   S    
H9    O27   S    
C7    C52   S    
Cu3   O7    S    
C71   O25   D    
C72   O26   D    
C62   H30   S    
C30   C57   S    
C3    C48   S    
Cu2   O5    S    
C55   H1    S    
C44   C71   S    
C1    C2    S    
C10   O47   A    
C60   O14   D    
C10   C53   S    
C36   C53   A    
C19   C37   A    
C8    O5    A    
C71   H7    S    
C27   C44   A    
C4    O48   A    
C9    O46   A    
C3    O1    A    
C64   O18   D    
C2    C22   A    
H26   O43   S    
C41   C68   S    
C70   H6    S    
C6    O7    A    
C38   C48   A    
H24   O41   S    
C20   C34   A    
C18   C74   A    
C65   H2    S    
C40   C66   S    
C12   C73   S    
C17   C73   A    
C24   C41   A    
C39   C65   S    
Cu3   O23   S    
C31   C49   A    
C36   C62   S    
C37   C63   S    
C26   C43   A    
C14   C45   A    
C38   C64   S    
C59   O13   D    
C28   C45   A    
C57   H12   S    
C16   C67   A    
C13   C30   A    
C62   O16   D    
C27   C56   A    
C29   C55   S    
H22   O40   S    
C39   C47   A    
C42   C69   S    
C17   O32   S    
C7    O6    A    
C63   H31   S    
C68   O21   D    
Cu1   Cu2   S    
C69   H5    S    
Cu4   O34   S    
C16   C33   A    
C20   C38   A    
C64   H32   S    
C21   C39   A    
C3    O2    A    
Cu2   O2    S    
C6    O34   A    
C22   C40   A    
C4    O12   A    
C35   C61   S    
C58   H23   S    
C19   O35   S    
H14   O31   S    
C8    C51   S    
C41   C53   A    
C10   O3    A    
H25   O42   S    
C57   O10   D    
C37   C54   A    
Cu1   O48   S    
C22   O38   S    
C1    C23   S    
C33   C60   S    
C40   C54   A    
C21   C23   A    
C28   O43   S    
C20   O36   S    
C5    C50   S    
Cu4   O3    S    
C33   C51   A    
C9    O4    A    
C12   C34   S    
Cu3   O4    S    
C60   H28   S    
H11   O29   S    
C15   O30   S    
C44   C50   A    
C26   O41   S    
C58   O11   D    
C2    C19   A    
C46   C72   S    
C12   C45   S    
C25   C42   A    
C65   O19   D    
C24   C74   A    
C26   C67   A    
C9    C54   S    
C72   H8    S    
C43   C70   S    
H18   O36   S    
H10   O28   S    
Cu1   O1    S    
C5    O8    A    
Cu2   O12   S    
C13   O28   S    
C16   O31   S    
C11   O27   S    
C68   H4    S    
C13   C34   A    
C15   C56   A    
C66   H3    S    
C43   C51   A    
C7    O44   A    
H20   O38   S    
C69   O22   D    
C11   C23   A    
C1    C67   S    
Cu2   O44   S    
C32   C50   A    
C25   C73   A    
C11   C29   A    
C6    C49   S    
C61   H29   S    
C24   O39   S    
H13   O30   S    
Cu1   O45   S    
C14   O29   S    
C8    O45   A    
C42   C52   A    
C35   C52   A    
C70   O24   D    
C25   O40   S    
C61   O15   D    
Cu1   O6    S    
C17   C35   A    
C32   C59   S    
C18   C36   A    
C63   O17   D    
H15   O32   S    
Cu3   O47   S    
C66   O20   D    
C4    C47   S    
