data_mof_unit_64878.cif
_audit_creation_date              2012-12-10T16:57:57-0500
_audit_creation_method            fapswitch 2.2
_symmetry_space_group_name_H-M    P1
_symmetry_Int_Tables_number       1
_space_group_crystal_system       triclinic
_cell_length_a                    13.085429
_cell_length_b                    13.114217
_cell_length_c                    15.192524
_cell_angle_alpha                 86.33403
_cell_angle_beta                  100.229257
_cell_angle_gamma                 91.142189
_cell_volume                      2560.32783668

loop_
_atom_site_label
_atom_site_type_symbol
_atom_type_description
_atom_site_fract_x
_atom_site_fract_y
_atom_site_fract_z
_atom_type_partial_charge
C1    C     C_R   0.464861 0.773149 0.465617 0.874427
C2    C     C_2   0.515378 0.057077 0.484528 -0.172874
C3    C     C_2   0.455179 0.884167 0.449505 -0.345440
C4    C     C_R   0.536790 0.227673 0.534272 0.745386
C5    C     C_2   0.526452 0.945739 0.493686 -0.071899
C6    C     C_2   0.110719 0.464318 0.473371 -0.338511
C7    C     C_2   0.067028 0.475691 0.546389 -0.039874
C8    C     C_2   0.891600 0.545211 0.542837 -0.059890
C9    C     C_2   0.952969 0.463908 0.536827 -0.010082
C10   C     C_R   0.777517 0.534861 0.527726 0.860025
C11   C     C_R   0.223056 0.466130 0.475553 0.944072
C12   C     C_R   0.386055 0.435030 0.112337 -0.040308
C13   C     C_R   0.513051 0.518035 0.741061 0.867053
C14   C     C_R   0.485220 0.481532 0.259450 0.931970
C15   C     C_R   0.521244 0.522393 0.838175 -0.051566
C16   C     C_R   0.477262 0.474045 0.163313 -0.046515
C17   C     C_R   0.375777 0.440053 0.019674 -0.306723
C18   C     C_2   0.597906 0.082078 0.644571 0.412531
C19   C     C_2   0.126193 0.497877 0.636278 0.411185
C20   C     C_2   0.299476 0.386608 0.152231 0.393102
C21   C     C_R   0.558776 0.514335 0.122220 -0.006560
C22   C     C_R   0.548603 0.518766 0.027181 0.119527
C23   C     C_R   0.454812 0.481088 0.976068 0.067558
C24   C     C_R   0.441231 0.484094 0.881620 0.050284
C25   C     C_R   0.611920 0.561300 0.887563 -0.295254
C26   C     C_R   0.627018 0.560050 0.980793 0.094311
C27   C     C_2   0.552251 0.118111 0.551190 -0.125751
H1    H     H_    0.061087 0.456288 0.408701 0.150268
H2    H     H_    0.966011 0.312843 0.513451 0.192129
H3    H     H_    0.878713 0.337741 0.577138 0.166675
H4    H     H_    0.091657 0.478989 0.695207 0.038533
H5    H     H_    0.982715 0.666998 0.516727 0.207226
H6    H     H_    0.979522 0.639965 0.627307 0.190698
H7    H     H_    0.730362 0.676308 0.003110 0.199813
H8    H     H_    0.783974 0.559037 0.009705 0.187626
H9    H     H_    0.224808 0.374199 0.109871 0.061833
H10   H     H_    0.657753 0.630787 0.164426 0.207405
H11   H     H_    0.714236 0.511552 0.172458 0.224087
H12   H     H_    0.673466 0.591003 0.853606 0.174540
H13   H     H_    0.304838 0.410012 0.981981 0.131337
H14   H     H_    0.593376 0.913410 0.538639 0.220853
H15   H     H_    0.473759 0.090767 0.421264 0.155510
H16   H     H_    0.389227 0.915619 0.402576 0.161137
H17   H     H_    0.284385 0.493097 0.841910 0.194034
H18   H     H_    0.334069 0.372897 0.844699 0.186355
H19   H     H_    0.641692 0.135716 0.688607 0.037168
N1    N     N_3   0.345890 0.450408 0.828525 -0.396906
N2    N     N_3   0.908115 0.364179 0.520106 -0.404483
N3    N     N_3   0.934954 0.644412 0.562955 -0.453034
N4    N     N_3   0.723204 0.600170 0.026392 -0.489065
N5    N     N_3   0.648821 0.552601 0.179465 -0.461393
O1    O     O_3   0.500000 0.500000 0.500000 -0.502991
O2    O     O_R   0.563230 0.581310 0.697440 -0.649742
O3    O     O_R   0.421030 0.536630 0.288090 -0.634490
O4    O     O_R   0.459330 0.447650 0.700640 -0.608331
O5    O     O_R   0.556410 0.434400 0.313840 -0.626440
O6    O     O_2   0.583744 0.995500 0.674814 -0.554308
O7    O     O_2   0.210151 0.541890 0.645294 -0.570203
O8    O     O_2   0.310589 0.356912 0.231132 -0.592214
O9    O     O_R   0.733070 0.467190 0.476550 -0.628564
O10   O     O_R   0.261010 0.525210 0.419080 -0.631170
O11   O     O_R   0.532760 0.736590 0.530220 -0.626927
O12   O     O_R   0.473150 0.271000 0.574150 -0.637299
O13   O     O_R   0.407210 0.713280 0.414580 -0.643408
O14   O     O_R   0.586880 0.279120 0.481060 -0.629109
O15   O     O_R   0.723250 0.592730 0.566440 -0.640177
O16   O     O_R   0.282660 0.414860 0.537920 -0.600811
Zn1   Zn    Zn3+2 0.592480 0.421540 0.443840 0.993728
Zn2   Zn    Zn3+2 0.578450 0.600910 0.572270 0.992838
Zn3   Zn    Zn3+2 0.430000 0.409940 0.576840 1.024839
Zn4   Zn    Zn3+2 0.399070 0.567610 0.407050 1.022247

loop_
_geom_bond_atom_site_label_1
_geom_bond_atom_site_label_2
_ccdc_geom_bond_type
C12   C17   A    
C10   O9    A    
C23   C24   A    
H17   N1    S    
C16   C21   A    
H11   N5    S    
C6    H1    S    
C18   O6    D    
C14   O5    A    
O1    Zn1   S    
O12   Zn3   S    
C3    C5    D    
O14   Zn1   S    
C19   H4    S    
C1    O11   A    
O10   Zn4   S    
H8    N4    S    
C13   C15   S    
O2    Zn2   S    
C19   O7    D    
O1    Zn4   S    
C21   C22   A    
C25   H12   S    
C20   O8    D    
O13   Zn4   S    
C4    O12   A    
C12   C20   S    
C17   C23   A    
C10   O15   A    
C2    H15   S    
C3    H16   S    
H3    N2    S    
C15   C24   A    
C14   O3    A    
C11   O16   A    
C6    C7    D    
C13   O2    A    
C26   N4    S    
C2    C27   D    
C4    O14   A    
H10   N5    S    
C14   C16   S    
H5    N3    S    
C15   C25   A    
O15   Zn2   S    
H7    N4    S    
O3    Zn4   S    
H2    N2    S    
H6    N3    S    
O4    Zn3   S    
C1    O13   A    
C18   H19   S    
C21   N5    S    
C4    C27   S    
O1    Zn3   S    
O9    Zn1   S    
C9    N2    S    
C8    C10   S    
C22   C26   A    
H18   N1    S    
C6    C11   S    
C7    C9    S    
C5    H14   S    
C22   C23   A    
C7    C19   S    
O1    Zn2   S    
O16   Zn3   S    
C1    C3    S    
C25   C26   A    
O5    Zn1   S    
C24   N1    S    
C8    N3    S    
C2    C5    S    
C18   C27   S    
C12   C16   A    
O11   Zn2   S    
C13   O4    A    
C8    C9    D    
C11   O10   A    
C17   H13   S    
C20   H9    S    
