data_mof_unit_56436.cif
_audit_creation_date              2012-12-11T14:14:57-0500
_audit_creation_method            fapswitch 2.2
_symmetry_space_group_name_H-M    P1
_symmetry_Int_Tables_number       1
_space_group_crystal_system       monoclinic
_cell_length_a                    24.447306
_cell_length_b                    17.17957
_cell_length_c                    15.522597
_cell_angle_alpha                 90.0
_cell_angle_beta                  128.814879
_cell_angle_gamma                 90.0
_cell_volume                      5079.75552236

loop_
_atom_site_label
_atom_site_type_symbol
_atom_type_description
_atom_site_fract_x
_atom_site_fract_y
_atom_site_fract_z
_atom_type_partial_charge
C1    C     C_R   0.333086 0.394469 0.199253 -0.096539
C2    C     C_R   0.678545 0.630574 0.498944 0.094495
C3    C     C_R   0.821455 0.130574 0.501056 0.094495
C4    C     C_R   0.178545 0.130574 0.498944 0.094495
C5    C     C_R   0.381589 0.683672 0.211567 0.117724
C6    C     C_R   0.618411 0.683672 0.788433 0.117724
C7    C     C_R   0.881589 0.183672 0.211567 0.117724
C8    C     C_R   0.118411 0.183672 0.788433 0.117724
C9    C     C_2   0.749499 0.643164 0.436942 -0.100387
C10   C     C_2   0.250501 0.643164 0.563058 -0.100387
C11   C     C_2   0.249499 0.143164 0.436942 -0.100387
C12   C     C_R   0.666914 0.394469 0.800747 -0.096540
C13   C     C_2   0.750501 0.143164 0.563058 -0.100387
C14   C     C_2   0.735011 0.664290 0.503992 -0.182698
C15   C     C_2   0.264989 0.664291 0.496008 -0.182698
C16   C     C_2   0.235011 0.164291 0.503992 -0.182698
C17   C     C_2   0.764989 0.164291 0.496008 -0.182697
C18   C     C_2   0.292240 0.194972 0.425163 -0.122745
C19   C     C_2   0.707760 0.194972 0.574837 -0.122745
C20   C     C_2   0.792240 0.694972 0.425163 -0.122745
C21   C     C_2   0.207760 0.694972 0.574837 -0.122745
C22   C     C_2   0.345328 0.234408 0.512926 -0.189613
C23   C     C_R   0.833086 0.894469 0.199253 -0.096539
C24   C     C_2   0.654672 0.234408 0.487074 -0.189613
C25   C     C_2   0.845328 0.734408 0.512926 -0.189613
C26   C     C_2   0.154672 0.734408 0.487074 -0.189613
C27   C     C_2   0.692155 0.344620 0.977304 -0.444301
C28   C     C_2   0.307845 0.344620 0.022696 -0.444301
C29   C     C_2   0.192155 0.844620 0.977304 -0.444301
C30   C     C_2   0.807845 0.844620 0.022696 -0.444300
C31   C     C_2   0.762311 0.350391 0.044270 0.806061
C32   C     C_2   0.237689 0.350391 0.955730 0.806060
C33   C     C_2   0.262311 0.850391 0.044270 0.806061
C34   C     C_R   0.166914 0.894469 0.800747 -0.096540
C35   C     C_2   0.737689 0.850391 0.955730 0.806061
C36   C     C_2   0.356741 0.757818 0.152075 -0.142971
C37   C     C_2   0.643259 0.757818 0.847925 -0.142971
C38   C     C_2   0.856741 0.257818 0.152075 -0.142971
C39   C     C_2   0.143259 0.257818 0.847925 -0.142971
C40   C     C_R   0.585560 0.356958 0.405836 -0.152067
C41   C     C_R   0.414440 0.356958 0.594163 -0.152067
C42   C     C_R   0.085560 0.856958 0.405836 -0.152067
C43   C     C_R   0.914440 0.856958 0.594163 -0.152067
C44   C     C_2   0.303187 0.795701 0.135946 -0.292608
C45   C     C_R   0.388200 0.608092 0.592770 0.179541
C46   C     C_2   0.696812 0.795701 0.864054 -0.292608
C47   C     C_2   0.803187 0.295701 0.135946 -0.292607
C48   C     C_2   0.196812 0.295701 0.864054 -0.292608
C49   C     C_R   0.659917 0.355131 0.590214 -0.112031
C50   C     C_R   0.340082 0.355131 0.409786 -0.112031
C51   C     C_R   0.159917 0.855131 0.590214 -0.112031
C52   C     C_R   0.840082 0.855131 0.409786 -0.112031
C53   C     C_R   0.576960 0.392619 0.802052 -0.172862
C54   C     C_R   0.423039 0.392619 0.197948 -0.172862
C55   C     C_R   0.076960 0.892619 0.802052 -0.172862
C56   C     C_R   0.611799 0.608092 0.407230 0.179541
C57   C     C_R   0.923039 0.892619 0.197948 -0.172862
C58   C     C_R   0.352819 0.374202 0.136171 0.218061
C59   C     C_R   0.647181 0.374202 0.863829 0.218061
C60   C     C_R   0.852819 0.874201 0.136171 0.218061
C61   C     C_R   0.147181 0.874201 0.863829 0.218061
C62   C     C_R   0.634086 0.311646 0.496063 0.136566
C63   C     C_R   0.365914 0.311646 0.503937 0.136566
C64   C     C_R   0.134086 0.811646 0.496063 0.136566
C65   C     C_R   0.865914 0.811646 0.503937 0.136566
C66   C     C_R   0.315013 0.610487 0.409193 -0.208686
C67   C     C_R   0.888200 0.108092 0.592770 0.179541
C68   C     C_R   0.684987 0.610487 0.590807 -0.208685
C69   C     C_R   0.815013 0.110487 0.409193 -0.208686
C70   C     C_R   0.184987 0.110487 0.590807 -0.208686
C71   C     C_R   0.440944 0.643468 0.243773 -0.174179
C72   C     C_R   0.559056 0.643468 0.756227 -0.174180
C73   C     C_R   0.940944 0.143468 0.243773 -0.174179
C74   C     C_R   0.059056 0.143468 0.756227 -0.174180
C75   C     C_R   0.651264 0.639266 0.758262 -0.071528
C76   C     C_R   0.348735 0.639266 0.241738 -0.071528
C77   C     C_R   0.151264 0.139266 0.758262 -0.071528
C78   C     C_R   0.111799 0.108092 0.407230 0.179541
C79   C     C_R   0.848735 0.139266 0.241738 -0.071528
C80   C     C_3   0.411409 0.659842 0.760937 -0.957920
C81   C     C_3   0.588592 0.659841 0.239063 -0.957922
C82   C     C_3   0.911409 0.159842 0.760937 -0.957921
C83   C     C_3   0.088591 0.159842 0.239063 -0.957921
C84   C     C_R   0.321455 0.630574 0.501056 0.094495
F1    F     F_    0.795996 0.396128 0.019116 -0.719792
F2    F     F_    0.204003 0.396128 0.980884 -0.719792
F3    F     F_    0.295996 0.896128 0.019116 -0.719792
F4    F     F_    0.704003 0.896128 0.980884 -0.719792
H1    H     H_    0.280653 0.396276 0.173684 0.165654
H2    H     H_    0.727875 0.210010 0.657941 0.131236
H3    H     H_    0.772125 0.710010 0.342059 0.131236
H4    H     H_    0.227875 0.710010 0.657941 0.131236
H5    H     H_    0.367225 0.215147 0.595641 0.136031
H6    H     H_    0.632775 0.215147 0.404359 0.136031
H7    H     H_    0.867225 0.715147 0.595641 0.136031
H8    H     H_    0.132775 0.715147 0.404359 0.136031
H9    H     H_    0.281319 0.776299 0.175249 0.106327
H10   H     H_    0.718681 0.776299 0.824751 0.106327
H11   H     H_    0.781319 0.276299 0.175249 0.106327
H12   H     H_    0.719347 0.396276 0.826316 0.165654
H13   H     H_    0.218681 0.276299 0.824751 0.106327
H14   H     H_    0.377637 0.776907 0.111047 0.173822
H15   H     H_    0.622362 0.776907 0.888953 0.173822
H16   H     H_    0.877637 0.276907 0.111047 0.173822
H17   H     H_    0.122362 0.276907 0.888953 0.173822
H18   H     H_    0.667031 0.309767 0.002211 0.114142
H19   H     H_    0.332969 0.309767 0.997789 0.114142
H20   H     H_    0.167031 0.809766 0.002211 0.114142
H21   H     H_    0.832969 0.809766 0.997789 0.114142
H22   H     H_    0.555728 0.340761 0.320104 0.101604
H23   H     H_    0.780653 0.896276 0.173684 0.165654
H24   H     H_    0.444272 0.340761 0.679896 0.101604
H25   H     H_    0.055728 0.840762 0.320104 0.101604
H26   H     H_    0.944272 0.840762 0.679896 0.101604
H27   H     H_    0.698655 0.337056 0.674972 0.093193
H28   H     H_    0.301345 0.337056 0.325028 0.093193
H29   H     H_    0.198655 0.837056 0.674972 0.093193
H30   H     H_    0.801345 0.837056 0.325028 0.093193
H31   H     H_    0.547522 0.394686 0.832527 0.099631
H32   H     H_    0.452478 0.394686 0.167473 0.099631
H33   H     H_    0.047522 0.894686 0.832527 0.099631
H34   H     H_    0.219347 0.896276 0.826316 0.165654
H35   H     H_    0.952478 0.894686 0.167473 0.099631
H36   H     H_    0.266518 0.609371 0.325154 0.119326
H37   H     H_    0.733482 0.609371 0.674846 0.119326
H38   H     H_    0.766518 0.109371 0.325154 0.119326
H39   H     H_    0.233482 0.109371 0.674846 0.119326
H40   H     H_    0.477989 0.663356 0.233558 0.137501
H41   H     H_    0.522011 0.663356 0.766442 0.137501
H42   H     H_    0.977989 0.163356 0.233558 0.137501
H43   H     H_    0.022011 0.163356 0.766442 0.137501
H44   H     H_    0.699876 0.651664 0.773589 0.089454
H45   H     H_    0.762445 0.712361 0.561541 0.135118
H46   H     H_    0.300124 0.651664 0.226411 0.089454
H47   H     H_    0.199876 0.151664 0.773589 0.089454
H48   H     H_    0.800124 0.151664 0.226411 0.089454
H49   H     H_    0.722067 0.595135 0.379605 0.154825
H50   H     H_    0.277933 0.595135 0.620395 0.154824
H51   H     H_    0.222067 0.095135 0.379605 0.154824
H52   H     H_    0.777933 0.095135 0.620395 0.154824
H53   H     H_    0.450062 0.554831 0.747801 0.161674
H54   H     H_    0.465663 0.669369 0.838394 0.243835
H55   H     H_    0.378274 0.647332 0.785305 0.256438
H56   H     H_    0.237555 0.712361 0.438459 0.135118
H57   H     H_    0.392759 0.714319 0.711335 0.267864
H58   H     H_    0.549938 0.554831 0.252199 0.161674
H59   H     H_    0.534337 0.669369 0.161607 0.243836
H60   H     H_    0.621725 0.647332 0.214693 0.256438
H61   H     H_    0.607242 0.714318 0.288665 0.267865
H62   H     H_    0.950062 0.054831 0.747801 0.161674
H63   H     H_    0.965663 0.169368 0.838394 0.243835
H64   H     H_    0.878274 0.147332 0.785305 0.256438
H65   H     H_    0.892759 0.214319 0.711335 0.267864
H66   H     H_    0.049938 0.054831 0.252199 0.161674
H67   H     H_    0.262445 0.212362 0.561541 0.135118
H68   H     H_    0.034337 0.169368 0.161606 0.243836
H69   H     H_    0.121725 0.147333 0.214695 0.256438
H70   H     H_    0.107241 0.214319 0.288665 0.267864
H71   H     H_    0.737555 0.212362 0.438459 0.135118
H72   H     H_    0.272124 0.210010 0.342059 0.131236
N1    N     N_R   0.389060 0.424180 0.294540 -0.056577
N2    N     N_R   0.374530 0.423490 0.443400 -0.045035
N3    N     N_R   0.125470 0.923490 0.556600 -0.045035
N4    N     N_R   0.874530 0.923490 0.443400 -0.045035
N5    N     N_R   0.555250 0.423100 0.705420 -0.044272
N6    N     N_R   0.444750 0.423100 0.294580 -0.044272
N7    N     N_R   0.055250 0.923100 0.705420 -0.044272
N8    N     N_R   0.944750 0.923100 0.294580 -0.044272
N9    N     N_R   0.375210 0.577180 0.443400 -0.050225
N10   N     N_R   0.624790 0.577180 0.556600 -0.050225
N11   N     N_R   0.875210 0.077180 0.443400 -0.050225
N12   N     N_R   0.610940 0.424180 0.705460 -0.056577
N13   N     N_R   0.124790 0.077180 0.556600 -0.050225
N14   N     N_R   0.445430 0.577570 0.294580 -0.045525
N15   N     N_R   0.554570 0.577570 0.705420 -0.045525
N16   N     N_R   0.945430 0.077570 0.294580 -0.045525
N17   N     N_R   0.054570 0.077570 0.705420 -0.045525
N18   N     N_R   0.611620 0.576500 0.705460 -0.040822
N19   N     N_R   0.388380 0.576500 0.294540 -0.040823
N20   N     N_R   0.111620 0.076500 0.705460 -0.040822
N21   N     N_R   0.888380 0.076500 0.294540 -0.040823
N22   N     N_R   0.421010 0.576890 0.556640 -0.076623
N23   N     N_R   0.889060 0.924180 0.294540 -0.056577
N24   N     N_R   0.578990 0.576890 0.443360 -0.076623
N25   N     N_R   0.921010 0.076890 0.556640 -0.076623
N26   N     N_R   0.078990 0.076890 0.443360 -0.076623
N27   N     N_2   0.409429 0.593949 0.700373 -0.122752
N28   N     N_2   0.590571 0.593949 0.299627 -0.122752
N29   N     N_2   0.909429 0.093949 0.700373 -0.122752
N30   N     N_2   0.090571 0.093949 0.299627 -0.122752
N31   N     N_R   0.110940 0.924180 0.705460 -0.056577
N32   N     N_R   0.579670 0.423790 0.443360 -0.047235
N33   N     N_R   0.420330 0.423790 0.556640 -0.047235
N34   N     N_R   0.079670 0.923790 0.443360 -0.047235
N35   N     N_R   0.920330 0.923790 0.556640 -0.047235
N36   N     N_R   0.625470 0.423490 0.556600 -0.045035
Ni1   Ni    Ni4+2 0.383200 0.500680 0.370150 0.224807
Ni2   Ni    Ni4+2 0.616800 0.500680 0.629850 0.224807
Ni3   Ni    Ni4+2 0.883200 0.000680 0.370150 0.224807
Ni4   Ni    Ni4+2 0.116800 0.000680 0.629850 0.224807
Ni5   Ni    Ni4+2 0.512440 0.500680 0.370150 0.205065
Ni6   Ni    Ni4+2 0.487560 0.500680 0.629850 0.205065
Ni7   Ni    Ni4+2 0.012440 0.000680 0.370150 0.205065
Ni8   Ni    Ni4+2 0.987560 0.000680 0.629850 0.205065

loop_
_geom_bond_atom_site_label_1
_geom_bond_atom_site_label_2
_ccdc_geom_bond_type
C70   H39   S    
C21   C26   D    
C55   H33   S    
C11   C18   S    
C31   F1    S    
C54   H32   S    
C50   N2    A    
C66   N9    A    
C78   N30   S    
C55   N7    A    
N5    Ni6   S    
C76   N19   A    
C4    C70   A    
C53   C59   A    
N4    N35   A    
C47   H11   S    
C72   H41   S    
C12   N12   A    
C57   N8    A    
C6    C72   A    
C79   H48   S    
C83   H70   S    
N2    Ni1   S    
C30   C35   D    
N32   N36   A    
N25   Ni8   S    
H58   N28   S    
C34   N31   A    
C3    C69   A    
C2    C68   A    
C10   C15   D    
C43   H26   S    
C69   N11   A    
C20   C25   D    
C48   H13   S    
C28   H19   S    
C5    C36   S    
C29   C33   D    
C40   C62   A    
N2    N33   A    
C36   H14   S    
C11   C16   D    
C72   N15   A    
C42   N34   A    
C75   N18   A    
C11   H51   S    
C38   H16   S    
C83   N30   S    
C22   C63   S    
C12   C59   A    
C9    H49   S    
C7    C38   S    
C56   N28   S    
C43   N35   A    
C81   H59   S    
C41   H24   S    
C30   C60   S    
C41   N33   A    
N32   Ni5   S    
C29   H20   S    
C51   N3    A    
C78   N26   A    
C8    C39   S    
C81   N28   S    
C26   C64   S    
N1    N6    A    
N4    Ni3   S    
C80   H55   S    
N5    N12   A    
N18   Ni2   S    
C1    N1    A    
N1    Ni1   S    
C34   H34   S    
C18   C22   D    
C74   H43   S    
N13   Ni4   S    
C24   C62   S    
C50   C63   A    
C32   C48   S    
N16   Ni7   S    
N16   N21   A    
C68   N10   A    
C54   N6    A    
C2    C14   S    
C68   H37   S    
C45   N22   A    
N15   N18   A    
N11   Ni3   S    
C10   C21   S    
C26   H8    S    
C23   C60   A    
C20   H3    S    
C29   C61   S    
N13   N26   A    
C6    C37   S    
C77   N20   A    
N11   N25   A    
C30   H21   S    
C27   C31   D    
C13   H52   S    
C6    C75   A    
C25   C65   S    
N31   Ni4   S    
C35   F4    S    
C7    C73   A    
C23   H23   S    
C37   H15   S    
C76   H46   S    
C45   N27   S    
C57   C60   A    
C40   H22   S    
N35   Ni8   S    
C56   N24   A    
N3    N34   A    
N14   Ni5   S    
N23   Ni3   S    
N33   Ni6   S    
C79   N21   A    
N6    Ni5   S    
C4    C16   S    
C9    C14   D    
C4    C78   A    
N20   Ni4   S    
C24   H6    S    
C57   H35   S    
C44   H9    S    
C42   H25   S    
C40   N32   A    
C28   C32   D    
C43   C65   A    
N17   N20   A    
C32   F2    S    
C16   H67   S    
C8    C74   A    
N17   Ni8   S    
N7    Ni8   S    
N12   Ni2   S    
C38   C47   D    
C52   N4    A    
H53   N27   S    
C9    C20   S    
C53   N5    A    
C80   H57   S    
C49   H27   S    
N3    Ni4   S    
C25   H7    S    
C80   H54   S    
C82   H65   S    
C82   N29   S    
C8    C77   A    
C22   H5    S    
C66   H36   S    
C71   H40   S    
C36   C44   D    
C45   C84   A    
C41   C63   A    
N21   Ni3   S    
C42   C64   A    
C53   H31   S    
N10   Ni2   S    
C77   H47   S    
N7    N31   A    
C75   H44   S    
C7    C79   A    
C54   C58   A    
C39   H17   S    
C73   H42   S    
N8    N23   A    
C1    H1    S    
N24   Ni5   S    
N10   N24   A    
N22   Ni6   S    
C33   C44   S    
C3    C67   A    
C51   C64   A    
C82   H63   S    
N15   Ni6   S    
C69   H38   S    
C83   H69   S    
C67   N29   S    
C15   C84   S    
C83   H68   S    
C14   H45   S    
C28   C58   S    
N19   Ni1   S    
C27   H18   S    
C71   N14   A    
C13   C17   D    
H66   N30   S    
C73   N16   A    
C19   C24   D    
C33   F3    S    
C5    C71   A    
C19   H2    S    
C27   C59   S    
C1    C58   A    
H62   N29   S    
C81   H60   S    
C74   N17   A    
C23   N23   A    
C5    C76   A    
C81   H61   S    
N34   Ni7   S    
C55   C61   A    
C49   N36   A    
C51   H29   S    
C80   N27   S    
N26   Ni7   S    
C3    C17   S    
C50   H28   S    
C34   C61   A    
C46   H10   S    
C17   H71   S    
C70   N13   A    
C82   H64   S    
N9    N22   A    
C12   H12   S    
N36   Ni2   S    
C18   H72   S    
C66   C84   A    
C15   H56   S    
N8    Ni7   S    
C31   C47   S    
C13   C19   S    
C49   C62   A    
C2    C56   A    
C10   H50   S    
C37   C46   D    
C35   C46   S    
N14   N19   A    
N9    Ni1   S    
C52   C65   A    
C67   N25   A    
C39   C48   D    
C21   H4    S    
C52   H30   S    
