data_mof_unit_13252.cif
_audit_creation_date              2012-12-10T20:28:38-0500
_audit_creation_method            fapswitch 2.2
_symmetry_space_group_name_H-M    P1
_symmetry_Int_Tables_number       1
_space_group_crystal_system       triclinic
_cell_length_a                    10.720115
_cell_length_b                    10.647659
_cell_length_c                    9.846615
_cell_angle_alpha                 89.475013
_cell_angle_beta                  90.333893
_cell_angle_gamma                 90.102292
_cell_volume                      1123.86534285

loop_
_atom_site_label
_atom_site_type_symbol
_atom_type_description
_atom_site_fract_x
_atom_site_fract_y
_atom_site_fract_z
_atom_type_partial_charge
C1    C     C_R   0.500707 0.260187 0.500337 0.900963
C2    C     C_R   0.063249 0.534872 0.627974 0.117927
C3    C     C_R   0.127542 0.530324 0.502923 -0.137928
C4    C     C_R   0.062895 0.517704 0.380545 -0.140129
C5    C     C_R   0.936552 0.499602 0.381739 -0.160272
C6    C     C_R   0.874470 0.485797 0.505452 -0.107584
C7    C     C_R   0.594242 0.063099 0.572443 0.052343
C8    C     C_R   0.504388 0.128285 0.497692 -0.061810
C9    C     C_R   0.429252 0.065610 0.403105 -0.184843
C10   C     C_R   0.430129 0.935956 0.401326 -0.195875
C11   C     C_R   0.505725 0.871318 0.494601 -0.109029
C12   C     C_R   0.260656 0.513865 0.500300 0.884024
C13   C     C_R   0.594236 0.934929 0.571317 0.112997
C14   C     C_3   0.630106 0.924278 0.717514 -0.024316
C15   C     C_3   0.630937 0.067263 0.719009 -0.461593
C16   C     C_R   0.395270 0.466030 0.071141 0.048674
C17   C     C_R   0.598557 0.546288 0.072136 -0.045958
C18   C     C_R   0.598338 0.546676 0.928089 -0.060444
C19   C     C_R   0.395301 0.465940 0.928468 0.004045
C20   C     C_3   0.328958 0.342692 0.924018 0.373838
C21   C     C_3   0.329915 0.342490 0.078144 0.357736
C22   C     C_R   0.500655 0.739680 0.499176 0.885052
C23   C     C_R   0.740355 0.491021 0.501318 0.889672
C24   C     C_R   0.117208 0.578909 0.750449 -0.255603
C25   C     C_R   0.060325 0.554614 0.874888 -0.216123
C26   C     C_R   0.950395 0.485379 0.878886 0.690700
C27   C     C_R   0.890829 0.452609 0.757888 -0.268126
C28   C     C_R   0.940907 0.489887 0.630615 0.042877
H1    H     H_    0.109938 0.520269 0.283569 0.230229
H2    H     H_    0.557190 0.106584 0.784253 0.272570
H3    H     H_    0.724959 0.109299 0.733706 0.224994
H4    H     H_    0.678998 0.581700 0.126472 0.174686
H5    H     H_    0.678195 0.582997 0.873992 0.173489
H6    H     H_    0.234716 0.348316 0.876945 0.131408
H7    H     H_    0.386489 0.266629 0.126239 0.129236
H8    H     H_    0.202667 0.633038 0.751211 0.187489
H9    H     H_    0.104123 0.585351 0.968233 0.177466
H10   H     H_    0.807699 0.395576 0.765802 0.186788
H11   H     H_    0.887830 0.495762 0.285150 0.219404
H12   H     H_    0.365690 0.116292 0.336520 0.174634
H13   H     H_    0.367050 0.886635 0.333788 0.166385
H14   H     H_    0.555372 0.882054 0.781235 0.165485
N1    N     N_R   0.499160 0.499140 0.142800 -0.129439
N2    N     N_R   0.499160 0.499180 0.857150 -0.086382
O1    O     O_R   0.500020 0.316790 0.614690 -0.556333
O2    O     O_R   0.500000 0.316760 0.385350 -0.627434
O3    O     O_R   0.316770 0.500020 0.614690 -0.629600
O4    O     O_R   0.316760 0.499980 0.385350 -0.591897
O5    O     O_R   0.500000 0.683240 0.614650 -0.628196
O6    O     O_R   0.499980 0.683210 0.385310 -0.618688
O7    O     O_R   0.683240 0.500020 0.614650 -0.630417
O8    O     O_R   0.683230 0.499980 0.385310 -0.623773
Zn1   Zn    Zn3+2 0.500010 0.500020 0.653130 0.988731
Zn2   Zn    Zn3+2 0.499990 0.499980 0.346870 0.985279
I1    I     I_    0.810927 0.841514 0.741648 -0.369372
F1    F     F_    0.402443 0.248493 0.872209 -0.678016
F2    F     F_    0.211283 0.353747 0.131006 -0.669156
F3    F     F_    0.899770 0.452432 0.999968 -0.680782

loop_
_geom_bond_atom_site_label_1
_geom_bond_atom_site_label_2
_ccdc_geom_bond_type
C24   C25   A    
C17   N1    A    
C21   F2    S    
C16   C21   S    
C21   H7    S    
C18   N2    A    
C1    C8    S    
C11   C13   A    
C9    C10   A    
C11   C22   S    
C23   O7    A    
C19   C20   S    
C14   H14   S    
C22   O6    A    
C20   H6    S    
O2    Zn2   S    
C7    C15   S    
C14   I1    S    
C23   O8    A    
O1    Zn1   S    
C7    C8    A    
O6    Zn2   S    
C13   C14   S    
C19   N2    A    
C10   H13   S    
O4    Zn2   S    
C26   F3    S    
C16   N1    A    
C1    O1    A    
C26   C27   A    
C24   H8    S    
C12   O3    A    
O5    Zn1   S    
O3    Zn1   S    
N2    Zn1   S    
C12   O4    A    
O8    Zn2   S    
C17   C18   A    
C2    C3    A    
C20   F1    S    
C5    H11   S    
C2    C24   A    
C5    C6    A    
C18   H5    S    
C1    O2    A    
C10   C11   A    
C6    C23   S    
C27   H10   S    
C3    C4    A    
C7    C13   A    
C20   C21   S    
C15   H2    S    
C22   O5    A    
C27   C28   A    
C17   H4    S    
C14   C15   S    
C4    C5    A    
C2    C28   A    
C3    C12   S    
N1    Zn2   S    
C25   H9    S    
C25   C26   A    
C15   H3    S    
C9    H12   S    
C6    C28   A    
C4    H1    S    
C8    C9    A    
O7    Zn1   S    
C16   C19   A    
