data_mof_unit_39946.cif
_audit_creation_date              2012-10-26T18:51:46-0400
_audit_creation_method            fapswitch 2.2
_symmetry_space_group_name_H-M    P1
_symmetry_Int_Tables_number       1
_space_group_crystal_system       triclinic
_cell_length_a                    11.630912
_cell_length_b                    14.832844
_cell_length_c                    14.485493
_cell_angle_alpha                 64.644424
_cell_angle_beta                  105.269219
_cell_angle_gamma                 100.639141
_cell_volume                      2171.1616164

loop_
_atom_site_label
_atom_site_type_symbol
_atom_type_description
_atom_site_fract_x
_atom_site_fract_y
_atom_site_fract_z
_atom_type_partial_charge
C1    C     C_R   0.478162 0.119442 0.310284 0.537858
C2    C     C_R   0.602838 0.591505 0.112856 -0.148655
C3    C     C_R   0.687373 0.268851 0.687789 -0.015470
C4    C     C_R   0.311704 0.730845 0.312740 -0.016085
C5    C     C_R   0.667966 0.198965 0.642656 0.035686
C6    C     C_R   0.331620 0.801019 0.357585 0.038113
C7    C     C_R   0.510522 0.287796 0.508816 0.141232
C8    C     C_R   0.489318 0.712155 0.491233 0.140837
C9    C     C_R   0.545811 0.371256 0.536968 0.006130
C10   C     C_R   0.453524 0.628540 0.463460 0.006199
C11   C     C_R   0.617475 0.352582 0.637841 0.034378
C12   C     C_R   0.523036 0.880469 0.690013 0.538468
C13   C     C_R   0.381647 0.647121 0.362708 0.033251
C14   C     C_R   0.499393 0.467424 0.475962 0.020143
C15   C     C_R   0.499950 0.532396 0.524500 0.019479
C16   C     C_R   0.284759 0.000880 0.500173 0.537537
C17   C     C_R   0.715257 0.999071 0.499910 0.537658
C18   C     C_R   0.540955 0.496830 0.633310 -0.155029
C19   C     C_R   0.458695 0.503195 0.367108 -0.154547
C20   C     C_R   0.607739 0.413622 0.687280 -0.136387
C21   C     C_R   0.391758 0.586318 0.313148 -0.138655
C22   C     C_1   0.163374 0.002139 0.500534 -0.044162
C23   C     C_R   0.422794 0.329021 0.987519 0.027535
C24   C     C_1   0.836628 0.997843 0.499486 -0.044582
C25   C     C_1   0.060298 0.001093 0.500259 -0.058897
C26   C     C_1   0.939695 0.998909 0.499719 -0.059039
C27   C     C_R   0.461316 0.186989 0.196913 0.000620
C28   C     C_R   0.543572 0.812223 0.803852 -0.004718
C29   C     C_R   0.380474 0.226845 0.010514 0.027753
C30   C     C_R   0.652492 0.761681 0.987590 0.032176
C31   C     C_R   0.379648 0.161941 0.116882 0.015135
C32   C     C_R   0.631258 0.835481 0.882758 0.005719
C33   C     C_R   0.529142 0.280251 0.167830 -0.038636
C34   C     C_R   0.592801 0.664409 0.010009 0.030556
C35   C     C_R   0.477408 0.717903 0.832366 -0.036923
C36   C     C_R   0.489340 0.357355 0.069583 0.025726
C37   C     C_R   0.518627 0.638995 0.928633 0.024583
C38   C     C_3   0.349435 0.710923 0.772844 -0.387221
C39   C     C_3   0.654978 0.288689 0.230422 -0.386879
C40   C     C_3   0.702163 0.937547 0.856533 -0.266088
C41   C     C_3   0.805599 0.942935 0.807134 -0.431646
C42   C     C_3   0.291283 0.069264 0.142985 -0.267073
C43   C     C_3   0.198813 0.077075 0.196707 -0.429273
C44   C     C_3   0.341624 0.185756 0.925216 -0.275420
C45   C     C_R   0.515367 0.461033 0.050479 0.034934
C46   C     C_3   0.417101 0.101593 0.947240 -0.440742
C47   C     C_3   0.748390 0.782078 0.073292 -0.274286
C48   C     C_3   0.696456 0.826524 0.129738 -0.445924
C49   C     C_3   0.619219 0.722901 0.546642 -0.220025
C50   C     C_3   0.702168 0.758628 0.469030 -0.410880
C51   C     C_3   0.380865 0.277158 0.452744 -0.220189
C52   C     C_3   0.297114 0.241947 0.529617 -0.410322
C53   C     C_3   0.783092 0.250354 0.786816 -0.293920
C54   C     C_3   0.907811 0.262549 0.764836 -0.444902
C55   C     C_3   0.216249 0.749257 0.213538 -0.293618
C56   C     C_R   0.488080 0.535386 0.947494 0.033641
C57   C     C_3   0.091768 0.743003 0.233466 -0.446439
C58   C     C_R   0.437403 0.503646 0.865968 -0.150291
C59   C     C_R   0.560774 0.492856 0.132422 -0.152194
C60   C     C_R   0.399724 0.404001 0.885683 -0.145792
Cu1   Cu    Cu3+1 0.469550 0.918260 0.475690 0.886564
Cu2   Cu    Cu3+1 0.530450 0.081740 0.524310 0.883421
H1    H     H_    0.349157 0.389159 0.819102 0.104949
H2    H     H_    0.719997 0.135046 0.678128 0.129124
H3    H     H_    0.345723 0.702411 0.699690 0.158717
H4    H     H_    0.294383 0.647662 0.821227 0.126165
H5    H     H_    0.306231 0.779774 0.752345 0.130202
H6    H     H_    0.710903 0.352106 0.183218 0.126707
H7    H     H_    0.654456 0.298224 0.302149 0.159101
H8    H     H_    0.699793 0.219977 0.253539 0.131502
H9    H     H_    0.771929 0.935853 0.731283 0.166437
H10   H     H_    0.860037 0.015449 0.794136 0.121263
H11   H     H_    0.864347 0.881808 0.859948 0.140646
H12   H     H_    0.641452 0.609332 0.180096 0.116617
H13   H     H_    0.643639 0.998854 0.808057 0.162050
H14   H     H_    0.739031 0.956581 0.924995 0.126460
H15   H     H_    0.241103 0.084745 0.271217 0.161851
H16   H     H_    0.146964 0.142920 0.144519 0.141808
H17   H     H_    0.135856 0.008654 0.213644 0.124486
H18   H     H_    0.238842 0.057225 0.073090 0.131811
H19   H     H_    0.339492 0.001109 0.189710 0.156911
H20   H     H_    0.513289 0.129025 0.954165 0.151741
H21   H     H_    0.405303 0.035696 0.019918 0.143299
H22   H     H_    0.390106 0.076895 0.881648 0.134856
H23   H     H_    0.526115 0.536023 0.676602 0.103090
H24   H     H_    0.245010 0.160428 0.915220 0.127545
H25   H     H_    0.353674 0.241776 0.847588 0.137018
H26   H     H_    0.657360 0.897974 0.074251 0.145993
H27   H     H_    0.625558 0.773656 0.168085 0.152673
H28   H     H_    0.768328 0.841287 0.190576 0.133767
H29   H     H_    0.791498 0.713284 0.130996 0.129634
H30   H     H_    0.825911 0.830855 0.042825 0.135261
H31   H     H_    0.707978 0.697307 0.446127 0.135071
H32   H     H_    0.668771 0.823657 0.397002 0.179601
H33   H     H_    0.793319 0.780068 0.505899 0.135253
H34   H     H_    0.474115 0.464360 0.323728 0.100932
H35   H     H_    0.631884 0.769800 0.590358 0.195685
H36   H     H_    0.654528 0.654236 0.609506 0.101832
H37   H     H_    0.330006 0.176983 0.601941 0.178935
H38   H     H_    0.291005 0.303521 0.552033 0.134713
H39   H     H_    0.206173 0.220562 0.492326 0.135040
H40   H     H_    0.345986 0.345720 0.389393 0.101213
H41   H     H_    0.368440 0.229987 0.409394 0.195456
H42   H     H_    0.916557 0.207371 0.734645 0.138179
H43   H     H_    0.925808 0.339400 0.706759 0.159133
H44   H     H_    0.975967 0.250213 0.838162 0.134920
H45   H     H_    0.424733 0.555391 0.785403 0.112859
H46   H     H_    0.783915 0.301393 0.824439 0.142351
H47   H     H_    0.766314 0.173113 0.844838 0.127034
H48   H     H_    0.071538 0.668794 0.294872 0.159063
H49   H     H_    0.084836 0.802846 0.257994 0.138754
H50   H     H_    0.024056 0.752563 0.160498 0.129651
H51   H     H_    0.236186 0.824803 0.153908 0.127904
H52   H     H_    0.212307 0.695104 0.178885 0.143232
H53   H     H_    0.566264 0.441730 0.212830 0.112979
H54   H     H_    0.644029 0.395132 0.769240 0.110679
H55   H     H_    0.355853 0.605129 0.231064 0.108947
H56   H     H_    0.279492 0.865030 0.322195 0.127072
N1    N     N_R   0.576230 0.204580 0.560790 -0.237076
N2    N     N_R   0.423770 0.795420 0.439210 -0.237042
O1    O     O_R   0.459870 0.022090 0.338120 -0.497185
O2    O     O_R   0.540130 0.977910 0.661880 -0.500502
O3    O     O_R   0.511290 0.160150 0.379180 -0.509237
O4    O     O_R   0.488710 0.839850 0.620820 -0.506829
O5    O     O_R   0.311490 0.930960 0.479480 -0.492744
O6    O     O_R   0.688510 0.069040 0.520520 -0.493783
O7    O     O_R   0.362910 0.069020 0.520540 -0.507382
O8    O     O_R   0.637090 0.930980 0.479460 -0.506817

loop_
_geom_bond_atom_site_label_1
_geom_bond_atom_site_label_2
_ccdc_geom_bond_type
C15   C18   A    
C42   H18   S    
C31   C42   S    
C34   C37   A    
C47   H30   S    
C53   C54   S    
C27   C33   A    
C43   H16   S    
C33   C39   S    
C12   C28   S    
Cu1   O4    S    
C23   C29   A    
C54   H42   S    
C35   C37   A    
C24   C26   T    
C10   C15   A    
Cu2   O7    S    
C17   O6    A    
C57   H50   S    
C43   H17   S    
C33   C36   A    
Cu1   O1    S    
C58   H45   S    
C39   H6    S    
C4    C13   A    
C21   H55   S    
C49   H36   S    
C46   H20   S    
C37   C56   A    
C47   C48   S    
C28   C35   A    
C22   C25   T    
C48   H26   S    
C44   H25   S    
C16   O5    A    
C2    H12   S    
C41   H9    S    
C2    C34   A    
C48   H28   S    
Cu1   N2    S    
C42   H19   S    
C44   H24   S    
C6    N2    A    
Cu2   O3    S    
C44   C46   S    
C58   C60   A    
C23   C60   A    
C11   C20   A    
C52   H39   S    
C18   H23   S    
C30   C34   A    
C27   C31   A    
C51   C52   S    
C17   C24   S    
C7    N1    A    
C30   C47   S    
C28   C32   A    
C35   C38   S    
C45   C56   A    
C4    C6    A    
Cu2   O6    S    
C54   H44   S    
C2    C59   A    
C50   H32   S    
C55   H51   S    
C25   C26   S    
C41   H11   S    
C52   H38   S    
C40   H14   S    
C5    H2    S    
C51   H40   S    
C9    C14   A    
C1    O3    A    
C57   H48   S    
C12   O4    A    
C38   H3    S    
C39   H7    S    
C13   C21   A    
C36   C45   A    
C17   O8    A    
C9    C11   A    
Cu2   N1    S    
C41   H10   S    
C46   H22   S    
C59   H53   S    
C40   C41   S    
C5    N1    A    
C49   C50   S    
C48   H27   S    
C55   C57   S    
C4    C55   S    
C60   H1    S    
C42   C43   S    
Cu2   O2    S    
C8    N2    A    
C20   H54   S    
C53   H47   S    
C7    C9    A    
C38   H4    S    
C45   C59   A    
C16   C22   S    
C54   H43   S    
C19   C21   A    
C47   H29   S    
C14   C19   A    
C3    C5    A    
C10   C13   A    
C50   H31   S    
C55   H52   S    
C43   H15   S    
C52   H37   S    
C40   H13   S    
C7    C51   S    
C29   C31   A    
C30   C32   A    
C3    C53   S    
C53   H46   S    
C57   H49   S    
C39   H8    S    
C56   C58   A    
Cu1   O8    S    
C18   C20   A    
C29   C44   S    
C32   C40   S    
Cu1   Cu2   S    
C50   H33   S    
C16   O7    A    
C1    O1    A    
C3    C11   A    
C49   H35   S    
C46   H21   S    
C12   O2    A    
C38   H5    S    
C8    C10   A    
C23   C36   A    
C1    C27   S    
C14   C15   A    
Cu1   O5    S    
C51   H41   S    
C8    C49   S    
C6    H56   S    
C19   H34   S    
