data_mof_unit_40693.cif
_audit_creation_date              2013-03-05T15:43:53-0500
_audit_creation_method            fapswitch 2.2
_symmetry_space_group_name_H-M    P1
_symmetry_Int_Tables_number       1
_space_group_crystal_system       triclinic
_cell_length_a                    7.219336
_cell_length_b                    13.73859
_cell_length_c                    16.704509
_cell_angle_alpha                 89.999962
_cell_angle_beta                  96.692396
_cell_angle_gamma                 90.000115
_cell_volume                      1645.52231681

loop_
_atom_site_label
_atom_site_type_symbol
_atom_site_description
_atom_site_fract_x
_atom_site_fract_y
_atom_site_fract_z
_atom_type_partial_charge
O1    O     O_R   0.525340 0.338340 0.164530 -0.553441
O2    O     O_R   0.474660 0.661660 0.835470 -0.553428
O3    O     O_R   0.974660 0.838340 0.835470 -0.553442
O4    O     O_R   0.025340 0.161660 0.164530 -0.553442
O5    O     O_R   0.253520 0.352000 0.336710 -0.543852
O6    O     O_R   0.746480 0.648000 0.663290 -0.543864
O7    O     O_R   0.246480 0.852000 0.663290 -0.543853
O8    O     O_R   0.753520 0.148000 0.336710 -0.543852
O9    O     O_R   0.083330 0.168380 0.337300 -0.561262
O10   O     O_R   0.916670 0.831620 0.662700 -0.561263
O11   O     O_R   0.416670 0.668380 0.662700 -0.561252
O12   O     O_R   0.583330 0.331620 0.337300 -0.561263
C1    C     C_R   0.431650 0.372657 0.361077 0.872513
C2    C     C_R   0.568350 0.627344 0.638922 0.872509
C3    C     C_R   0.068351 0.872656 0.638922 0.872511
C4    C     C_R   0.931649 0.127344 0.361078 0.872513
O13   O     O_R   0.195840 0.349670 0.165140 -0.548633
O14   O     O_R   0.804160 0.650330 0.834860 -0.548637
O15   O     O_R   0.304160 0.849670 0.834860 -0.548634
O16   O     O_R   0.695840 0.150330 0.165140 -0.548633
C5    C     C_R   0.356841 0.370122 0.136445 0.915872
C6    C     C_R   0.643159 0.629877 0.863555 0.915875
C7    C     C_R   0.143159 0.870122 0.863555 0.915870
C8    C     C_R   0.856840 0.129878 0.136445 0.915871
O17   O     O_3   0.387830 0.193120 0.250910 -0.278384
O18   O     O_3   0.612170 0.806880 0.749090 -0.278386
O19   O     O_3   0.112170 0.693120 0.749090 -0.278374
O20   O     O_3   0.887830 0.306880 0.250910 -0.278383
V1    V     V_3+5 0.113010 0.264540 0.250910 1.210859
V2    V     V_3+5 0.886990 0.735460 0.749090 1.210859
V3    V     V_3+5 0.386990 0.764540 0.749090 1.210870
V4    V     V_3+5 0.613010 0.235460 0.250910 1.210859
H1    H     H_    0.147096 0.793515 0.284367 0.137262
H2    H     H_    0.852906 0.206486 0.715633 0.137260
H3    H     H_    0.352888 0.293517 0.715632 0.137253
H4    H     H_    0.647099 0.706486 0.284367 0.137262
C9    C     C_R   0.861858 0.191884 0.515165 -0.093253
C10   C     C_R   0.138144 0.808116 0.484835 -0.093255
C11   C     C_R   0.638144 0.691884 0.484835 -0.093255
C12   C     C_R   0.361864 0.308114 0.515165 -0.093255
C13   C     C_R   0.829579 0.229233 0.589152 -0.132370
C14   C     C_R   0.170423 0.770767 0.410848 -0.132370
C15   C     C_R   0.670424 0.729233 0.410848 -0.132370
C16   C     C_R   0.329582 0.270765 0.589151 -0.132370
C17   C     C_R   0.871448 0.174255 0.657913 -0.060775
C18   C     C_R   0.128554 0.825745 0.342087 -0.060774
C19   C     C_R   0.628556 0.674255 0.342087 -0.060774
C20   C     C_R   0.371437 0.325745 0.657912 -0.060773
C21   C     C_R   0.947187 0.080844 0.654054 0.343383
C22   C     C_R   0.052814 0.919156 0.345946 0.343382
C23   C     C_R   0.552817 0.580844 0.345946 0.343381
C24   C     C_R   0.447168 0.419158 0.654053 0.343390
C25   C     C_R   0.972202 0.037681 0.577889 -0.061358
C26   C     C_R   0.027799 0.962319 0.422111 -0.061358
C27   C     C_R   0.527800 0.537681 0.422111 -0.061358
C28   C     C_R   0.472195 0.462320 0.577888 -0.061362
C29   C     C_R   0.931421 0.095991 0.507403 -0.021508
C30   C     C_R   0.068580 0.904009 0.492597 -0.021508
C31   C     C_R   0.568579 0.595991 0.492597 -0.021506
C32   C     C_R   0.431422 0.404008 0.507402 -0.021507
C33   C     C_R   0.037176 0.940280 0.569489 -0.105679
C34   C     C_R   0.962824 0.059720 0.430511 -0.105679
C35   C     C_R   0.462825 0.440280 0.430511 -0.105679
C36   C     C_R   0.537173 0.559720 0.569488 -0.105687
H5    H     H_    0.831766 0.240302 0.464375 0.092821
H6    H     H_    0.168236 0.759698 0.535625 0.092821
H7    H     H_    0.668235 0.740302 0.535625 0.092822
H8    H     H_    0.331779 0.259695 0.464375 0.092820
H9    H     H_    0.776878 0.302561 0.593464 0.111602
H10   H     H_    0.223124 0.697439 0.406536 0.111605
H11   H     H_    0.723125 0.802561 0.406537 0.111605
H12   H     H_    0.276885 0.197436 0.593463 0.111606
H13   H     H_    0.138301 0.066477 0.055883 0.118435
H14   H     H_    0.861699 0.933523 0.944117 0.118435
H15   H     H_    0.361698 0.566476 0.944116 0.118443
H16   H     H_    0.638300 0.433521 0.055881 0.118436
C37   C     C_2   0.150373 0.939672 0.932039 -0.125897
C38   C     C_2   0.849626 0.060328 0.067961 -0.125898
C39   C     C_2   0.349626 0.439672 0.067961 -0.125898
C40   C     C_2   0.650373 0.560327 0.932038 -0.125904
C41   C     C_2   0.996245 0.964803 0.966219 -0.042988
C42   C     C_2   0.003755 0.035196 0.033781 -0.042988
C43   C     C_2   0.503755 0.464802 0.033780 -0.042996
C44   C     C_2   0.496244 0.535195 0.966218 -0.042996
H17   H     H_    0.715569 0.028964 0.045204 0.064062
H18   H     H_    0.284431 0.971036 0.954796 0.064062
H19   H     H_    0.784430 0.528963 0.954795 0.064065
H20   H     H_    0.215569 0.471036 0.045204 0.064064
N1    N     N_R   0.013680 0.036870 0.729162 0.043707
O21   O     O_R   0.192913 0.033620 0.749958 -0.395971
O22   O     O_R   0.902708 0.033119 0.785099 -0.385148
N2    N     N_R   0.986321 0.963130 0.270838 0.043708
O23   O     O_R   0.807087 0.966381 0.250043 -0.395970
O24   O     O_R   0.097292 0.966881 0.214900 -0.385147
N3    N     N_R   0.486326 0.536870 0.270837 0.043707
O25   O     O_R   0.597300 0.533117 0.214901 -0.385144
O26   O     O_R   0.307092 0.533620 0.250041 -0.395971
N4    N     N_R   0.513633 0.463138 0.729161 0.043705
O27   O     O_R   0.402624 0.466912 0.785084 -0.385125
O28   O     O_R   0.692862 0.466372 0.749976 -0.395985

loop_
_geom_bond_atom_site_label_1
_geom_bond_atom_site_label_2
_geom_bond_distance
_ccdc_geom_bond_type
O1    C5    1.325708 A    
C12   C32   1.421214 A    
C27   C31   1.426188 A    
O13   V1    1.994469 S    
O3    C7    1.325708 A    
N3    O25   1.300796 A    
C40   C44   1.353298 D    
O15   V3    1.994471 S    
C41   C42   1.482451 S    
C29   C34   1.420335 A    
C31   C36   1.420334 A    
C22   C26   1.434075 A    
C32   C35   1.420332 A    
O20   V1    1.726588 S    
O9    C4    1.332698 A    
C10   C14   1.382826 A    
C40   H19   1.086773 S    
O10   C3    1.332699 A    
C26   C30   1.426189 A    
O4    C8    1.325707 A    
O11   C2    1.332698 A    
H15   C44   1.086688 S    
C14   H10   1.082233 S    
H4    C19   1.083381 S    
C14   C18   1.378507 A    
O10   V2    1.986413 S    
C10   C30   1.421213 A    
C25   C33   1.430290 A    
O16   C8    1.337741 A    
C27   C35   1.430290 A    
O2    C6    1.325708 A    
C28   C36   1.430292 A    
O14   V2    1.994468 S    
C37   C41   1.353300 D    
N1    O22   1.300793 A    
O5    C1    1.333401 A    
O4    V1    2.065808 S    
O9    V1    1.986412 S    
C30   C33   1.420334 A    
O7    C3    1.333399 A    
O11   V3    1.986415 S    
O18   V3    1.726586 S    
O8    C4    1.333400 A    
O12   V4    1.986414 S    
O19   V2    1.726588 S    
H1    C18   1.083380 S    
C4    C34   1.482634 S    
H3    C20   1.083380 S    
H16   C43   1.086687 S    
C39   H20   1.086773 S    
O5    V1    2.046486 S    
O7    V3    2.046487 S    
O8    V4    2.046486 S    
C10   H6    1.080068 S    
C25   C29   1.426188 A    
C19   C23   1.399392 A    
C26   C34   1.430289 A    
O1    V4    2.065808 S    
O13   C5    1.337741 A    
C28   C32   1.426188 A    
C9    H5    1.080069 S    
O2    V3    2.065806 S    
O3    V2    2.065806 S    
O15   C7    1.337741 A    
O6    C2    1.333402 A    
C38   C42   1.353299 D    
C43   C44   1.482452 S    
C1    C35   1.482633 S    
C17   C21   1.399393 A    
C11   C31   1.421212 A    
C5    C39   1.486789 S    
N2    O24   1.300793 A    
C3    C33   1.482635 S    
H2    C17   1.083381 S    
C7    C37   1.486790 S    
C2    C36   1.482637 S    
C38   H17   1.086773 S    
C8    C38   1.486790 S    
O6    V2    2.046485 S    
C37   H18   1.086773 S    
N4    O28   1.300854 A    
H14   C41   1.086687 S    
H13   C42   1.086688 S    
C13   H9    1.082233 S    
O16   V4    1.994472 S    
C22   N2    1.424490 S    
C15   H11   1.082233 S    
O14   C6    1.337741 A    
C11   H7    1.080068 S    
C21   N1    1.424490 S    
C11   C15   1.382828 A    
N3    O26   1.300846 A    
C18   C22   1.399394 A    
C6    C40   1.486788 S    
C39   C43   1.353297 D    
O17   V4    1.726586 S    
C21   C25   1.434077 A    
C24   N4    1.424486 S    
N2    O23   1.300846 A    
C16   H12   1.082233 S    
C23   C27   1.434075 A    
C9    C13   1.382826 A    
C16   C20   1.378507 A    
C12   C16   1.382827 A    
O12   C1    1.332698 A    
N4    O27   1.300803 A    
C12   H8    1.080068 S    
C13   C17   1.378507 A    
N1    O21   1.300846 A    
C20   C24   1.399390 A    
C15   C19   1.378507 A    
C9    C29   1.421212 A    
C24   C28   1.434074 A    
C23   N3    1.424491 S    
