data_mof_unit_16759.cif
_audit_creation_date              2012-12-10T17:48:45-0500
_audit_creation_method            fapswitch 2.2
_symmetry_space_group_name_H-M    P1
_symmetry_Int_Tables_number       1
_space_group_crystal_system       triclinic
_cell_length_a                    15.760594
_cell_length_b                    10.619907
_cell_length_c                    9.949555
_cell_angle_alpha                 90.371493
_cell_angle_beta                  87.826603
_cell_angle_gamma                 89.415043
_cell_volume                      1663.99309916

loop_
_atom_site_label
_atom_site_type_symbol
_atom_type_description
_atom_site_fract_x
_atom_site_fract_y
_atom_site_fract_z
_atom_type_partial_charge
C1    C     C_R   0.499857 0.260931 0.499694 0.867921
C2    C     C_R   0.272017 0.070536 0.616382 -0.134988
C3    C     C_R   0.271007 0.939090 0.613675 0.293071
C4    C     C_R   0.338439 0.499848 0.502149 0.869113
C5    C     C_R   0.345211 0.872165 0.575604 -0.193635
C6    C     C_R   0.421070 0.935994 0.539607 0.003316
C7    C     C_R   0.420910 0.067651 0.540238 0.090291
C8    C     C_R   0.496022 0.128891 0.499406 -0.121802
C9    C     C_R   0.569802 0.064732 0.458523 -0.207283
C10   C     C_R   0.571579 0.935201 0.459491 0.185903
C11   C     C_R   0.497162 0.872012 0.500509 -0.096494
C12   C     C_3   0.942826 0.496312 0.630162 -0.510438
C13   C     C_R   0.366520 0.384052 0.136679 -0.131297
C14   C     C_R   0.289470 0.371089 0.073241 -0.243390
C15   C     C_R   0.276255 0.437156 0.954765 -0.191600
C16   C     C_R   0.499413 0.739191 0.500277 0.884225
C17   C     C_R   0.343924 0.501592 0.891002 0.248251
C18   C     C_R   0.426401 0.479625 0.935566 0.141367
C19   C     C_R   0.432067 0.453630 0.074408 0.142779
C20   C     C_R   0.569446 0.534535 0.067612 -0.121225
C21   C     C_R   0.570926 0.527519 0.924375 -0.116769
C22   C     C_R   0.661383 0.499095 0.497432 0.903722
C23   C     C_3   0.916840 0.487121 0.481269 0.219574
C24   C     C_3   0.039967 0.481388 0.639100 -0.015424
C25   C     C_3   0.055121 0.376999 0.406253 -0.019307
C26   C     C_3   0.955134 0.361635 0.415213 0.332354
C27   C     C_1   0.749993 0.494144 0.490535 -0.208308
C28   C     C_3   0.082596 0.492984 0.494475 0.226736
C29   C     C_3   0.072687 0.573023 0.745800 -0.966040
C30   C     C_3   0.924313 0.621419 0.260819 -0.864000
C31   C     C_3   0.191178 0.869585 0.649959 -0.988363
C32   C     C_3   0.653031 0.866055 0.419024 -0.905340
C33   C     C_3   0.323333 0.629276 0.835243 -0.862782
C34   C     C_3   0.951748 0.608088 0.408004 -0.013195
C35   C     C_3   0.105652 0.253786 0.430501 -0.961616
C36   C     C_3   0.926166 0.243962 0.498091 -0.926015
C37   C     C_3   0.102948 0.660056 0.301817 -0.903239
C38   C     C_3   0.049829 0.617551 0.427695 -0.036495
C39   C     C_1   0.825132 0.489798 0.484305 -0.076513
C40   C     C_1   0.174285 0.495751 0.503175 -0.022436
C41   C     C_1   0.249505 0.497844 0.505711 -0.220145
C42   C     C_R   0.345840 0.134448 0.579296 -0.228308
H1    H     H_    0.910530 0.424403 0.694209 0.188816
H2    H     H_    0.237808 0.320487 0.122307 0.159416
H3    H     H_    0.212277 0.447425 0.920529 0.151027
H4    H     H_    0.628613 0.550827 0.868220 0.155452
H5    H     H_    0.073126 0.399911 0.300247 0.167012
H6    H     H_    0.058055 0.695535 0.500533 0.159811
H7    H     H_    0.921777 0.691182 0.460938 0.142602
H8    H     H_    0.059015 0.672691 0.721521 0.255042
H9    H     H_    0.041514 0.552619 0.845206 0.251141
H10   H     H_    0.141617 0.560487 0.756259 0.250580
H11   H     H_    0.855672 0.602149 0.252224 0.244447
H12   H     H_    0.920743 0.588840 0.672828 0.193674
H13   H     H_    0.934210 0.719544 0.226267 0.232186
H14   H     H_    0.960789 0.557623 0.191100 0.263583
H15   H     H_    0.199020 0.817922 0.745193 0.254183
H16   H     H_    0.135831 0.934647 0.663518 0.239948
H17   H     H_    0.177868 0.801583 0.568656 0.247891
H18   H     H_    0.643328 0.806658 0.328797 0.251872
H19   H     H_    0.705571 0.931963 0.394404 0.232114
H20   H     H_    0.673017 0.805295 0.502817 0.229284
H21   H     H_    0.276718 0.622210 0.755561 0.234734
H22   H     H_    0.295146 0.689891 0.917031 0.221535
H23   H     H_    0.626299 0.116464 0.427953 0.140506
H24   H     H_    0.381027 0.677058 0.795223 0.268960
H25   H     H_    0.099709 0.223794 0.536779 0.247621
H26   H     H_    0.083200 0.177160 0.364759 0.251860
H27   H     H_    0.174074 0.265882 0.403527 0.248477
H28   H     H_    0.942964 0.155430 0.442952 0.240929
H29   H     H_    0.955426 0.239206 0.597382 0.234910
H30   H     H_    0.856149 0.244027 0.515138 0.235621
H31   H     H_    0.953988 0.266669 0.232620 0.178332
H32   H     H_    0.859221 0.328549 0.281536 0.199640
H33   H     H_    0.077418 0.750191 0.263576 0.248425
H34   H     H_    0.343332 0.236205 0.580905 0.147614
H35   H     H_    0.169487 0.678969 0.327899 0.248838
H36   H     H_    0.104153 0.589059 0.219721 0.247423
H37   H     H_    0.215644 0.123915 0.647036 0.135366
H38   H     H_    0.342548 0.770495 0.572490 0.139332
H39   H     H_    0.625557 0.564534 0.117766 0.146079
H40   H     H_    0.053818 0.385595 0.677465 0.176895
H41   H     H_    0.374840 0.337063 0.230959 0.189693
N1    N     N_R   0.499210 0.498800 0.142780 -0.113624
N2    N     N_R   0.499180 0.498720 0.857170 -0.119840
N3    N     N_3   0.924521 0.345651 0.278099 -0.482994
O1    O     O_R   0.500000 0.316780 0.614690 -0.603462
O2    O     O_R   0.499990 0.316750 0.385360 -0.630153
O3    O     O_R   0.377150 0.500020 0.614720 -0.616277
O4    O     O_R   0.377140 0.499990 0.385380 -0.620735
O5    O     O_R   0.500010 0.683250 0.614640 -0.628236
O6    O     O_R   0.500000 0.683220 0.385310 -0.604959
O7    O     O_R   0.622860 0.500010 0.614620 -0.618530
O8    O     O_R   0.622850 0.499980 0.385280 -0.620551
Zn1   Zn    Zn3+2 0.500010 0.500020 0.653130 0.942662
Zn2   Zn    Zn3+2 0.499990 0.499980 0.346870 0.941650

loop_
_geom_bond_atom_site_label_1
_geom_bond_atom_site_label_2
_ccdc_geom_bond_type
C1    O1    A    
O2    Zn2   S    
C1    C8    S    
C7    C8    A    
C25   C28   S    
C12   C23   S    
C31   H16   S    
C32   H19   S    
C21   H4    S    
C12   H1    S    
C5    C6    A    
C7    C42   A    
C4    C41   S    
C28   C40   S    
O6    Zn2   S    
C18   C19   A    
N1    Zn2   S    
C23   C26   S    
C31   H17   S    
C24   H40   S    
C24   C29   S    
C2    H37   S    
C27   C39   T    
C8    C9    A    
O1    Zn1   S    
C35   H25   S    
C9    C10   A    
C25   H5    S    
C38   H6    S    
C36   H29   S    
C33   H21   S    
C1    O2    A    
C37   H33   S    
O7    Zn1   S    
C13   C14   A    
C22   O8    A    
C17   C33   S    
C36   H28   S    
C33   H24   S    
C4    O4    A    
C29   H8    S    
C30   H11   S    
C21   N2    A    
C18   N2    A    
C30   C34   S    
C6    C11   A    
C13   C19   A    
C25   C26   S    
C30   H14   S    
O3    Zn1   S    
C3    C31   S    
C37   C38   S    
C11   C16   S    
C28   C38   S    
C26   N3    S    
C23   C34   S    
C17   C18   A    
H32   N3    S    
C5    H38   S    
O8    Zn2   S    
C25   C35   S    
C26   C36   S    
C40   C41   T    
C16   O6    A    
C22   C27   S    
C20   N1    A    
C22   O7    A    
C32   H18   S    
C19   N1    A    
C14   H2    S    
C4    O3    A    
C29   H9    S    
C15   C17   A    
C13   H41   S    
C34   H7    S    
C34   C38   S    
C24   C28   S    
C3    C5    A    
O4    Zn2   S    
C6    C7    A    
C30   H13   S    
C12   C24   S    
C42   H34   S    
C31   H15   S    
C2    C3    A    
C32   H20   S    
N2    Zn1   S    
C37   H35   S    
C35   H26   S    
C2    C42   A    
C33   H22   S    
C23   C39   S    
C9    H23   S    
H31   N3    S    
C10   C11   A    
O5    Zn1   S    
C10   C32   S    
C20   C21   A    
C35   H27   S    
C16   O5    A    
C15   H3    S    
C14   C15   A    
C20   H39   S    
C37   H36   S    
C12   H12   S    
C36   H30   S    
C29   H10   S    
