data_mof_unit_42892.cif
_audit_creation_date              2012-12-10T17:20:41-0500
_audit_creation_method            fapswitch 2.2
_symmetry_space_group_name_H-M    P1
_symmetry_Int_Tables_number       1
_space_group_crystal_system       triclinic
_cell_length_a                    10.291848
_cell_length_b                    10.274411
_cell_length_c                    13.607307
_cell_angle_alpha                 93.256445
_cell_angle_beta                  73.89902
_cell_angle_gamma                 96.940333
_cell_volume                      1371.89332069

loop_
_atom_site_label
_atom_site_type_symbol
_atom_type_description
_atom_site_fract_x
_atom_site_fract_y
_atom_site_fract_z
_atom_type_partial_charge
C1    C     C_R   0.558693 0.737351 0.492671 0.824348
C2    C     C_2   0.068069 0.475759 0.501362 0.618275
C3    C     C_1   0.445676 0.513914 0.883609 -0.027625
C4    C     C_1   0.560229 0.512131 0.116399 -0.027813
C5    C     C_2   0.594723 0.878103 0.511725 0.319919
C6    C     C_2   0.390446 0.156062 0.589686 0.224120
C7    C     C_2   0.509038 0.965693 0.506234 0.253149
C8    C     C_2   0.471581 0.063112 0.593124 0.331461
C9    C     C_3   0.145702 0.678742 0.678685 -0.162774
C10   C     C_3   0.858933 0.312320 0.324068 -0.095658
C11   C     C_3   0.305883 0.509064 0.066872 -0.402872
C12   C     C_R   0.439590 0.264652 0.517199 0.801759
C13   C     C_3   0.252149 0.366516 0.092578 -0.800821
C14   C     C_3   0.701354 0.532217 0.933398 -0.400822
C15   C     C_3   0.738807 0.396900 0.891041 -0.822568
C16   C     C_3   0.552503 0.123673 0.731216 -0.169093
C17   C     C_3   0.306705 0.931615 0.459291 -0.289547
C18   C     C_3   0.185267 0.086330 0.701712 -0.296485
C19   C     C_3   0.803796 0.978101 0.508115 -0.429823
C20   C     C_3   0.056529 0.254044 0.499520 -0.361230
C21   C     C_3   0.836236 0.679058 0.615474 -0.069971
C22   C     C_R   0.475670 0.503807 0.688303 0.904527
C23   C     C_R   0.524555 0.496964 0.311617 0.905093
C24   C     C_1   0.546667 0.503664 0.205449 -0.202889
C25   C     C_1   0.456702 0.509075 0.794384 -0.191235
C26   C     C_2   0.563446 0.522770 0.012189 0.142443
C27   C     C_2   0.443856 0.518574 0.988305 0.137382
C28   C     C_2   0.918987 0.497805 0.521670 0.518140
H1    H     H_    0.253066 0.720535 0.665748 0.191588
H2    H     H_    0.310892 0.565816 0.137960 0.219592
H3    H     H_    0.231975 0.553165 0.036304 0.204977
H4    H     H_    0.742591 0.334128 0.953807 0.248198
H5    H     H_    0.663254 0.348851 0.852278 0.252288
H6    H     H_    0.840405 0.406968 0.834432 0.256374
H7    H     H_    0.702960 0.595619 0.869456 0.215264
H8    H     H_    0.780876 0.579250 0.969061 0.200424
H9    H     H_    0.652847 0.155134 0.676821 0.152387
H10   H     H_    0.572701 0.084282 0.799120 0.166344
H11   H     H_    0.494917 0.209693 0.757657 0.174777
H12   H     H_    0.124444 0.585377 0.720956 0.167502
H13   H     H_    0.263526 0.024686 0.457047 0.139624
H14   H     H_    0.267371 0.889689 0.536844 0.184428
H15   H     H_    0.269844 0.860988 0.405634 0.214469
H16   H     H_    0.218174 0.995434 0.723140 0.192786
H17   H     H_    0.138464 0.065437 0.637287 0.120502
H18   H     H_    0.105111 0.118333 0.768484 0.182357
H19   H     H_    0.780326 0.073655 0.487145 0.164159
H20   H     H_    0.850581 0.920544 0.438055 0.173636
H21   H     H_    0.879622 0.997936 0.552769 0.188923
H22   H     H_    0.944594 0.240237 0.512513 0.134994
H23   H     H_    0.083624 0.750381 0.728733 0.110722
H24   H     H_    0.081076 0.257307 0.574291 0.181251
H25   H     H_    0.097840 0.167571 0.454778 0.184706
H26   H     H_    0.880734 0.724524 0.539213 0.150138
H27   H     H_    0.882561 0.735202 0.671447 0.157115
H28   H     H_    0.727223 0.692979 0.643314 0.201241
H29   H     H_    0.806139 0.341636 0.269547 0.168476
H30   H     H_    0.788679 0.247941 0.383243 0.135999
H31   H     H_    0.939103 0.252077 0.280026 0.129712
H32   H     H_    0.241815 0.309930 0.022598 0.252225
H33   H     H_    0.321964 0.320753 0.126103 0.262738
H34   H     H_    0.150680 0.362519 0.149143 0.263668
N1    N     N_2   0.847200 0.448220 0.460120 0.032459
N2    N     N_2   0.152800 0.551780 0.539880 0.040342
O1    O     O_R   0.430150 0.692610 0.508030 -0.598192
O2    O     O_3   0.922495 0.423890 0.363869 -0.560745
O3    O     O_3   0.476131 0.024258 0.688266 -0.585452
O4    O     O_3   0.449976 0.952502 0.425076 -0.660266
O5    O     O_3   0.293386 0.188069 0.678736 -0.592380
O6    O     O_3   0.686447 0.907554 0.569413 -0.619927
O7    O     O_3   0.115879 0.367590 0.443514 -0.579319
O8    O     O_3   0.853118 0.544620 0.618136 -0.654702
O9    O     O_R   0.569850 0.307390 0.491970 -0.648497
O10   O     O_R   0.653100 0.659360 0.482430 -0.607818
O11   O     O_R   0.346900 0.340640 0.517570 -0.536882
O12   O     O_R   0.372470 0.518990 0.654990 -0.620781
O13   O     O_R   0.627530 0.481010 0.345010 -0.604194
O14   O     O_R   0.595430 0.485740 0.629390 -0.580646
O15   O     O_R   0.404570 0.514260 0.370610 -0.561982
O16   O     O_3   0.108819 0.663695 0.586273 -0.619999
Zn1   Zn    Zn3+2 0.351130 0.522200 0.517090 1.015525
Zn2   Zn    Zn3+2 0.648870 0.477800 0.482910 0.970480

loop_
_geom_bond_atom_site_label_1
_geom_bond_atom_site_label_2
_ccdc_geom_bond_type
C6    O5    S    
C9    H23   S    
C22   O12   A    
C21   H27   S    
C7    C8    S    
C13   H32   S    
C26   C27   D    
C1    C5    S    
C1    O10   A    
C10   H30   S    
C14   H8    S    
C21   H26   S    
C4    C24   T    
C19   H19   S    
O14   Zn2   S    
C17   H14   S    
C20   H22   S    
C7    O4    S    
C13   H34   S    
C11   H2    S    
C22   C25   S    
C1    O1    A    
C23   C24   S    
C20   O7    S    
C15   H6    S    
C9    H1    S    
C16   H9    S    
C18   O5    S    
N1    O2    S    
C11   H3    S    
C12   O9    A    
N2    O16   S    
C28   O8    S    
O10   Zn2   S    
C18   H18   S    
C2    N2    D    
C10   O2    S    
N1    Zn2   S    
C3    C25   T    
C10   H29   S    
C22   O14   A    
C14   H7    S    
O15   Zn1   S    
C19   H20   S    
O11   Zn1   S    
C6    C8    D    
C21   O8    S    
C9    H12   S    
C14   C26   S    
C9    O16   S    
C17   H15   S    
C5    O6    S    
C18   H16   S    
C19   H21   S    
O1    Zn1   S    
C11   C27   S    
C16   O3    S    
C23   O13   A    
C2    O7    S    
C18   H17   S    
O9    Zn2   S    
C5    C7    D    
C17   O4    S    
C20   H25   S    
C15   H4    S    
O12   Zn1   S    
C21   H28   S    
C4    C26   S    
C3    C27   S    
C10   H31   S    
C20   H24   S    
C6    C12   S    
C11   C13   S    
O13   Zn2   S    
C17   H13   S    
N2    Zn1   S    
C16   H11   S    
C28   N1    D    
C13   H33   S    
C8    O3    S    
C12   O11   A    
C14   C15   S    
C19   O6    S    
C2    C28   S    
C23   O15   A    
C15   H5    S    
C16   H10   S    
