data_mof_unit_37729.cif
_audit_creation_date              2013-03-05T15:56:47-0500
_audit_creation_method            fapswitch 2.2
_symmetry_space_group_name_H-M    P1
_symmetry_Int_Tables_number       1
_space_group_crystal_system       triclinic
_cell_length_a                    6.92895
_cell_length_b                    14.543455
_cell_length_c                    16.073881
_cell_angle_alpha                 90.000757
_cell_angle_beta                  90.460282
_cell_angle_gamma                 89.955148
_cell_volume                      1619.72625004

loop_
_atom_site_label
_atom_site_type_symbol
_atom_site_description
_atom_site_fract_x
_atom_site_fract_y
_atom_site_fract_z
_atom_type_partial_charge
O1    O     O_R   0.638180 0.333920 0.163320 -0.607754
O2    O     O_R   0.361820 0.666080 0.836680 -0.607746
O3    O     O_R   0.308470 0.344960 0.336080 -0.610976
O4    O     O_R   0.691530 0.655040 0.663920 -0.610978
O5    O     O_R   0.138140 0.166110 0.336680 -0.613911
O6    O     O_R   0.861860 0.833890 0.663320 -0.613902
C1    C     C_R   0.477834 0.367175 0.365048 0.934873
C2    C     C_R   0.522166 0.632824 0.634952 0.934868
O7    O     O_R   0.308460 0.344950 0.163930 -0.552978
O8    O     O_R   0.691540 0.655050 0.836070 -0.552977
O9    O     O_R   0.138140 0.166100 0.163310 -0.581899
O10   O     O_R   0.861860 0.833900 0.836690 -0.581877
C3    C     C_R   0.476716 0.367682 0.135379 1.013589
C4    C     C_R   0.523284 0.632318 0.864621 1.013598
O11   O     O_R   0.638180 0.333930 0.336700 -0.579188
O12   O     O_R   0.361820 0.666070 0.663300 -0.579190
O13   O     O_3   0.471670 0.191340 0.250000 -0.247561
O14   O     O_3   0.528330 0.808660 0.750000 -0.247528
V1    V     V_3+5 0.196830 0.260900 0.250000 1.231246
V2    V     V_3+5 0.803170 0.739100 0.750000 1.231258
O15   O     O_R   0.808420 0.155070 0.163920 -0.568672
O16   O     O_R   0.191580 0.844930 0.836080 -0.568616
C5    C     C_R   0.976552 0.132205 0.135522 0.980072
C6    C     C_R   0.023450 0.867799 0.864476 0.980028
O17   O     O_R   0.808420 0.155080 0.336070 -0.565533
O18   O     O_R   0.191580 0.844920 0.663930 -0.565560
C7    C     C_R   0.977980 0.133704 0.365151 0.987283
C8    C     C_R   0.022020 0.866296 0.634849 0.987249
V3    V     V_3+5 0.696830 0.239130 0.250000 1.257671
V4    V     V_3+5 0.303170 0.760870 0.750000 1.257672
O19   O     O_3   0.971850 0.308690 0.250010 -0.267709
O20   O     O_3   0.028150 0.691310 0.749990 -0.267708
C9    C     C_R   0.898579 0.185716 0.540103 0.421473
C10   C     C_R   0.101421 0.814283 0.459897 0.421481
C11   C     C_R   0.839430 0.207001 0.620558 -0.282290
C12   C     C_R   0.160577 0.792999 0.379442 -0.282313
C13   C     C_R   0.839393 0.140775 0.683251 0.366175
C14   C     C_R   0.160618 0.859225 0.316750 0.366238
C15   C     C_R   0.898696 0.051349 0.664196 -0.273164
C16   C     C_R   0.101311 0.948651 0.335804 -0.272992
C17   C     C_R   0.951326 0.025523 0.582391 0.028593
C18   C     C_R   0.048676 0.974476 0.417609 0.028543
C19   C     C_R   0.947216 0.093149 0.518030 -0.031223
C20   C     C_R   0.052784 0.906851 0.481970 -0.031229
C21   C     C_R   0.008472 0.933523 0.565125 -0.213236
C22   C     C_R   0.991528 0.066477 0.434874 -0.213243
H1    H     H_    0.799800 0.277346 0.634595 0.198433
H2    H     H_    0.200209 0.722654 0.365406 0.198438
H3    H     H_    0.901655 0.001914 0.714356 0.159016
H4    H     H_    0.098354 0.998086 0.285644 0.159034
C23   C     C_R   0.151684 0.007449 0.942708 0.404172
C24   C     C_R   0.848335 0.992560 0.057291 0.404230
C25   C     C_R   0.135074 0.070487 0.008358 -0.113589
C26   C     C_R   0.864930 0.929525 0.991639 -0.113690
H5    H     H_    0.240241 0.125362 0.013563 0.169414
H6    H     H_    0.759760 0.874651 0.986437 0.169374
C27   C     C_R   0.985057 0.064178 0.066385 -0.326340
C28   C     C_R   0.014955 0.935830 0.933612 -0.326299
C29   C     C_R   0.320286 0.470510 0.470274 -0.150937
C30   C     C_R   0.679713 0.529490 0.529725 -0.150935
H7    H     H_    0.179294 0.448575 0.448625 0.135060
H8    H     H_    0.820706 0.551425 0.551374 0.135060
C31   C     C_R   0.331098 0.534091 0.535523 -0.065742
C32   C     C_R   0.668902 0.465909 0.464477 -0.065741
H9    H     H_    0.198020 0.559251 0.562064 0.150039
H10   H     H_    0.801979 0.440749 0.437936 0.150038
C33   C     C_R   0.510947 0.564477 0.566150 -0.128101
C34   C     C_R   0.489053 0.435523 0.433850 -0.128103
C35   C     C_R   0.328636 0.494254 0.046853 0.576126
C36   C     C_R   0.671363 0.505746 0.953147 0.576125
C37   C     C_R   0.344309 0.557022 0.980496 -0.350424
C38   C     C_R   0.655690 0.442978 0.019504 -0.350414
H11   H     H_    0.223348 0.601761 0.966324 0.180164
H12   H     H_    0.776651 0.398239 0.033675 0.180163
C39   C     C_R   0.513925 0.563792 0.933406 -0.246508
C40   C     C_R   0.486075 0.436208 0.066594 -0.246497
N1    N     N_R   0.216807 0.835230 0.233348 0.267177
O21   O     O_R   0.212100 0.896150 0.174050 -0.355360
O22   O     O_R   0.273492 0.752141 0.215869 -0.371236
N2    N     N_R   0.783213 0.164770 0.766654 0.267174
O23   O     O_R   0.787926 0.103851 0.825952 -0.355409
O24   O     O_R   0.726530 0.247860 0.784134 -0.371194
O25   O     O_3   0.913548 0.258391 0.486013 -0.765209
H13   H     H_    0.051646 0.261712 0.470603 0.301954
O26   O     O_3   0.086449 0.741608 0.513986 -0.765206
H14   H     H_    0.948350 0.738289 0.529396 0.301957
N3    N     N_R   0.304216 0.019635 0.884292 0.234674
O27   O     O_R   0.307575 0.093292 0.838399 -0.356681
O28   O     O_R   0.459082 0.969453 0.890648 -0.353752
N4    N     N_R   0.695839 0.980375 0.115720 0.234721
O29   O     O_R   0.692843 0.906872 0.161814 -0.356817
O30   O     O_R   0.540797 0.030419 0.109283 -0.353740
O31   O     O_3   0.162458 0.490132 0.093696 -0.740418
H15   H     H_    0.067834 0.535662 0.072200 0.323128
O32   O     O_3   0.837542 0.509868 0.906304 -0.740417
H16   H     H_    0.932166 0.464337 0.927800 0.323130

loop_
_geom_bond_atom_site_label_1
_geom_bond_atom_site_label_2
_geom_bond_distance
_ccdc_geom_bond_type
C14   C16   1.398320 A    
N3    O27   1.300992 A    
C31   H9    1.082554 S    
O31   H15   0.991672 S    
O13   V3    1.708435 S    
C25   H5    1.083903 S    
C24   N4    1.430450 S    
O32   H16   0.991673 S    
O4    C2    1.300054 A    
V1    O19   1.706303 S    
C15   C17   1.417950 A    
N1    O21   1.301531 A    
O9    V1    1.999912 S    
C32   C34   1.407681 A    
C11   C13   1.393981 A    
C35   O31   1.382167 S    
C26   C28   1.405238 A    
O12   V4    2.004077 S    
C35   C40   1.412930 A    
C30   H8    1.082717 S    
C18   C22   1.423026 A    
C35   C37   1.408835 A    
O7    C3    1.299341 A    
C9    C11   1.394466 A    
C1    C34   1.488582 S    
O5    C7    1.293082 A    
O7    V1    2.006293 S    
O6    C8    1.293082 A    
C30   C33   1.406837 A    
O8    V2    2.006291 S    
O3    V1    1.997907 S    
O14   V4    1.708435 S    
C10   C12   1.394466 A    
C38   C40   1.406528 A    
C16   C18   1.417949 A    
C11   H1    1.083288 S    
C2    O12   1.297336 A    
C37   C39   1.406528 A    
C17   C19   1.427543 A    
C18   C20   1.427544 A    
O18   C8    1.298492 A    
C24   C26   1.403224 A    
O11   V3    2.004075 S    
C26   H6    1.083900 S    
N1    O22   1.301714 A    
O17   V3    1.996857 S    
C13   N2    1.441777 S    
C31   C33   1.407681 A    
C8    C21   1.489614 S    
C29   H7    1.082717 S    
C9    C19   1.432845 A    
C10   C20   1.432845 A    
C38   H12   1.083421 S    
O8    C4    1.299341 A    
C23   N3    1.430491 S    
C37   H11   1.083421 S    
C25   C27   1.405210 A    
C1    O11   1.297336 A    
O26   H14   0.991555 S    
O15   V3    2.005624 S    
C23   C25   1.403231 A    
C10   O26   1.373124 S    
C32   H10   1.082554 S    
C29   C34   1.406837 A    
N4    O30   1.300566 A    
O25   H13   0.991555 S    
C3    C40   1.490359 S    
V3    O19   2.158182 S    
O10   V2    1.999914 S    
O1    V3    1.999233 S    
C23   C28   1.415332 A    
C9    O25   1.373125 S    
C7    C22   1.489615 S    
N2    O24   1.301713 A    
C15   H3    1.080327 S    
O18   V4    1.996858 S    
N3    O28   1.300588 A    
O16   C6    1.297700 A    
O1    C3    1.298282 A    
C12   C14   1.393981 A    
C20   C21   1.427483 A    
V2    O20   1.706301 S    
C5    C27   1.489365 S    
O16   V4    2.005624 S    
C29   C31   1.399807 A    
N2    O23   1.301532 A    
O5    V1    2.004272 S    
C14   N1    1.441776 S    
O17   C7    1.298493 A    
O6    V2    2.004274 S    
O10   C6    1.299601 A    
O3    C1    1.300054 A    
C30   C32   1.399807 A    
O2    V4    1.999230 S    
C4    C39   1.490360 S    
O15   C5    1.297709 A    
C36   O32   1.382166 S    
C13   C15   1.398319 A    
V4    O20   2.158180 S    
N4    O29   1.300930 A    
C16   H4    1.080326 S    
O9    C5    1.299578 A    
O13   V1    2.155682 S    
C12   H2    1.083286 S    
O14   V2    2.155682 S    
O2    C4    1.298283 A    
C19   C22   1.427484 A    
C24   C27   1.415272 A    
O4    V2    1.997909 S    
C2    C33   1.488580 S    
C6    C28   1.489387 S    
C36   C39   1.412930 A    
C17   C21   1.423024 A    
C36   C38   1.408836 A    
