data_mof_unit_40698.cif
_audit_creation_date              2012-12-11T17:14:08-0500
_audit_creation_method            fapswitch 2.2
_symmetry_space_group_name_H-M    P1
_symmetry_Int_Tables_number       1
_space_group_crystal_system       triclinic
_cell_length_a                    18.223893
_cell_length_b                    7.170506
_cell_length_c                    12.920003
_cell_angle_alpha                 90.000154
_cell_angle_beta                  72.348871
_cell_angle_gamma                 90.0
_cell_volume                      1608.83026598

loop_
_atom_site_label
_atom_site_type_symbol
_atom_type_description
_atom_site_fract_x
_atom_site_fract_y
_atom_site_fract_z
_atom_type_partial_charge
O1    O     O_R   0.453880 0.506200 0.150010 -0.535560
O2    O     O_R   0.546120 0.006200 0.849990 -0.535560
O3    O     O_R   0.604080 0.177770 0.007280 -0.539671
O4    O     O_R   0.395920 0.677770 0.992720 -0.539671
C1    C     C_R   0.635779 0.344426 0.001866 0.727658
C2    C     C_R   0.364221 0.844426 0.998134 0.727659
O5    O     O_R   0.458010 0.176640 0.159130 -0.544002
O6    O     O_R   0.541990 0.676640 0.840870 -0.544002
O7    O     O_R   0.399010 0.004010 0.002930 -0.534767
O8    O     O_R   0.600990 0.504010 0.997070 -0.534766
C3    C     C_R   0.442747 0.344872 0.201754 0.717760
C4    C     C_R   0.557253 0.844871 0.798246 0.717760
O9    O     O_3   0.480810 0.338440 0.948570 -0.375143
O10   O     O_3   0.519190 0.838440 0.051430 -0.375143
V1    V     V_3+5 0.503560 0.064490 0.009540 1.427070
V2    V     V_3+5 0.496440 0.564490 0.990460 1.427071
C5    C     C_R   0.583240 0.840381 0.496669 0.370019
C6    C     C_R   0.416760 0.340382 0.503331 0.370022
H1    H     H_    0.486949 0.822285 0.645050 0.121136
H2    H     H_    0.513051 0.322290 0.354949 0.121137
H3    H     H_    0.665248 0.844454 0.286707 0.172693
H4    H     H_    0.334753 0.344457 0.713293 0.172693
C7    C     C_R   0.593420 0.851632 0.680489 -0.090071
C8    C     C_R   0.406580 0.351633 0.319510 -0.090072
C9    C     C_R   0.954871 0.866696 0.386440 -0.175853
C10   C     C_R   0.045129 0.366688 0.613560 -0.175853
C11   C     C_R   0.922938 0.867885 0.498647 -0.123526
C12   C     C_R   0.077062 0.367876 0.501352 -0.123525
C13   C     C_R   0.843246 0.865824 0.545710 -0.165044
C14   C     C_R   0.156754 0.365817 0.454290 -0.165045
C15   C     C_R   0.792925 0.862065 0.480779 0.097416
C16   C     C_R   0.207074 0.362063 0.519221 0.097416
C17   C     C_R   0.826327 0.859216 0.365754 0.074164
C18   C     C_R   0.173673 0.359216 0.634246 0.074164
C19   C     C_R   0.710861 0.859518 0.525899 0.015892
C20   C     C_R   0.289139 0.359517 0.474100 0.015894
C21   C     C_R   0.664335 0.849613 0.455057 0.067848
C22   C     C_R   0.335666 0.349613 0.544943 0.067847
C23   C     C_R   0.699213 0.849193 0.342450 -0.189136
C24   C     C_R   0.300787 0.349195 0.657550 -0.189136
C25   C     C_R   0.778456 0.854392 0.298666 -0.220450
C26   C     C_R   0.221544 0.354394 0.701334 -0.220450
C27   C     C_R   0.673413 0.863353 0.638982 -0.239405
C28   C     C_R   0.326587 0.363352 0.361018 -0.239406
C29   C     C_R   0.548579 0.838817 0.610387 -0.300470
C30   C     C_R   0.451421 0.338820 0.389613 -0.300473
C31   C     C_R   0.907355 0.862004 0.319604 -0.072180
C32   C     C_R   0.092645 0.362002 0.680396 -0.072180
H5    H     H_    0.704553 0.872647 0.697559 0.112350
H6    H     H_    0.295447 0.372645 0.302441 0.112350
H7    H     H_    0.016946 0.870066 0.351456 0.106062
H8    H     H_    0.983054 0.370056 0.648544 0.106062
H9    H     H_    0.823226 0.866520 0.633096 0.108130
H10   H     H_    0.176774 0.366510 0.366904 0.108130
H11   H     H_    0.960279 0.871059 0.549784 0.129528
H12   H     H_    0.039721 0.371046 0.450216 0.129528
H13   H     H_    0.801869 0.853195 0.210999 0.128952
H14   H     H_    0.198131 0.353198 0.789001 0.128952
C33   C     C_1   0.216289 0.858861 0.000222 -0.184612
C34   C     C_1   0.783711 0.358861 0.999778 -0.184612
C35   C     C_1   0.283664 0.852486 0.999001 -0.184133
C36   C     C_1   0.716336 0.352486 0.000999 -0.184133
O11   O     O_R   0.899030 0.205490 0.002790 -0.534391
O12   O     O_R   0.100970 0.705490 0.997210 -0.534391
O13   O     O_R   0.042000 0.536370 0.840840 -0.539004
O14   O     O_R   0.958000 0.036370 0.159160 -0.539004
C37   C     C_R   0.056579 0.368439 0.798270 0.679002
C38   C     C_R   0.943421 0.868440 0.201729 0.679002
O15   O     O_R   0.895930 0.535070 0.992690 -0.539187
O16   O     O_R   0.104070 0.035070 0.007310 -0.539187
O17   O     O_R   0.953870 0.707520 0.150040 -0.537102
O18   O     O_R   0.046130 0.207520 0.849960 -0.537102
C39   C     C_R   0.864312 0.366836 0.998704 0.724906
C40   C     C_R   0.135688 0.866836 0.001296 0.724906
O19   O     O_3   0.019200 0.374340 0.051340 -0.375593
O20   O     O_3   0.980800 0.874340 0.948660 -0.375593
V3    V     V_3+5 0.996440 0.648350 0.990470 1.421290
V4    V     V_3+5 0.003560 0.148350 0.009530 1.421290
O21   O     O_3   0.541344 0.811309 0.423548 -0.595113
C41   C     C_3   0.471113 0.910090 0.449584 0.022527
H15   H     H_    0.470171 0.985817 0.375401 0.167808
H16   H     H_    0.464152 0.009301 0.516229 0.188709
C42   C     C_3   0.402707 0.778199 0.479880 -0.338399
H17   H     H_    0.406224 0.689211 0.408855 0.227939
H18   H     H_    0.404723 0.693906 0.550734 0.201959
C43   C     C_3   0.325895 0.880579 0.509852 -0.797341
H19   H     H_    0.318724 0.965868 0.583870 0.242092
H20   H     H_    0.278202 0.777597 0.527226 0.237192
H21   H     H_    0.322414 0.970283 0.441520 0.240048
O22   O     O_3   0.458657 0.311310 0.576452 -0.595112
C44   C     C_3   0.528888 0.410089 0.550415 0.022531
H22   H     H_    0.529832 0.485809 0.624599 0.167806
H23   H     H_    0.535846 0.509305 0.483774 0.188711
C45   C     C_3   0.597294 0.278196 0.520111 -0.338402
H24   H     H_    0.593781 0.189208 0.591134 0.227936
H25   H     H_    0.595273 0.193902 0.449258 0.201960
C46   C     C_3   0.674106 0.380576 0.490129 -0.797340
H26   H     H_    0.681272 0.465867 0.416113 0.242091
H27   H     H_    0.721800 0.277593 0.472746 0.237193
H28   H     H_    0.677593 0.470277 0.558458 0.240048

loop_
_geom_bond_atom_site_label_1
_geom_bond_atom_site_label_2
_ccdc_geom_bond_type
O14   C38   A    
C7    C29   A    
C11   C13   A    
O12   V3    S    
C3    C8    S    
O15   V3    S    
O1    C3    A    
O2    C4    A    
C26   H14   S    
C2    O7    A    
C46   H26   S    
C12   H12   S    
C23   C25   A    
O5    C3    A    
C14   H10   S    
C4    C7    S    
C16   C20   A    
C2    C35   S    
C19   C21   A    
C5    C29   A    
C11   H11   S    
O16   V4    S    
C34   C39   S    
C5    O21   S    
C7    C27   A    
C34   C36   T    
C37   O18   A    
O18   V4    S    
O13   C37   A    
C18   C26   A    
O16   C40   A    
C15   C17   A    
O15   C39   A    
C19   C27   A    
C9    C31   A    
C10   C32   A    
C24   C26   A    
O6    V2    S    
C22   C24   A    
C41   C42   S    
C6    C30   A    
C46   H27   S    
O14   V4    S    
C33   C35   T    
O13   V3    S    
C6    O22   S    
O20   V3    S    
C41   H16   S    
C44   H22   S    
C43   H19   S    
C27   H5    S    
O5    V1    S    
O11   C39   A    
C45   C46   S    
C16   C18   A    
O4    V2    S    
C9    H7    S    
C10   H8    S    
C44   H23   S    
C42   H17   S    
H3    C23   S    
O6    C4    A    
H4    C24   S    
O1    V2    S    
C5    C21   A    
C45   H25   S    
O2    V1    S    
O19   V3    S    
C33   C40   S    
O4    C2    A    
C42   H18   S    
C17   C31   A    
C15   C19   A    
C20   C28   A    
C18   C32   A    
C31   C38   S    
O17   V3    S    
C46   H28   S    
O3    V1    S    
C28   H6    S    
O20   V4    S    
C41   H15   S    
O3    C1    A    
C43   H21   S    
H1    C29   S    
C9    C11   A    
C10   C12   A    
C17   C25   A    
C20   C22   A    
C6    C22   A    
C8    C30   A    
C1    O8    A    
C21   C23   A    
O8    V2    S    
C44   C45   S    
C14   C16   A    
O22   C44   S    
C13   H9    S    
C38   O17   A    
C8    C28   A    
C12   C14   A    
C1    C36   S    
C43   H20   S    
C32   C37   S    
O7    V1    S    
C45   H24   S    
O19   V4    S    
C25   H13   S    
O21   C41   S    
C42   C43   S    
C13   C15   A    
O9    V2    S    
O12   C40   A    
O10   V1    S    
H2    C30   S    
O11   V4    S    
