data_mof_unit_11733.cif
_audit_creation_date              2013-03-05T15:50:44-0500
_audit_creation_method            fapswitch 2.2
_symmetry_space_group_name_H-M    P1
_symmetry_Int_Tables_number       1
_space_group_crystal_system       triclinic
_cell_length_a                    22.893313
_cell_length_b                    7.248907
_cell_length_c                    20.778888
_cell_angle_alpha                 89.997778
_cell_angle_beta                  93.249843
_cell_angle_gamma                 89.998937
_cell_volume                      3442.74211658

loop_
_atom_site_label
_atom_site_type_symbol
_atom_site_description
_atom_site_fract_x
_atom_site_fract_y
_atom_site_fract_z
_atom_type_partial_charge
O1    O     O_R   0.438030 0.494310 0.439340 -0.553562
O2    O     O_R   0.561970 0.994310 0.560660 -0.555566
O3    O     O_R   0.556900 0.822900 0.435960 -0.594155
O4    O     O_R   0.443100 0.322900 0.564040 -0.593705
C1    C     C_R   0.575772 0.655637 0.421219 0.985968
C2    C     C_R   0.424232 0.155635 0.578786 0.987328
O5    O     O_R   0.438170 0.823950 0.431660 -0.596215
O6    O     O_R   0.561830 0.323950 0.568340 -0.597477
O7    O     O_R   0.442390 0.995390 0.556340 -0.582088
O8    O     O_R   0.557610 0.495390 0.443660 -0.581916
C3    C     C_R   0.418094 0.655771 0.416116 0.975208
C4    C     C_R   0.581963 0.155774 0.583836 0.976303
O9    O     O_3   0.501520 0.661170 0.540910 -0.261576
O10   O     O_3   0.498480 0.161170 0.459090 -0.260597
V1    V     V_3+5 0.499720 0.935580 0.492410 1.243955
V2    V     V_3+5 0.500280 0.435580 0.507590 1.243921
C5    C     C_R   0.825044 0.953494 0.863649 -0.155791
C6    C     C_R   0.174282 0.451201 0.137370 -0.193482
C7    C     C_R   0.870218 0.083912 0.865583 -0.164911
C8    C     C_R   0.129652 0.583599 0.134693 -0.159315
C9    C     C_R   0.868471 0.227280 0.820203 -0.113458
C10   C     C_R   0.131928 0.728616 0.179474 -0.116830
C11   C     C_R   0.822008 0.242568 0.772846 -0.078711
C12   C     C_R   0.177679 0.741254 0.227789 -0.073351
C13   C     C_R   0.776349 0.111326 0.771423 0.050989
C14   C     C_R   0.223601 0.610970 0.228786 0.062640
C15   C     C_R   0.778027 0.967292 0.817517 0.228733
C16   C     C_R   0.221658 0.466117 0.183006 0.239916
C17   C     C_R   0.820934 0.384356 0.726432 0.205418
C18   C     C_R   0.179061 0.884060 0.273864 0.199740
C19   C     C_R   0.775246 0.393601 0.678133 0.237355
C20   C     C_R   0.226181 0.898148 0.320354 0.237082
C21   C     C_R   0.728081 0.264327 0.676816 -0.070234
C22   C     C_R   0.272923 0.767409 0.322020 -0.070772
C23   C     C_R   0.728936 0.123572 0.724399 -0.017663
C24   C     C_R   0.271598 0.625192 0.274985 -0.030718
C25   C     C_R   0.682438 0.994403 0.725641 0.061123
C26   C     C_R   0.318064 0.495924 0.273717 0.067210
C27   C     C_R   0.684877 0.854417 0.772857 -0.120003
C28   C     C_R   0.315366 0.355137 0.226805 -0.103275
C29   C     C_R   0.732347 0.839714 0.817431 -0.222749
C30   C     C_R   0.267488 0.339069 0.182824 -0.237336
C31   C     C_R   0.679996 0.272625 0.630106 0.042154
C32   C     C_R   0.320136 0.772170 0.369835 0.054595
C33   C     C_R   0.632330 0.147400 0.632905 -0.336459
C34   C     C_R   0.367953 0.647749 0.366808 -0.338070
C35   C     C_R   0.633902 0.008738 0.680812 0.295105
C36   C     C_R   0.366645 0.510274 0.318504 0.305696
H1    H     H_    0.825928 0.843153 0.898946 0.123806
H2    H     H_    0.173075 0.339695 0.102519 0.121004
H3    H     H_    0.904440 0.324281 0.821513 0.175547
H4    H     H_    0.097428 0.830791 0.176344 0.173339
H5    H     H_    0.650118 0.754412 0.775978 0.170573
H6    H     H_    0.350153 0.255233 0.223623 0.167932
H7    H     H_    0.732905 0.729163 0.852588 0.127994
H8    H     H_    0.266724 0.227879 0.147909 0.125403
C37   C     C_3   0.247670 0.273789 0.808364 -0.122265
C38   C     C_3   0.752376 0.773853 0.191691 -0.122561
C39   C     C_3   0.244453 0.926222 0.792578 -0.520969
C40   C     C_3   0.755560 0.426264 0.207434 -0.521040
C41   C     C_3   0.298461 0.950002 0.750195 -0.125210
C42   C     C_3   0.701555 0.450040 0.249822 -0.125434
H9    H     H_    0.216628 0.808135 0.775558 0.164116
H10   H     H_    0.783374 0.308127 0.224438 0.164624
H11   H     H_    0.259760 0.890923 0.842807 0.169027
H12   H     H_    0.740248 0.391042 0.157201 0.169066
H13   H     H_    0.337831 0.962801 0.783587 0.138569
H14   H     H_    0.662185 0.462895 0.216432 0.138644
C43   C     C_1   0.378625 0.147395 0.624360 -0.234374
C44   C     C_1   0.621390 0.647395 0.375658 -0.232649
C45   C     C_3   0.206795 0.105408 0.791043 0.306905
C46   C     C_3   0.793234 0.605409 0.208992 0.305872
C47   C     C_3   0.293520 0.299367 0.755326 -0.224350
C48   C     C_3   0.706522 0.799404 0.244725 -0.224135
C49   C     C_3   0.292362 0.129354 0.708315 0.270997
C50   C     C_3   0.707667 0.629345 0.291719 0.270086
C51   C     C_3   0.230652 0.123566 0.671052 -0.196095
C52   C     C_3   0.769376 0.623469 0.328985 -0.196893
C53   C     C_3   0.180218 0.127061 0.720205 -0.206846
C54   C     C_3   0.819813 0.626949 0.279834 -0.208226
C55   C     C_1   0.340072 0.140112 0.662130 -0.014294
C56   C     C_1   0.659952 0.640103 0.337898 -0.012837
C57   C     C_1   0.159384 0.091337 0.837298 -0.011662
C58   C     C_1   0.840641 0.591340 0.162731 -0.009225
C59   C     C_1   0.121014 0.082787 0.875287 -0.261958
C60   C     C_1   0.879001 0.582787 0.124731 -0.259314
H15   H     H_    0.152115 0.003884 0.709577 0.147207
H16   H     H_    0.847898 0.503720 0.290448 0.149560
H17   H     H_    0.220094 0.400260 0.808542 0.116023
H18   H     H_    0.779964 0.900297 0.191535 0.116363
H19   H     H_    0.278527 0.420386 0.726626 0.122336
H20   H     H_    0.721516 0.920388 0.273440 0.122318
H21   H     H_    0.227215 0.988570 0.645723 0.150573
H22   H     H_    0.772799 0.488453 0.354307 0.153587
O11   O     O_R   0.942420 0.735670 0.056390 -0.585207
O12   O     O_R   0.057580 0.235670 0.943610 -0.586006
O13   O     O_R   0.061840 0.404850 0.068350 -0.580377
O14   O     O_R   0.938160 0.904850 0.931650 -0.572279
C61   C     C_R   0.081265 0.573511 0.084352 0.923119
C62   C     C_R   0.918729 0.073524 0.915698 0.921283
O15   O     O_R   0.943100 0.406010 0.064050 -0.583641
O16   O     O_R   0.056900 0.906010 0.935950 -0.583657
O17   O     O_R   0.938020 0.234710 0.939330 -0.594733
O18   O     O_R   0.061980 0.734710 0.060670 -0.598366
C63   C     C_R   0.924403 0.574345 0.078855 0.960362
C64   C     C_R   0.075600 0.074346 0.921149 0.955685
O19   O     O_3   0.998500 0.567790 0.959120 -0.277767
O20   O     O_3   0.001500 0.067790 0.040880 -0.282546
V3    V     V_3+5 0.000280 0.293330 0.007580 1.184501
V4    V     V_3+5 0.999720 0.793330 0.992420 1.189094
N1    N     N_3   0.274607 0.256131 0.874038 -0.211554
H23   H     H_    0.307530 0.156317 0.875834 0.121554
H24   H     H_    0.293926 0.382056 0.887609 0.120465
N2    N     N_3   0.725446 0.756314 0.126011 -0.211594
H25   H     H_    0.692517 0.656522 0.124193 0.121701
H26   H     H_    0.706136 0.882272 0.112458 0.120514
N3    N     N_3   0.307835 0.787761 0.709929 -0.202826
H27   H     H_    0.327772 0.686824 0.739360 0.122737
H28   H     H_    0.268139 0.734642 0.690773 0.100498
N4    N     N_3   0.692173 0.287761 0.290070 -0.202509
H29   H     H_    0.672254 0.186845 0.260620 0.122625
H30   H     H_    0.731866 0.234639 0.309236 0.101584
N5    N     N_3   0.141513 0.288784 0.714072 -0.197616
H31   H     H_    0.117564 0.283587 0.669763 0.145126
H32   H     H_    0.165304 0.411565 0.716144 0.105524
N6    N     N_3   0.858540 0.788608 0.285987 -0.193605
H33   H     H_    0.882485 0.783332 0.330298 0.149923
H34   H     H_    0.834768 0.911427 0.283924 0.106050
N7    N     N_3   0.224879 0.262867 0.619552 -0.195969
H35   H     H_    0.224590 0.397003 0.637526 0.106075
H36   H     H_    0.185749 0.240802 0.592213 0.156387
N8    N     N_3   0.775159 0.762725 0.380495 -0.193839
H37   H     H_    0.775471 0.896873 0.362530 0.106286
H38   H     H_    0.814280 0.740578 0.407842 0.160255
N9    N     N_R   0.866454 0.520918 0.727665 0.255364
O21   O     O_R   0.898236 0.541924 0.678237 -0.314374
O22   O     O_R   0.873446 0.633101 0.776350 -0.403831
N10   N     N_R   0.132347 0.016374 0.274179 0.256010
O23   O     O_R   0.143341 0.191684 0.269096 -0.346465
O24   O     O_R   0.079681 0.963067 0.285690 -0.361151
N11   N     N_R   0.776866 0.540464 0.632141 0.260878
O25   O     O_R   0.764676 0.708006 0.649311 -0.372809
O26   O     O_R   0.800046 0.512207 0.577252 -0.349779
N12   N     N_R   0.225651 0.048174 0.365243 0.261872
O27   O     O_R   0.186138 0.053987 0.407812 -0.336670
O28   O     O_R   0.258868 0.191132 0.357493 -0.384808
N13   N     N_3   0.680887 0.403422 0.578240 -0.157383
H39   H     H_    0.673285 0.335716 0.534123 0.105422
H40   H     H_    0.649141 0.504507 0.584068 0.188229
N14   N     N_3   0.317219 0.893989 0.424114 -0.160073
H41   H     H_    0.323818 0.818993 0.466901 0.094315
H42   H     H_    0.349069 0.996459 0.421682 0.193732
N15   N     N_R   0.585129 0.885492 0.685064 0.228581
O29   O     O_R   0.533864 0.949983 0.697192 -0.425732
O30   O     O_R   0.590810 0.711391 0.671536 -0.406539
N16   N     N_R   0.415194 0.386037 0.314588 0.227430
O31   O     O_R   0.409185 0.212442 0.328727 -0.393560
O32   O     O_R   0.466665 0.449469 0.302784 -0.429083
N17   N     N_3   0.352376 0.346137 0.782900 -0.215859
H43   H     H_    0.377306 0.399295 0.746561 0.131407
H44   H     H_    0.374528 0.230182 0.801117 0.120399
N18   N     N_3   0.647670 0.846230 0.217148 -0.215882
H45   H     H_    0.622734 0.899339 0.253490 0.131218
H46   H     H_    0.625517 0.730312 0.198907 0.120288

loop_
_geom_bond_atom_site_label_1
_geom_bond_atom_site_label_2
_geom_bond_distance
_ccdc_geom_bond_type
C2    C43   1.450016 S    
C26   C28   1.410253 A    
C19   N11   1.432478 S    
N6    H33   1.045217 S    
C18   N10   1.436817 S    
N13   H39   1.045685 S    
O1    C3    1.336415 A    
O2    C4    1.336566 A    
C2    O7    1.327276 A    
C53   H15   1.115295 S    
N2    H25   1.043926 S    
N5    H31   1.045214 S    
C27   C29   1.391421 A    
C27   H5    1.081119 S    
C41   C49   1.566254 S    
O5    C3    1.336043 A    
C38   C48   1.575386 S    
C37   H17   1.113234 S    
C17   N9    1.436523 S    
O14   V4    2.008052 S    
C11   C17   1.408661 A    
N16   O31   1.301265 A    
N13   H40   1.043921 S    
C58   C60   1.215379 T    
N7    H35   1.041769 S    
N3    H28   1.044794 S    
C52   C54   1.584498 S    
N5    H32   1.043072 S    
C40   C46   1.558267 S    
C48   H20   1.104447 S    
O20   V3    1.774890 S    
C40   C42   1.567629 S    
C37   C47   1.575389 S    
C52   N8    1.471774 S    
C29   H7    1.083940 S    
O11   C63   1.333194 A    
C30   H8    1.083931 S    
C45   C57   1.493504 S    
N1    H23   1.043923 S    
C32   C34   1.422511 A    
N8    H37   1.041770 S    
C15   C29   1.395968 A    
N17   H44   1.041722 S    
C31   N13   1.436404 S    
C25   C35   1.412720 A    
C42   N4    1.466166 S    
C26   C36   1.412965 A    
C33   C35   1.413650 A    
C61   O18   1.333343 A    
C36   N16   1.436395 S    
C40   H12   1.111799 S    
O6    V2    2.007976 S    
O17   V3    1.998555 S    
C17   C19   1.409514 A    
C47   C49   1.571908 S    
C42   C50   1.566256 S    
C45   C53   1.568413 S    
C14   C16   1.415876 A    
O13   C61   1.336549 A    
N4    H30   1.044792 S    
N18   H46   1.041719 S    
C51   C53   1.584472 S    
O15   C63   1.334837 A    
C34   C36   1.413543 A    
C39   C41   1.567646 S    
C41   N3    1.466173 S    
C5    C15   1.403719 A    
N9    O21   1.300845 A    
C6    C16   1.403809 A    
C47   H19   1.104435 S    
O4    C2    1.328752 A    
C50   C56   1.496303 S    
C48   N18   1.473506 S    
C49   C55   1.496300 S    
O5    V1    2.008038 S    
C35   N15   1.436646 S    
C53   N5    1.470657 S    
C62   O17   1.332987 A    
C32   N14   1.436993 S    
C46   C54   1.568426 S    
N11   O26   1.301154 A    
C20   C22   1.428351 A    
O4    V2    1.982590 S    
C1    C44   1.450018 S    
N14   H42   1.044107 S    
O13   V3    2.008113 S    
C41   H13   1.109737 S    
N17   H43   1.045585 S    
O6    C4    1.336203 A    
C19   C21   1.428798 A    
C22   C32   1.426458 A    
N1    H24   1.046067 S    
O1    V2    1.998535 S    
C51   N7    1.471778 S    
C37   C45   1.567444 S    
O2    V1    1.998569 S    
C49   C51   1.572616 S    
C46   C58   1.493510 S    
C48   C50   1.571901 S    
C38   H18   1.113232 S    
N8    H38   1.045501 S    
N12   O28   1.300772 A    
C57   C59   1.215382 T    
C13   C23   1.421472 A    
C28   H6    1.081216 S    
C9    C11   1.411881 A    
O19   V4    1.774940 S    
C10   C12   1.412138 A    
O16   V4    1.982852 S    
C60   C63   1.450905 S    
N15   O30   1.301089 A    
C8    C10   1.402907 A    
C5    H1    1.084604 S    
C59   C64   1.450907 S    
N10   O24   1.301141 A    
C9    H3    1.081988 S    
O3    V1    1.982609 S    
N4    H29   1.042101 S    
C6    H2    1.084574 S    
C10   H4    1.082009 S    
N18   H45   1.045585 S    
C14   C24   1.421254 A    
N9    O22   1.300758 A    
O12   C64   1.333201 A    
C18   C20   1.410365 A    
N6    H34   1.043071 S    
C7    C9    1.402302 A    
N14   H41   1.045715 S    
C39   H9    1.112695 S    
C12   C14   1.412489 A    
C50   C52   1.572631 S    
C28   C30   1.391592 A    
O3    C1    1.328758 A    
O11   V4    1.964686 S    
N2    H26   1.046067 S    
C7    C62   1.480635 S    
C4    C33   1.496489 S    
C13   C15   1.415871 A    
O12   V3    1.964696 S    
C47   N17   1.473497 S    
O14   C62   1.336412 A    
C42   H14   1.109734 S    
C40   H10   1.112699 S    
N16   O32   1.301100 A    
O7    V1    1.967966 S    
C23   C25   1.419040 A    
C25   C27   1.410344 A    
O8    V2    1.967953 S    
N3    H27   1.042103 S    
C39   H11   1.111799 S    
C24   C26   1.418972 A    
O18   V4    1.998517 S    
C51   H21   1.111825 S    
C38   C46   1.567440 S    
C37   N1    1.470870 S    
C8    C61   1.481644 S    
C54   N6    1.470661 S    
C52   H22   1.111822 S    
C16   C30   1.396219 A    
C21   C23   1.420107 A    
C22   C24   1.419725 A    
O16   C64   1.334837 A    
C6    C8    1.400584 A    
C11   C13   1.412478 A    
C44   C56   1.215026 T    
C12   C18   1.409191 A    
C20   N12   1.433253 S    
C43   C55   1.215026 T    
N10   O23   1.300945 A    
C5    C7    1.400087 A    
N12   O27   1.301231 A    
C1    O8    1.327263 A    
C54   H16   1.115297 S    
O9    V2    1.775435 S    
C38   N2    1.470875 S    
O10   V1    1.775384 S    
C3    C34   1.495809 S    
N15   O29   1.301131 A    
N11   O25   1.300576 A    
C21   C31   1.427008 A    
O15   V3    1.982872 S    
C31   C33   1.423162 A    
C39   C45   1.558275 S    
N7    H36   1.045494 S    
