data_mof_unit_45261.cif
_audit_creation_date              2012-12-10T19:25:54-0500
_audit_creation_method            fapswitch 2.2
_symmetry_space_group_name_H-M    P1
_symmetry_Int_Tables_number       1
_space_group_crystal_system       triclinic
_cell_length_a                    9.894706
_cell_length_b                    10.731528
_cell_length_c                    17.126682
_cell_angle_alpha                 89.874289
_cell_angle_beta                  86.015099
_cell_angle_gamma                 90.728784
_cell_volume                      1814.05006419

loop_
_atom_site_label
_atom_site_type_symbol
_atom_type_description
_atom_site_fract_x
_atom_site_fract_y
_atom_site_fract_z
_atom_type_partial_charge
C1    C     C_R   0.500749 0.742095 0.499488 0.906983
C2    C     C_3   0.614086 0.962013 0.462089 0.560373
C3    C     C_3   0.953640 0.611386 0.497251 0.566003
C4    C     C_3   0.046360 0.388614 0.502749 0.566005
C5    C     C_3   0.055096 0.551786 0.437768 0.089031
C6    C     C_3   0.944904 0.448214 0.562232 0.089027
C7    C     C_3   0.042562 0.560095 0.559729 0.026782
C8    C     C_3   0.957438 0.439905 0.440271 0.026780
C9    C     C_R   0.482623 0.504252 0.651726 0.925613
C10   C     C_R   0.517377 0.495749 0.348274 0.925604
C11   C     C_R   0.478896 0.504591 0.736731 -0.291320
C12   C     C_R   0.499251 0.257905 0.500512 0.906988
C13   C     C_R   0.521102 0.495417 0.263269 -0.291300
C14   C     C_R   0.585422 0.563272 0.774698 0.035636
C15   C     C_R   0.414574 0.436737 0.225302 0.035655
C16   C     C_R   0.605155 0.531085 0.851887 0.507432
C17   C     C_R   0.394829 0.468935 0.148117 0.507390
C18   C     C_R   0.507155 0.458013 0.894302 -0.289860
C19   C     C_R   0.492819 0.542022 0.105704 -0.289862
C20   C     C_R   0.390415 0.415498 0.860312 0.365551
C21   C     C_R   0.609562 0.584537 0.139692 0.365584
C22   C     C_R   0.381049 0.431134 0.779690 0.355118
C23   C     C_3   0.393029 0.957543 0.463342 0.059969
C24   C     C_R   0.618940 0.568884 0.220311 0.355104
C25   C     C_2   0.515001 0.448295 0.979081 0.577665
C26   C     C_2   0.484971 0.551743 0.020925 0.577665
C27   C     C_3   0.674733 0.665598 0.737233 -0.786756
C28   C     C_3   0.325279 0.334397 0.262765 -0.786757
C29   C     C_3   0.926711 0.812809 0.540864 -0.270857
C30   C     C_3   0.073281 0.187189 0.459139 -0.270866
C31   C     C_3   0.094003 0.616799 0.633843 -0.836919
C32   C     C_3   0.905997 0.383202 0.366157 -0.836918
C33   C     C_3   0.706464 0.745307 0.270581 -0.200546
C34   C     C_3   0.606970 0.042457 0.536661 0.059970
C35   C     C_3   0.293532 0.254702 0.729428 -0.200522
C36   C     C_3   0.423753 0.762268 0.032662 -0.294377
C37   C     C_3   0.576174 0.237758 0.967355 -0.294371
C38   C     C_3   0.175699 0.429234 0.916374 -0.228628
C39   C     C_3   0.824283 0.570831 0.083628 -0.228594
C40   C     C_3   0.176593 0.493367 0.118486 -0.367746
C41   C     C_3   0.823377 0.506613 0.881529 -0.367738
C42   C     C_3   0.510090 0.086791 0.341368 -0.914015
C43   C     C_3   0.489908 0.913205 0.658633 -0.914001
C44   C     C_3   0.278042 0.909161 0.416959 -0.872177
C45   C     C_3   0.506616 0.042089 0.425850 0.026667
C46   C     C_3   0.721955 0.090839 0.583044 -0.872182
C47   C     C_3   0.195341 0.992815 0.620177 -0.362495
C48   C     C_3   0.804658 0.007187 0.379827 -0.362498
C49   C     C_3   0.119857 0.613805 0.364505 -0.810476
C50   C     C_3   0.880144 0.386191 0.635494 -0.810471
C51   C     C_3   0.493383 0.957911 0.574152 0.026662
C52   C     C_3   0.498576 0.122802 0.500510 -0.221740
C53   C     C_3   0.501423 0.877198 0.499493 -0.221743
C54   C     C_3   0.385913 0.037987 0.537913 0.560379
H1    H     H_    0.663276 0.751149 0.773303 0.250401
H2    H     H_    0.138510 0.207697 0.405094 0.161339
H3    H     H_    0.965151 0.186355 0.448147 0.125182
H4    H     H_    0.093410 0.091968 0.479231 0.218013
H5    H     H_    0.127789 0.541691 0.672059 0.304851
H6    H     H_    0.011618 0.667248 0.666926 0.198835
H7    H     H_    0.180144 0.681290 0.618741 0.244528
H8    H     H_    0.988382 0.332753 0.333073 0.198835
H9    H     H_    0.819856 0.318710 0.381258 0.244528
H10   H     H_    0.872211 0.458309 0.327941 0.304847
H11   H     H_    0.617946 0.758718 0.313366 0.161823
H12   H     H_    0.782635 0.639237 0.734675 0.229110
H13   H     H_    0.693140 0.798631 0.215930 0.155740
H14   H     H_    0.797849 0.783306 0.296281 0.227397
H15   H     H_    0.202153 0.216698 0.703724 0.227392
H16   H     H_    0.306847 0.201386 0.784083 0.155740
H17   H     H_    0.382058 0.241286 0.686648 0.161803
H18   H     H_    0.522328 0.794424 0.053078 0.215336
H19   H     H_    0.349330 0.743013 0.082967 0.134391
H20   H     H_    0.383317 0.839858 0.998713 0.189806
H21   H     H_    0.650542 0.256978 0.917017 0.134406
H22   H     H_    0.477561 0.205609 0.946989 0.215373
H23   H     H_    0.648863 0.689988 0.677509 0.233584
H24   H     H_    0.616640 0.160177 0.001298 0.189803
H25   H     H_    0.123753 0.439499 0.861381 0.182613
H26   H     H_    0.202507 0.522630 0.939355 0.163095
H27   H     H_    0.102255 0.384309 0.959836 0.172724
H28   H     H_    0.797488 0.477411 0.060678 0.163080
H29   H     H_    0.876264 0.560621 0.138613 0.182620
H30   H     H_    0.897694 0.615741 0.040141 0.172739
H31   H     H_    0.191795 0.575536 0.079305 0.167445
H32   H     H_    0.153089 0.524454 0.179820 0.156997
H33   H     H_    0.086815 0.440804 0.100531 0.182811
H34   H     H_    0.336742 0.248851 0.226690 0.250404
H35   H     H_    0.846855 0.475472 0.820201 0.156983
H36   H     H_    0.808163 0.424475 0.920739 0.167514
H37   H     H_    0.913177 0.559177 0.899458 0.182788
H38   H     H_    0.544027 0.010282 0.301528 0.243468
H39   H     H_    0.406588 0.111373 0.327400 0.248047
H40   H     H_    0.578934 0.168792 0.332409 0.238097
H41   H     H_    0.455977 0.989714 0.698475 0.243469
H42   H     H_    0.421061 0.831208 0.667592 0.238095
H43   H     H_    0.593409 0.888617 0.672600 0.248045
H44   H     H_    0.225417 0.987274 0.390485 0.226402
H45   H     H_    0.351161 0.310004 0.322486 0.233580
H46   H     H_    0.321689 0.850795 0.368439 0.234671
H47   H     H_    0.205038 0.854281 0.455303 0.255780
H48   H     H_    0.678307 0.149207 0.631564 0.234672
H49   H     H_    0.774579 0.012727 0.609520 0.226402
H50   H     H_    0.794961 0.145718 0.544701 0.255779
H51   H     H_    0.219244 0.997042 0.682378 0.171006
H52   H     H_    0.215825 0.897234 0.598182 0.159851
H53   H     H_    0.085499 0.010711 0.618241 0.188128
H54   H     H_    0.784171 0.102769 0.401821 0.159853
H55   H     H_    0.780758 0.002960 0.317625 0.171006
H56   H     H_    0.217374 0.360747 0.265331 0.229100
H57   H     H_    0.914500 0.989293 0.381763 0.188129
H58   H     H_    0.155398 0.542227 0.322079 0.235864
H59   H     H_    0.045139 0.673447 0.337326 0.248909
H60   H     H_    0.207631 0.670254 0.379801 0.256112
H61   H     H_    0.954859 0.326539 0.662668 0.248914
H62   H     H_    0.844616 0.457767 0.677925 0.235862
H63   H     H_    0.792362 0.329752 0.620199 0.256115
H64   H     H_    0.034840 0.813647 0.551859 0.125179
H65   H     H_    0.861478 0.792295 0.594906 0.161338
H66   H     H_    0.906580 0.908030 0.520774 0.218014
N1    N     N_3   0.136700 0.499970 0.500060 -0.141255
N2    N     N_3   0.863300 0.500030 0.499940 -0.141258
O1    O     O_R   0.383390 0.686040 0.500000 -0.646731
O2    O     O_3   0.100902 0.271290 0.518506 -0.538161
O3    O     O_3   0.728565 0.618048 0.255991 -0.608825
O4    O     O_3   0.271429 0.381963 0.744009 -0.608811
O5    O     O_3   0.440719 0.658144 0.982933 -0.637947
O6    O     O_3   0.559291 0.341907 0.017070 -0.637986
O7    O     O_3   0.290060 0.352424 0.905572 -0.586847
O8    O     O_3   0.709907 0.647622 0.094431 -0.586833
O9    O     O_3   0.289483 0.414386 0.110735 -0.556782
O10   O     O_3   0.710510 0.585622 0.889266 -0.556772
O11   O     O_3   0.268240 0.086769 0.576948 -0.566330
O12   O     O_R   0.616610 0.313960 0.500000 -0.646734
O13   O     O_3   0.731759 0.913232 0.423054 -0.566335
O14   O     O_R   0.616650 0.686050 0.499970 -0.540520
O15   O     O_R   0.383350 0.313950 0.500030 -0.540515
O16   O     O_R   0.369590 0.500020 0.615820 -0.566111
O17   O     O_R   0.630410 0.499980 0.384180 -0.566110
O18   O     O_R   0.602840 0.500020 0.615790 -0.634153
O19   O     O_R   0.397160 0.499980 0.384210 -0.634152
O20   O     O_3   0.899100 0.728711 0.481493 -0.538163
Zn1   Zn    Zn3+2 0.344250 0.499990 0.500020 0.986337
Zn2   Zn    Zn3+2 0.655750 0.500010 0.499980 0.986333

loop_
_geom_bond_atom_site_label_1
_geom_bond_atom_site_label_2
_ccdc_geom_bond_type
C40   H31   S    
C41   H35   S    
C23   C45   S    
C17   O9    S    
C50   H63   S    
N1    Zn1   S    
C48   O13   S    
C49   H59   S    
N2    Zn2   S    
C20   O7    S    
C4    C8    S    
C8    N2    S    
C33   H11   S    
C29   H65   S    
C34   C51   S    
C38   H26   S    
C40   H33   S    
C19   C21   A    
C25   O6    S    
C39   H30   S    
C3    C7    S    
O16   Zn1   S    
O19   Zn1   S    
C9    O18   A    
C27   H1    S    
C22   O4    S    
C38   H25   S    
C40   H32   S    
C42   H39   S    
C30   H3    S    
C5    N1    S    
C4    O2    S    
C50   H61   S    
O17   Zn2   S    
C31   H5    S    
C19   C26   S    
C31   H7    S    
C1    C53   S    
C17   C19   A    
C44   H44   S    
C35   H16   S    
O12   Zn2   S    
C47   H51   S    
C28   H34   S    
C43   H41   S    
C34   C46   S    
C14   C27   S    
C1    O14   A    
C18   C20   A    
C3    N2    S    
C37   O6    S    
C2    C34   S    
C49   H60   S    
C37   H21   S    
C35   H17   S    
C12   O12   A    
C47   O11   S    
C5    C49   S    
C3    O20   S    
C7    N1    S    
C12   C52   S    
C52   C54   S    
C23   C53   S    
C2    C45   S    
C29   H66   S    
C7    C31   S    
C8    C32   S    
C38   O7    S    
O18   Zn2   S    
C32   H10   S    
C4    C6    S    
C45   C52   S    
C3    C5    S    
C25   C26   D    
C54   O11   S    
C30   H2    S    
C10   C13   S    
C23   C44   S    
C13   C24   A    
C51   C53   S    
C42   C45   S    
C31   H6    S    
C35   O4    S    
C1    O1    A    
C41   O10   S    
C46   H48   S    
C9    O16   A    
C47   H52   S    
C50   H62   S    
C33   O3    S    
C43   H42   S    
C6    C50   S    
C9    C11   S    
C36   H20   S    
C49   H58   S    
C28   H45   S    
C41   H37   S    
C40   O9    S    
C30   O2    S    
C47   H53   S    
C13   C15   A    
C38   H27   S    
C24   O3    S    
C14   C16   A    
C36   O5    S    
C10   O17   A    
C6    N2    S    
C33   H13   S    
C23   C54   S    
C46   H49   S    
C15   C17   A    
C42   H40   S    
C37   H22   S    
C43   H43   S    
C39   H28   S    
C20   C22   A    
C27   H23   S    
C2    C53   S    
C5    C8    S    
C44   H47   S    
C6    C7    S    
C39   O8    S    
C32   H9    S    
C29   H64   S    
C11   C22   A    
C34   C52   S    
C2    O13   S    
C51   C54   S    
C28   H56   S    
C32   H8    S    
O14   Zn2   S    
C27   H12   S    
C18   C25   S    
C44   H46   S    
C43   C51   S    
C15   C28   S    
C48   H54   S    
C46   H50   S    
C29   O20   S    
C30   H4    S    
C11   C14   A    
C4    N1    S    
C48   H55   S    
C42   H38   S    
C26   O5    S    
O15   Zn1   S    
C16   O10   S    
C21   O8    S    
C36   H19   S    
C39   H29   S    
C48   H57   S    
C35   H15   S    
C16   C18   A    
C21   C24   A    
O1    Zn1   S    
C12   O15   A    
C37   H24   S    
C10   O19   A    
C36   H18   S    
C33   H14   S    
C41   H36   S    
