data_mof_unit_13146.cif
_audit_creation_date              2012-10-26T21:14:53-0400
_audit_creation_method            fapswitch 2.2
_symmetry_space_group_name_H-M    P1
_symmetry_Int_Tables_number       1
_space_group_crystal_system       triclinic
_cell_length_a                    15.07359
_cell_length_b                    10.902765
_cell_length_c                    13.759991
_cell_angle_alpha                 90.744352
_cell_angle_beta                  90.762551
_cell_angle_gamma                 87.92823
_cell_volume                      2259.51391101

loop_
_atom_site_label
_atom_site_type_symbol
_atom_type_description
_atom_site_fract_x
_atom_site_fract_y
_atom_site_fract_z
_atom_type_partial_charge
Br1   Br    Br    0.645311 0.319035 0.728452 -0.482669
Br2   Br    Br    0.354689 0.680964 0.271548 -0.482669
Br3   Br    Br    0.277905 0.313134 0.158653 -0.527264
Br4   Br    Br    0.722095 0.686866 0.841347 -0.527265
Br5   Br    Br    0.604672 0.069419 0.044424 -0.497600
Br6   Br    Br    0.395329 0.930581 0.955576 -0.497600
C1    C     C_R   0.498352 0.262245 0.498867 0.553818
C2    C     C_R   0.524406 0.888509 0.688790 -0.009921
C3    C     C_R   0.537448 0.081321 0.238456 -0.088550
C4    C     C_R   0.462552 0.918679 0.761544 -0.088550
C5    C     C_R   0.521994 0.118570 0.142833 0.163658
C6    C     C_R   0.478006 0.881430 0.857167 0.163658
C7    C     C_R   0.445184 0.188328 0.119308 -0.014975
C8    C     C_R   0.554816 0.811672 0.880692 -0.014976
C9    C     C_R   0.492216 0.931714 0.414535 -0.124039
C10   C     C_R   0.507784 0.068286 0.585465 -0.124039
C11   C     C_R   0.503053 0.871588 0.503294 -0.001198
C12   C     C_R   0.501648 0.737755 0.501133 0.553818
C13   C     C_R   0.496947 0.128412 0.496706 -0.001198
C14   C     C_R   0.511520 0.941151 0.590476 -0.028383
C15   C     C_R   0.488480 0.058849 0.409523 -0.028383
C16   C     C_R   0.328574 0.500127 0.499581 0.559965
C17   C     C_R   0.671426 0.499873 0.500419 0.559965
C18   C     C_R   0.563872 0.431272 0.794626 0.314628
C19   C     C_R   0.436127 0.568728 0.205374 0.314628
C20   C     C_R   0.435013 0.564023 0.792991 0.013865
C21   C     C_R   0.564987 0.435977 0.207009 0.013865
C22   C     C_R   0.432380 0.562573 0.895457 -0.029169
C23   C     C_R   0.044514 0.471846 0.323831 -0.103705
C24   C     C_R   0.567620 0.437427 0.104543 -0.029169
C25   C     C_R   0.500070 0.499501 0.948259 0.023424
C26   C     C_R   0.499930 0.500498 0.051741 0.023424
C27   C     C_R   0.567417 0.434529 0.897786 0.026539
C28   C     C_R   0.432583 0.565471 0.102214 0.026539
C29   C     C_R   0.363860 0.623633 0.946137 -0.107428
C30   C     C_R   0.636140 0.376367 0.053863 -0.107428
C31   C     C_R   0.364037 0.625785 0.047901 -0.051837
C32   C     C_R   0.635963 0.374215 0.952099 -0.051837
C33   C     C_R   0.815448 0.513616 0.588487 -0.106380
C34   C     C_R   0.955486 0.528154 0.676169 -0.103705
C35   C     C_R   0.184552 0.486384 0.411513 -0.106380
C36   C     C_R   0.768301 0.499623 0.500771 -0.006370
C37   C     C_R   0.231699 0.500377 0.499229 -0.006369
C38   C     C_R   0.813889 0.485679 0.412780 -0.126439
C39   C     C_R   0.186111 0.514321 0.587220 -0.126439
C40   C     C_R   0.906236 0.485652 0.411864 0.014269
C41   C     C_R   0.093764 0.514348 0.588136 0.014269
C42   C     C_R   0.953511 0.499890 0.500172 0.062867
C43   C     C_R   0.046489 0.500110 0.499828 0.062867
C44   C     C_R   0.907901 0.513931 0.588809 0.014468
C45   C     C_R   0.383263 0.219294 0.191276 0.156364
C46   C     C_R   0.092099 0.486069 0.411191 0.014468
C47   C     C_R   0.952029 0.471647 0.324165 -0.116533
C48   C     C_R   0.047971 0.528353 0.675835 -0.116533
C49   C     C_R   0.616737 0.780706 0.808723 0.156364
C50   C     C_R   0.397699 0.179521 0.286730 -0.026444
C51   C     C_R   0.602301 0.820479 0.713269 -0.026444
C52   C     C_R   0.475594 0.111491 0.311209 -0.009921
Cu1   Cu    Cu3+1 0.500010 0.499980 0.597420 1.011574
Cu2   Cu    Cu3+1 0.499990 0.500020 0.402580 1.011574
H1    H     H_    0.780336 0.524800 0.656429 0.189219
H2    H     H_    0.690633 0.325243 0.917237 0.191152
H3    H     H_    0.777644 0.474456 0.344824 0.128738
H4    H     H_    0.222356 0.525544 0.655176 0.128738
H5    H     H_    0.916314 0.460584 0.255918 0.128688
H6    H     H_    0.083685 0.539416 0.744082 0.128688
H7    H     H_    0.078812 0.460915 0.255364 0.161925
H8    H     H_    0.921188 0.539085 0.744636 0.161925
H9    H     H_    0.433418 0.217736 0.045257 0.186024
H10   H     H_    0.566582 0.782264 0.954743 0.186023
H11   H     H_    0.348340 0.200865 0.341504 0.143119
H12   H     H_    0.219664 0.475199 0.343571 0.189219
H13   H     H_    0.651660 0.799135 0.658496 0.143120
H14   H     H_    0.596721 0.026343 0.255772 0.150163
H15   H     H_    0.403279 0.973657 0.744228 0.150163
H16   H     H_    0.484953 0.879408 0.347531 0.183298
H17   H     H_    0.515047 0.120592 0.652469 0.183298
H18   H     H_    0.384600 0.615530 0.752337 0.128295
H19   H     H_    0.615400 0.384469 0.247663 0.128295
H20   H     H_    0.310390 0.671251 0.907027 0.142297
H21   H     H_    0.689609 0.328748 0.092972 0.142297
H22   H     H_    0.309367 0.674756 0.082763 0.191152
N1    N     N_R   0.499960 0.499900 0.743810 -0.232124
N2    N     N_R   0.500040 0.500100 0.256190 -0.232124
O1    O     O_R   0.500000 0.319630 0.582270 -0.471540
O2    O     O_R   0.500000 0.680370 0.417730 -0.471540
O3    O     O_R   0.499990 0.319660 0.417730 -0.511452
O4    O     O_R   0.500010 0.680340 0.582270 -0.511452
O5    O     O_R   0.370260 0.499960 0.582280 -0.523753
O6    O     O_R   0.629740 0.500040 0.417720 -0.523753
O7    O     O_R   0.370250 0.499990 0.417740 -0.460582
O8    O     O_R   0.629750 0.500010 0.582260 -0.460582

loop_
_geom_bond_atom_site_label_1
_geom_bond_atom_site_label_2
_ccdc_geom_bond_type
C20   N1    A    
C28   C31   A    
C8    H10   S    
C41   C43   A    
C20   H18   S    
C17   C36   S    
C23   C47   A    
C2    C14   S    
C21   N2    A    
C13   C15   A    
C18   N1    A    
Cu1   N1    S    
Br5   C5    S    
C21   H19   S    
Br6   C6    S    
Cu2   N2    S    
C29   H20   S    
C11   C14   A    
C3    C52   A    
Cu1   O5    S    
C51   H13   S    
Cu1   O4    S    
C1    C13   S    
C23   H7    S    
C1    O3    A    
C25   C26   A    
C22   C29   A    
C19   N2    A    
C16   O7    A    
C25   C27   A    
C47   H5    S    
C35   C46   A    
C19   C28   A    
C50   H11   S    
C42   C44   A    
C8    C49   A    
Cu1   Cu2   S    
C7    C45   A    
C21   C24   A    
C35   C37   A    
C36   C38   A    
Cu2   O3    S    
C38   C40   A    
C33   C36   A    
C39   C41   A    
C38   H3    S    
C33   H1    S    
C40   C42   A    
Br3   C45   S    
C12   O4    A    
C45   C50   A    
Cu1   O1    S    
C2    C51   A    
C37   C39   A    
C4    H15   S    
C16   C37   S    
C30   H21   S    
C10   C14   A    
C43   C46   A    
C11   C12   S    
C17   O6    A    
C12   O2    A    
C3    C5    A    
C4    C6    A    
C41   C48   A    
C42   C43   A    
C6    C8    A    
C34   C48   A    
C49   C51   A    
Br4   C49   S    
C31   H22   S    
C3    H14   S    
Cu2   O7    S    
C9    C11   A    
Cu2   O2    S    
C29   C31   A    
C20   C22   A    
C22   C25   A    
C27   C32   A    
C48   H6    S    
Cu2   O6    S    
C39   H4    S    
C35   H12   S    
C18   C27   A    
C24   C30   A    
C30   C32   A    
C15   C52   S    
C24   C26   A    
C5    C7    A    
C1    O1    A    
C7    H9    S    
C10   C13   A    
C34   C44   A    
C40   C47   A    
C16   O5    A    
C50   C52   A    
C9    H16   S    
Br2   C19   S    
Cu1   O8    S    
C9    C15   A    
C33   C44   A    
Br1   C18   S    
C2    C4    A    
C34   H8    S    
C17   O8    A    
C10   H17   S    
C26   C28   A    
C32   H2    S    
C23   C46   A    
