data_mof_unit_49167.cif
_audit_creation_date              2012-12-11T15:37:28-0500
_audit_creation_method            fapswitch 2.2
_symmetry_space_group_name_H-M    P1
_symmetry_Int_Tables_number       1
_space_group_crystal_system       triclinic
_cell_length_a                    17.421554
_cell_length_b                    24.418933
_cell_length_c                    14.852812
_cell_angle_alpha                 90.000018
_cell_angle_beta                  126.013578
_cell_angle_gamma                 90.000027
_cell_volume                      5110.99091811

loop_
_atom_site_label
_atom_site_type_symbol
_atom_type_description
_atom_site_fract_x
_atom_site_fract_y
_atom_site_fract_z
_atom_type_partial_charge
C1    C     C_R   0.810279 0.626587 0.907599 -0.108024
C2    C     C_3   0.592671 0.499999 0.547509 -0.221194
C3    C     C_3   0.068493 0.000000 0.512773 -0.401557
C4    C     C_3   0.917425 0.000000 0.425962 -0.218886
C5    C     C_3   0.078630 1.000000 0.623515 -0.205557
C6    C     C_R   0.660358 0.312194 0.901219 -0.128249
C7    C     C_R   0.324732 0.702008 0.102900 -0.085565
C8    C     C_R   0.324733 0.297992 0.102901 -0.085560
C9    C     C_R   0.660359 0.687806 0.901218 -0.128244
C10   C     C_R   0.289786 0.735198 0.902656 -0.130747
C11   C     C_R   0.715095 0.265548 0.101948 -0.131524
C12   C     C_R   0.715094 0.734452 0.101948 -0.131525
C13   C     C_R   0.175614 0.359869 0.092613 -0.110621
C14   C     C_R   0.289787 0.264802 0.902656 -0.130747
C15   C     C_R   0.228466 0.698916 0.901289 -0.133987
C16   C     C_R   0.763481 0.310642 0.102633 -0.136860
C17   C     C_R   0.763480 0.689358 0.102632 -0.136860
C18   C     C_R   0.228467 0.301084 0.901289 -0.133987
C19   C     C_R   0.612480 0.266729 0.900421 -0.153296
C20   C     C_R   0.385922 0.738056 0.104109 -0.123555
C21   C     C_R   0.385922 0.261944 0.104110 -0.123553
C22   C     C_R   0.612480 0.733272 0.900420 -0.153297
C23   C     C_R   0.240679 0.686788 0.001012 0.110058
C24   C     C_R   0.175613 0.640131 0.092613 -0.110625
C25   C     C_R   0.742702 0.330371 0.002075 0.117193
C26   C     C_R   0.742702 0.669630 0.002074 0.117193
C27   C     C_R   0.240680 0.313212 0.001012 0.110061
C28   C     C_R   0.645760 0.240085 0.000635 0.114012
C29   C     C_R   0.361089 0.760033 0.003479 0.098508
C30   C     C_R   0.361089 0.239967 0.003480 0.098510
C31   C     C_R   0.645759 0.759914 0.000635 0.114012
C32   C     C_R   0.098900 0.450408 0.620590 -0.153590
C33   C     C_R   0.113947 0.549583 0.539151 -0.149006
C34   C     C_R   0.113947 0.450417 0.539151 -0.149008
C35   C     C_R   0.810279 0.373413 0.907599 -0.108026
C36   C     C_R   0.098900 0.549592 0.620590 -0.153593
C37   C     C_R   0.608226 0.950457 0.631372 -0.140654
C38   C     C_R   0.609264 0.049571 0.538948 -0.139622
C39   C     C_R   0.609263 0.950429 0.538947 -0.139622
C40   C     C_R   0.608226 0.049543 0.631373 -0.140654
C41   C     C_R   0.108991 0.500000 0.488529 0.131299
C42   C     C_R   0.079703 0.500000 0.651172 0.137879
C43   C     C_R   0.599397 0.000000 0.485411 0.121078
C44   C     C_R   0.596101 0.000000 0.669261 0.129416
C45   C     C_R   0.904965 0.375425 0.094429 -0.107129
C46   C     C_R   0.353387 0.152939 0.908592 -0.100825
C47   C     C_R   0.082715 0.638190 0.906784 -0.118122
C48   C     C_R   0.082716 0.361810 0.906784 -0.118121
C49   C     C_R   0.904965 0.624575 0.094429 -0.107130
C50   C     C_R   0.447010 0.848929 0.094229 -0.115361
C51   C     C_R   0.555919 0.151231 0.907276 -0.141630
C52   C     C_R   0.555919 0.848768 0.907276 -0.141630
C53   C     C_R   0.447011 0.151071 0.094229 -0.115360
C54   C     C_R   0.054964 0.545725 0.307430 -0.134096
C55   C     C_R   0.005016 0.454121 0.734820 -0.116501
C56   C     C_R   0.005017 0.545879 0.734820 -0.116501
C57   C     C_R   0.651308 0.848230 0.092744 -0.093673
C58   C     C_R   0.054964 0.454275 0.307430 -0.134098
C59   C     C_R   0.548756 0.045923 0.304796 -0.110220
C60   C     C_R   0.519776 0.953857 0.751754 -0.105489
C61   C     C_R   0.519776 0.046143 0.751754 -0.105489
C62   C     C_R   0.548756 0.954077 0.304796 -0.110219
C63   C     C_R   0.736792 0.454483 0.704084 -0.105243
C64   C     C_R   0.269226 0.545257 0.252698 -0.112476
C65   C     C_R   0.269226 0.454744 0.252698 -0.112477
C66   C     C_R   0.736791 0.545517 0.704083 -0.105236
C67   C     C_R   0.231346 0.954406 0.749768 -0.104472
C68   C     C_R   0.651308 0.151770 0.092745 -0.093674
C69   C     C_R   0.769493 0.045812 0.277010 -0.100256
C70   C     C_R   0.769493 0.954188 0.277010 -0.100256
C71   C     C_R   0.231346 0.045594 0.749768 -0.104473
C72   C     C_R   0.814725 0.639134 0.001676 0.045228
C73   C     C_R   0.167553 0.342090 0.999624 0.057163
C74   C     C_R   0.167552 0.657910 0.999624 0.057164
C75   C     C_R   0.814725 0.360866 0.001676 0.045227
C76   C     C_R   0.387572 0.183958 0.002391 0.049321
C77   C     C_R   0.619777 0.816923 0.999803 0.051158
C78   C     C_R   0.619777 0.183077 0.999803 0.051158
C79   C     C_R   0.353386 0.847062 0.908591 -0.100825
C80   C     C_R   0.387571 0.816042 0.002391 0.049323
C81   C     C_R   0.074893 0.500000 0.372600 0.053237
C82   C     C_R   0.032317 0.500000 0.705454 0.045421
C83   C     C_R   0.565069 0.000000 0.368880 0.039748
C84   C     C_R   0.551188 0.000000 0.727006 0.041269
C85   C     C_R   0.683747 0.499999 0.651129 0.199861
C86   C     C_R   0.324004 0.500000 0.275423 0.211017
C87   C     C_R   0.174882 1.000000 0.721725 0.211494
C88   C     C_R   0.826158 0.000000 0.320310 0.215159
C89   C     C_3   0.518883 0.455201 0.513006 0.455378
C90   C     C_3   0.422912 0.500000 0.362366 -0.208438
C91   C     C_3   0.496365 0.544841 0.396558 0.466598
C92   C     C_3   0.496367 0.455162 0.396550 0.466604
C93   C     C_3   0.518881 0.544795 0.513014 0.455385
C94   C     C_3   0.003556 0.955122 0.579940 0.458921
C95   C     C_3   0.992493 0.044833 0.469518 0.454510
C96   C     C_3   0.992494 0.955167 0.469517 0.454512
C97   C     C_3   0.003556 0.044878 0.579941 0.458921
C98   C     C_3   0.444922 0.499997 0.479217 -0.403075
C99   C     C_3   0.572090 0.500003 0.431603 -0.379887
C100  C     C_3   0.926640 1.000000 0.535940 -0.400500
Cl1   Cl    Cl    0.528610 0.395697 0.588742 -0.661782
Cl2   Cl    Cl    0.481404 0.603562 0.316727 -0.647171
Cl3   Cl    Cl    0.481406 0.396446 0.316707 -0.647157
Cl4   Cl    Cl    0.528607 0.604294 0.588761 -0.661777
Cl5   Cl    Cl    0.010289 0.896186 0.654951 -0.605160
Cl6   Cl    Cl    0.987933 0.103927 0.396105 -0.610775
Cl7   Cl    Cl    0.987933 0.896074 0.396103 -0.610775
Cl8   Cl    Cl    0.010289 0.103814 0.654953 -0.605159
H1    H     H_    0.752560 0.633865 0.821894 0.126813
H2    H     H_    0.047736 0.651918 0.822439 0.095417
H3    H     H_    0.047737 0.348082 0.822439 0.095417
H4    H     H_    0.933525 0.629484 0.180982 0.098135
H5    H     H_    0.494010 0.836314 0.180211 0.089906
H6    H     H_    0.508318 0.165251 0.822316 0.094111
H7    H     H_    0.508318 0.834748 0.822316 0.094111
H8    H     H_    0.494011 0.163686 0.180211 0.089906
H9    H     H_    0.074009 0.587596 0.335407 0.095722
H10   H     H_    0.004662 0.412678 0.710902 0.090051
H11   H     H_    0.004663 0.587322 0.710904 0.090050
H12   H     H_    0.224064 0.345801 0.177007 0.101840
H13   H     H_    0.074010 0.412404 0.335407 0.095722
H14   H     H_    0.565710 0.087953 0.332360 0.092677
H15   H     H_    0.530456 0.911487 0.741567 0.098522
H16   H     H_    0.530456 0.088513 0.741567 0.098522
H17   H     H_    0.565710 0.912047 0.332360 0.092677
H18   H     H_    0.722146 0.412986 0.672867 0.149729
H19   H     H_    0.294834 0.586156 0.281631 0.147860
H20   H     H_    0.294835 0.413845 0.281631 0.147856
H21   H     H_    0.722145 0.587013 0.672866 0.149723
H22   H     H_    0.208984 0.912153 0.730159 0.159134
H23   H     H_    0.224064 0.654199 0.177007 0.101843
H24   H     H_    0.788877 0.087842 0.303907 0.153946
H25   H     H_    0.788877 0.912158 0.303906 0.153945
H26   H     H_    0.208984 0.087847 0.730160 0.159134
H27   H     H_    0.391710 0.499994 0.497752 0.210135
H28   H     H_    0.626703 0.500005 0.415404 0.207780
H29   H     H_    0.866332 1.000000 0.542485 0.207450
H30   H     H_    0.127936 0.000000 0.504628 0.211991
H31   H     H_    0.637830 0.329149 0.822007 0.166055
H32   H     H_    0.340654 0.689864 0.182066 0.160511
H33   H     H_    0.340655 0.310136 0.182067 0.160504
H34   H     H_    0.752560 0.366134 0.821894 0.126814
H35   H     H_    0.637832 0.670852 0.822006 0.166058
H36   H     H_    0.273748 0.748164 0.823728 0.121047
H37   H     H_    0.738970 0.248210 0.181333 0.125213
H38   H     H_    0.738967 0.751789 0.181333 0.125213
H39   H     H_    0.273749 0.251837 0.823728 0.121046
H40   H     H_    0.168619 0.683806 0.821818 0.112675
H41   H     H_    0.822703 0.326040 0.182156 0.117757
H42   H     H_    0.822702 0.673959 0.182155 0.117757
H43   H     H_    0.168620 0.316194 0.821818 0.112675
H44   H     H_    0.555492 0.250092 0.820834 0.126177
H45   H     H_    0.314386 0.166785 0.823399 0.097805
H46   H     H_    0.444969 0.753458 0.183753 0.127929
H47   H     H_    0.444968 0.246541 0.183754 0.127927
H48   H     H_    0.555492 0.749908 0.820833 0.126177
H49   H     H_    0.093708 0.411345 0.650835 0.111066
H50   H     H_    0.117822 0.588666 0.507926 0.117143
H51   H     H_    0.117822 0.411334 0.507926 0.117143
H52   H     H_    0.093708 0.588654 0.650835 0.111067
H53   H     H_    0.606532 0.911388 0.664315 0.117330
H54   H     H_    0.608421 0.088687 0.504425 0.118811
H55   H     H_    0.608420 0.911313 0.504424 0.118810
H56   H     H_    0.691182 0.834859 0.178275 0.096368
H57   H     H_    0.606533 0.088611 0.664316 0.117331
H58   H     H_    0.691182 0.165141 0.178275 0.096368
H59   H     H_    0.314385 0.833215 0.823398 0.097805
H60   H     H_    0.933525 0.370516 0.180982 0.098135
N1    N     N_R   0.892620 0.603790 0.941800 -0.045838
N2    N     N_R   0.047790 0.602400 0.942090 -0.041051
N3    N     N_R   0.047790 0.397600 0.942090 -0.041051
N4    N     N_R   0.952210 0.602400 0.057910 -0.043762
N5    N     N_R   0.452210 0.897600 0.057910 -0.039822
N6    N     N_R   0.547790 0.102400 0.942090 -0.039585
N7    N     N_R   0.547790 0.897600 0.942090 -0.039585
N8    N     N_R   0.452210 0.102400 0.057910 -0.039822
N9    N     N_R   0.026300 0.529110 0.206760 -0.040675
N10   N     N_R   0.973700 0.470890 0.793240 -0.042848
N11   N     N_R   0.973700 0.529110 0.793240 -0.042848
N12   N     N_R   0.107380 0.396210 0.058200 -0.043341
N13   N     N_R   0.026300 0.470890 0.206760 -0.040675
N14   N     N_R   0.526300 0.029110 0.206760 -0.041003
N15   N     N_R   0.473700 0.970890 0.793240 -0.043183
N16   N     N_R   0.473700 0.029110 0.793240 -0.043183
N17   N     N_R   0.526300 0.970890 0.206760 -0.041003
N18   N     N_R   0.818530 0.472270 0.792960 -0.057997
N19   N     N_R   0.181470 0.527730 0.207040 -0.056883
N20   N     N_R   0.181470 0.472270 0.207040 -0.056883
N21   N     N_R   0.818530 0.527730 0.792960 -0.057997
N22   N     N_R   0.318530 0.972270 0.792960 -0.060207
N23   N     N_R   0.107380 0.603790 0.058200 -0.043341
N24   N     N_R   0.681470 0.027730 0.207040 -0.061090
N25   N     N_R   0.681470 0.972270 0.207040 -0.061090
N26   N     N_R   0.318530 0.027730 0.792960 -0.060207
N27   N     N_R   0.892620 0.396210 0.941800 -0.045837
N28   N     N_R   0.392620 0.103790 0.941800 -0.043488
N29   N     N_R   0.607380 0.896210 0.058200 -0.041937
N30   N     N_R   0.607380 0.103790 0.058200 -0.041936
N31   N     N_R   0.392620 0.896210 0.941800 -0.043488
N32   N     N_R   0.952210 0.397600 0.057910 -0.043762
Ni1   Ni    Ni4+2 0.934150 0.565840 0.869060 0.231007
Ni2   Ni    Ni4+2 0.065850 0.434160 0.130940 0.227744
Ni3   Ni    Ni4+2 0.065850 0.565840 0.130940 0.227745
Ni4   Ni    Ni4+2 0.934150 0.434160 0.869060 0.231009
Ni5   Ni    Ni4+2 0.434150 0.065840 0.869060 0.225250
Ni6   Ni    Ni4+2 0.565850 0.934160 0.130940 0.219007
Ni7   Ni    Ni4+2 0.565850 0.065840 0.130940 0.219007
Ni8   Ni    Ni4+2 0.434150 0.934160 0.869060 0.225250

loop_
_geom_bond_atom_site_label_1
_geom_bond_atom_site_label_2
_ccdc_geom_bond_type
C62   C83   A    
C94   Cl5   S    
N10   Ni4   S    
C2    C89   S    
C43   C83   S    
C14   C18   A    
C36   C42   A    
C17   H42   S    
C42   C82   S    
C70   C88   A    
C47   N2    A    
C71   H26   S    
C46   C76   A    
C5    C94   S    
C9    H35   S    
C67   N22   A    
C65   C86   A    
C22   H48   S    
C45   N32   A    
C6    C19   A    
C57   H56   S    
C35   C75   A    
C20   H46   S    
C61   H16   S    
C17   C26   A    
N8    Ni7   S    
C59   C83   A    
C32   H49   S    
N12   Ni2   S    
C10   C15   A    
C69   H24   S    
C15   H40   S    
C7    C23   A    
C9    C22   A    
C6    C25   A    
N5    N31   A    
C48   N3    A    
C66   N21   A    
N19   Ni3   S    
N28   Ni5   S    
C33   C36   A    
C26   C72   S    
C93   Cl4   S    
C2    C85   S    
C68   N30   A    
N14   Ni7   S    
C12   H38   S    
N3    Ni4   S    
N26   Ni5   S    
N7    N29   A    
N2    Ni1   S    
C92   Cl3   S    
C1    H1    S    
C4    C96   S    
C97   Cl8   S    
N13   Ni2   S    
C61   N16   A    
C49   C72   A    
C12   C17   A    
N6    Ni5   S    
N9    Ni3   S    
C8    H33   S    
N25   Ni6   S    
C28   C78   S    
C53   H8    S    
C35   N27   A    
C66   H21   S    
C89   Cl1   S    
C34   H51   S    
C64   H19   S    
C60   N15   A    
C15   C23   A    
C65   N20   A    
C63   C85   A    
C55   C82   A    
N15   Ni8   S    
N29   Ni6   S    
C34   C41   A    
N23   Ni3   S    
N7    Ni8   S    
C14   C30   A    
N17   Ni6   S    
C69   N24   A    
C64   C86   A    
C9    C26   A    
C31   C77   S    
N22   N26   A    
C20   C29   A    
C68   C78   A    
C66   C85   A    
N6    N30   A    
C51   H6    S    
C79   N31   A    
C22   C31   A    
C1    C72   A    
C65   H20   S    
N10   N11   A    
C86   C90   S    
C58   C81   A    
C36   H52   S    
C11   H37   S    
C71   N26   A    
C39   C43   A    
N27   Ni4   S    
C1    N1    A    
N21   Ni1   S    
C38   H54   S    
C14   H39   S    
N16   Ni5   S    
C16   H41   S    
C50   C80   A    
C25   C75   S    
N14   N17   A    
C32   C34   A    
C59   N14   A    
N15   N16   A    
C5    C87   S    
C95   Cl6   S    
C57   C77   A    
C91   C93   S    
C4    C95   S    
C30   C76   S    
C11   C16   A    
C90   C92   S    
C94   C100  S    
C63   N18   A    
C41   C81   S    
C48   H3    S    
C19   H44   S    
C21   H47   S    
N18   Ni4   S    
C3    H30   S    
C10   H36   S    
N8    N28   A    
C89   C92   S    
C94   C96   S    
C19   C28   A    
C52   N7    A    
C40   H57   S    
N5    Ni6   S    
C69   C88   A    
N2    N23   A    
C49   H4    S    
C71   C87   A    
N22   Ni8   S    
C96   Cl7   S    
C5    C97   S    
C2    C99   S    
C51   N6    A    
C4    C100  S    
C12   C31   A    
N4    Ni3   S    
N3    N12   A    
C53   C76   A    
C23   C74   S    
C39   H55   S    
C18   H43   S    
C13   N12   A    
C79   H59   S    
C13   H12   S    
C62   N17   A    
C33   H50   S    
C37   H53   S    
N27   N32   A    
C52   H7    S    
C16   C25   A    
C46   H45   S    
C58   H13   S    
C97   C100  S    
C57   N29   A    
N30   Ni7   S    
C48   C73   A    
C2    C93   S    
C18   C27   A    
C55   H10   S    
C47   C74   A    
C13   C73   A    
C55   N10   A    
C3    C5    S    
C61   C84   A    
C8    C21   A    
C62   H17   S    
C3    C95   S    
C95   C97   S    
C56   C82   A    
C4    C88   S    
C47   H2    S    
C21   C30   A    
C70   H25   S    
C67   C87   A    
C54   N9    A    
C44   C84   S    
C89   C98   S    
C45   C75   A    
C50   H5    S    
C33   C41   A    
N24   N25   A    
N18   N21   A    
C51   C78   A    
C38   C43   A    
C37   C39   A    
C38   C40   A    
C60   C84   A    
C24   H23   S    
C24   C74   A    
C90   C91   S    
C7    H32   S    
C29   C80   S    
C3    C96   S    
C11   C28   A    
C59   H14   S    
C70   N25   A    
N9    N13   A    
C98   H27   S    
N20   Ni2   S    
N31   Ni8   S    
C56   H11   S    
C99   H28   S    
C24   N23   A    
C54   C81   A    
C45   H60   S    
N24   Ni7   S    
C64   N19   A    
C100  H29   S    
C6    H31   S    
C35   H34   S    
N1    Ni1   S    
C79   C80   A    
C67   H22   S    
C37   C44   A    
C10   C29   A    
C63   H18   S    
C40   C44   A    
C60   H15   S    
C53   N8    A    
C49   N4    A    
C7    C20   A    
C54   H9    S    
C46   N28   A    
N11   Ni1   S    
C8    C27   A    
C32   C42   A    
N19   N20   A    
N1    N4    A    
C91   Cl2   S    
C91   C99   S    
C27   C73   S    
C58   N13   A    
C93   C98   S    
C90   C98   S    
N32   Ni2   S    
C52   C77   A    
C92   C99   S    
C50   N5    A    
C56   N11   A    
C68   H58   S    
