data_mof_unit_51008.cif
_audit_creation_date              2013-03-05T15:59:11-0500
_audit_creation_method            fapswitch 2.2
_symmetry_space_group_name_H-M    P1
_symmetry_Int_Tables_number       1
_space_group_crystal_system       triclinic
_cell_length_a                    12.656607
_cell_length_b                    13.160536
_cell_length_c                    15.793767
_cell_angle_alpha                 91.221558
_cell_angle_beta                  103.576979
_cell_angle_gamma                 81.751419
_cell_volume                      2530.5537139

loop_
_atom_site_label
_atom_site_type_symbol
_atom_site_description
_atom_site_fract_x
_atom_site_fract_y
_atom_site_fract_z
_atom_type_partial_charge
O1    O     O_R   0.366740 0.627160 0.478850 -0.606842
O2    O     O_R   0.544830 0.662520 0.507140 -0.572335
C1    C     C_R   0.437713 0.691643 0.489791 0.937161
O3    O     O_R   0.410920 0.482310 0.608710 -0.585775
O4    O     O_R   0.589010 0.517670 0.637000 -0.591546
C2    C     C_R   0.501755 0.500205 0.661430 0.888021
Zn1   Zn    Zn3+2 0.381090 0.476390 0.481110 1.022063
Zn2   Zn    Zn3+2 0.618910 0.523610 0.518890 1.030683
O5    O     O_R   0.455170 0.337480 0.492860 -0.618700
O6    O     O_R   0.633260 0.372840 0.521150 -0.622213
O7    O     O_R   0.410990 0.482330 0.363000 -0.629448
O8    O     O_R   0.589080 0.517690 0.391290 -0.602553
C3    C     C_R   0.562074 0.308650 0.516631 0.897792
C4    C     C_R   0.498315 0.499561 0.338564 0.895083
C5    C     C_3   0.379253 0.536211 0.927551 0.145104
C6    C     C_3   0.584216 0.567886 0.969452 0.233801
C7    C     C_3   0.570916 0.583190 0.066072 -0.247750
H1    H     H_    0.347589 0.600431 0.048708 0.245087
H2    H     H_    0.667411 0.524764 0.973140 0.232421
C8    C     C_1   0.495536 0.497525 0.249418 -0.001944
C9    C     C_3   0.500705 0.496879 0.916644 -0.163702
C10   C     C_3   0.380713 0.524079 0.026928 0.130864
C11   C     C_3   0.501633 0.495251 0.083465 -0.195941
C12   C     C_3   0.555540 0.384444 0.057544 0.156789
C13   C     C_3   0.543778 0.384004 0.954274 0.619400
C14   C     C_1   0.497026 0.496063 0.174516 0.268550
C15   C     C_1   0.504770 0.498311 0.825612 0.156544
C16   C     C_1   0.505431 0.499572 0.750669 -0.022679
C17   C     C_R   0.725358 0.049207 0.508807 0.474518
C18   C     C_R   0.602090 0.198242 0.536575 -0.255003
C19   C     C_R   0.313971 0.831995 0.539746 -0.093049
C20   C     C_R   0.327562 0.911806 0.598966 -0.148651
C21   C     C_R   0.412475 0.968966 0.603209 -0.155730
C22   C     C_R   0.474227 0.958539 0.538984 0.069928
C23   C     C_R   0.469135 0.871505 0.485568 0.069829
C24   C     C_R   0.545549 0.028626 0.529662 -0.036588
C25   C     C_R   0.634622 0.993924 0.491164 -0.104022
C26   C     C_R   0.628499 0.907931 0.435475 -0.150481
C27   C     C_R   0.538208 0.853269 0.426658 0.425049
C28   C     C_R   0.527215 0.133867 0.550495 -0.066588
C29   C     C_R   0.709133 0.152976 0.531882 -0.112140
C30   C     C_R   0.397522 0.801704 0.494486 -0.122709
H3    H     H_    0.427025 0.022698 0.655854 0.170480
H4    H     H_    0.272611 0.930303 0.642076 0.211778
C31   C     C_R   0.084969 0.345474 0.381132 -0.207618
H5    H     H_    0.878170 0.318507 0.355742 0.196767
H6    H     H_    0.061117 0.286770 0.334080 0.198896
N1    N     N_R   0.222200 0.444690 0.455710 -0.185400
C32   C     C_R   0.805084 0.624482 0.608712 -0.046282
C33   C     C_R   0.915776 0.638040 0.641901 0.249671
C34   C     C_R   0.997443 0.578216 0.609113 0.392917
C35   C     C_R   0.966655 0.519469 0.533698 -0.074035
C36   C     C_R   0.855028 0.502502 0.506511 0.149804
C37   C     C_R   0.043419 0.471940 0.487062 0.041006
C38   C     C_R   0.010454 0.397773 0.423921 0.012741
C39   C     C_R   0.903223 0.376085 0.403527 -0.203168
C40   C     C_R   0.826604 0.428214 0.443975 -0.086228
C41   C     C_R   0.150567 0.497665 0.497681 0.011581
C42   C     C_R   0.190964 0.368389 0.397978 0.584524
N2    N     N_R   0.776960 0.554780 0.543830 -0.165504
H7    H     H_    0.178392 0.561128 0.536257 0.216175
H8    H     H_    0.746646 0.405819 0.427266 0.197360
C43   C     C_2   0.286148 0.486252 0.868616 0.915691
O9    O     O_2   0.301906 0.430168 0.808743 -0.571568
O10   O     O_R   0.179187 0.512316 0.879814 -0.684873
H9    H     H_    0.123637 0.477151 0.836641 0.369114
O11   O     O_3   0.307737 0.460547 0.045021 -0.665369
H10   H     H_    0.315871 0.395313 0.014008 0.336335
O12   O     O_3   0.668190 0.372974 0.100139 -0.729662
H11   H     H_    0.703802 0.302089 0.092789 0.374470
C44   C     C_2   0.805728 0.208924 0.557215 0.998155
O13   O     O_2   0.812201 0.269146 0.617674 -0.589500
O14   O     O_R   0.892500 0.188247 0.515687 -0.734879
H12   H     H_    0.955906 0.226920 0.542117 0.345425
C45   C     C_2   0.709124 0.880185 0.380874 0.924807
O15   O     O_2   0.748707 0.790431 0.375948 -0.590296
O16   O     O_R   0.739216 0.956650 0.334924 -0.732060
H13   H     H_    0.794686 0.928202 0.300319 0.376390
O17   O     O_3   0.830504 0.002595 0.509248 -0.678626
H14   H     H_    0.835939 0.928738 0.523509 0.337590
C46   C     C_2   0.424710 0.180380 0.575764 0.956153
O18   O     O_2   0.430558 0.232411 0.641386 -0.571454
O19   O     O_R   0.322228 0.167136 0.523094 -0.757745
H15   H     H_    0.259067 0.203154 0.546789 0.347572
C47   C     C_2   0.212839 0.783211 0.526875 0.948496
O20   O     O_2   0.175372 0.745772 0.456612 -0.584132
O21   O     O_R   0.155745 0.786696 0.592929 -0.781737
H16   H     H_    0.084028 0.757675 0.573987 0.362587
O22   O     O_3   0.353161 0.642051 0.907087 -0.710289
H17   H     H_    0.343374 0.651424 0.843276 0.337860
O23   O     O_3   0.514366 0.782242 0.361507 -0.729001
H18   H     H_    0.545906 0.797488 0.312366 0.380970
O24   O     O_3   0.260221 0.311636 0.353846 -0.720039
H19   H     H_    0.327780 0.341917 0.362333 0.386820
C48   C     C_2   0.723447 0.677361 0.653430 0.984129
O25   O     O_2   0.716574 0.643584 0.723157 -0.567873
O26   O     O_R   0.667477 0.773762 0.623510 -0.834378
H20   H     H_    0.618857 0.805217 0.662693 0.339207
O27   O     O_3   0.106484 0.569274 0.653905 -0.760127
H21   H     H_    0.115052 0.610186 0.707744 0.411030
O28   O     O_3   0.947632 0.705178 0.708751 -0.716273
H22   H     H_    0.885541 0.758845 0.712068 0.363635
O29   O     O_3   0.588999 0.660894 0.928268 -0.644494
H23   H     H_    0.524041 0.678152 0.879658 0.381508
C49   C     C_2   0.513284 0.690628 0.083357 0.966728
O30   O     O_2   0.502869 0.711651 0.157083 -0.647176
O31   O     O_R   0.472881 0.765426 0.017732 -0.669217
H24   H     H_    0.437258 0.831707 0.039398 0.367735
C50   C     C_2   0.686317 0.578549 0.126686 1.028678
O32   O     O_2   0.753221 0.626151 0.106442 -0.549193
O33   O     O_R   0.714434 0.526907 0.207165 -0.752147
H25   H     H_    0.792145 0.532464 0.240757 0.361077
O34   O     O_3   0.475154 0.314484 0.909416 -0.679938
H26   H     H_    0.409602 0.316319 0.932991 0.304911
O35   O     O_3   0.648175 0.353352 0.936690 -0.704468
H27   H     H_    0.665759 0.277582 0.944232 0.391783
C51   C     C_2   0.510350 0.292341 0.088483 0.874687
O36   O     O_2   0.541646 0.205749 0.066154 -0.570084
O37   O     O_R   0.439113 0.304004 0.144751 -0.777456
H28   H     H_    0.418268 0.236383 0.160204 0.372743

loop_
_geom_bond_atom_site_label_1
_geom_bond_atom_site_label_2
_geom_bond_distance
_ccdc_geom_bond_type
O21   H16   1.013100 S    
C43   O10   1.399358 S    
C1    C30   1.471059 S    
O24   H19   0.974471 S    
C19   C47   1.483221 S    
C19   C30   1.417715 A    
O14   H12   1.013989 S    
C48   O25   1.222641 D    
C38   C39   1.388933 A    
C51   O37   1.398894 S    
O26   H20   1.013793 S    
C40   H8    1.066544 S    
O16   H13   1.013800 S    
Zn1   O7    1.993786 S    
C49   O31   1.398208 S    
C12   C51   1.546143 S    
C6    C9    1.588200 S    
C32   N2    1.378619 A    
C24   C25   1.418270 A    
C13   O34   1.415930 S    
C13   O35   1.414325 S    
O4    C2    1.303060 A    
O7    C4    1.303014 A    
O35   H27   0.993492 S    
C39   C40   1.378565 A    
C22   C23   1.407944 A    
C11   C14   1.452591 S    
C23   C30   1.410524 A    
O5    C3    1.317532 A    
C5    C10   1.576541 S    
C2    C16   1.399394 S    
O19   H15   1.013882 S    
C6    C7    1.579660 S    
O31   H24   1.013975 S    
C18   C29   1.417574 A    
C29   C44   1.487605 S    
C41   H7    1.074599 S    
C31   H6    1.085069 S    
C9    C15   1.451286 S    
H1    C10   1.111693 S    
O3    Zn1   1.963288 S    
C27   O23   1.384837 S    
C46   O19   1.398883 S    
C36   N2    1.363132 A    
C35   C37   1.421145 A    
C12   O12   1.414368 S    
C46   O18   1.223446 D    
C26   C45   1.486983 S    
C47   O21   1.398225 S    
C34   O27   1.384739 S    
O11   H10   0.983840 S    
C21   H3    1.079682 S    
O28   H22   0.988759 S    
C4    C8    1.399895 S    
C3    C18   1.483408 S    
C24   C28   1.415840 A    
C12   C13   1.602588 S    
O3    C2    1.300144 A    
O23   H18   0.988475 S    
C44   O14   1.398276 S    
C36   C40   1.397749 A    
C33   C34   1.398871 A    
C47   O20   1.223024 D    
C34   C35   1.413356 A    
O1    C1    1.302511 A    
C23   C27   1.414112 A    
C45   O15   1.223475 D    
C25   C26   1.418123 A    
C7    C49   1.544970 S    
C5    O22   1.410961 S    
C6    O29   1.413755 S    
C19   C20   1.393583 A    
C17   O17   1.381650 S    
Zn2   O8    1.963288 S    
C21   C22   1.412137 A    
C20   H4    1.083164 S    
C18   C28   1.414321 A    
C7    C11   1.612953 S    
C32   C48   1.471758 S    
C45   O16   1.398307 S    
O8    C4    1.300414 A    
O10   H9    1.014035 S    
O17   H14   0.991522 S    
H5    C39   1.084673 S    
O29   H23   0.987128 S    
C35   C36   1.425441 A    
N1    C42   1.379002 A    
O34   H26   0.983088 S    
C37   C41   1.415768 A    
Zn1   O5    1.922639 S    
C9    C13   1.584383 S    
C37   C38   1.414674 A    
C31   C42   1.380779 A    
O33   H25   1.014004 S    
C17   C29   1.404797 A    
O1    Zn1   1.966707 S    
C28   C46   1.490615 S    
O2    Zn2   1.922638 S    
O6    C3    1.310008 A    
C7    C50   1.540746 S    
O4    Zn2   1.993789 S    
O37   H28   1.013905 S    
C48   O26   1.394704 S    
N1    C41   1.352234 A    
C49   O30   1.223790 D    
O27   H21   0.989267 S    
C20   C21   1.386133 A    
C50   O33   1.399726 S    
O2    C1    1.319456 A    
C44   O13   1.223225 D    
C50   O32   1.224582 D    
Zn1   N1    2.057660 S    
C26   C27   1.414121 A    
C8    C14   1.187253 T    
C6    H2    1.111461 S    
C22   C24   1.412247 A    
O12   H11   0.993074 S    
C10   O11   1.410510 S    
C11   C12   1.606201 S    
C43   O9    1.222831 D    
C5    C9    1.597726 S    
C31   C38   1.383115 A    
C33   O28   1.385855 S    
Zn2   O6    1.966708 S    
C32   C33   1.411502 A    
C17   C25   1.416577 A    
C15   C16   1.186117 T    
C5    C43   1.539005 S    
C10   C11   1.577888 S    
C42   O24   1.374350 S    
O22   H17   0.994252 S    
C51   O36   1.224289 D    
Zn2   N2    2.045376 S    
