data_mof_unit_64223.cif
_audit_creation_date              2012-12-10T17:59:07-0500
_audit_creation_method            fapswitch 2.2
_symmetry_space_group_name_H-M    P1
_symmetry_Int_Tables_number       1
_space_group_crystal_system       triclinic
_cell_length_a                    18.797337
_cell_length_b                    18.695917
_cell_length_c                    18.812221
_cell_angle_alpha                 109.238797
_cell_angle_beta                  109.940581
_cell_angle_gamma                 109.083635
_cell_volume                      5098.53454847

loop_
_atom_site_label
_atom_site_type_symbol
_atom_type_description
_atom_site_fract_x
_atom_site_fract_y
_atom_site_fract_z
_atom_type_partial_charge
C1    C     C_R   0.619043 0.618955 0.500661 0.790848
C2    C     C_3   0.176126 0.464296 0.251362 -0.300049
C3    C     C_3   0.261612 0.547031 0.329985 -0.195818
C4    C     C_3   0.312735 0.500165 0.312759 -0.161917
C5    C     C_R   0.669296 0.697925 0.430470 -0.042522
C6    C     C_R   0.685632 0.687483 0.503066 -0.034210
C7    C     C_R   0.760883 0.753740 0.582887 -0.207916
C8    C     C_R   0.825902 0.821937 0.586622 0.136603
C9    C     C_R   0.813659 0.822807 0.507946 -0.068815
C10   C     C_R   0.731678 0.764475 0.433025 -0.005758
C11   C     C_3   0.706198 0.709504 0.340873 -0.467535
C12   C     C_R   0.380486 0.499931 0.380528 0.849585
C13   C     C_3   0.637656 0.635847 0.338363 0.502822
C14   C     C_R   0.699292 0.429823 0.673325 -0.000558
C15   C     C_R   0.687451 0.501659 0.687658 -0.049469
C16   C     C_R   0.744085 0.576349 0.771474 -0.193336
C17   C     C_R   0.809954 0.576458 0.836402 -0.192866
C18   C     C_R   0.818562 0.501375 0.818652 -0.080683
C19   C     C_R   0.761446 0.429486 0.736005 0.011751
C20   C     C_3   0.738280 0.338999 0.677726 0.711981
C21   C     C_3   0.666424 0.339094 0.606425 -0.504379
C22   C     C_R   0.293193 0.228249 0.461360 -0.046155
C23   C     C_R   0.381331 0.381164 0.500174 0.807221
C24   C     C_R   0.314787 0.315260 0.501033 -0.070244
C25   C     C_R   0.268838 0.337256 0.542604 -0.168807
C26   C     C_R   0.203544 0.272413 0.542055 -0.203226
C27   C     C_R   0.183867 0.185167 0.500413 -0.074823
C28   C     C_R   0.230098 0.166219 0.460617 0.056240
C29   C     C_3   0.238242 0.093712 0.406921 0.627237
C30   C     C_3   0.311936 0.164971 0.408710 -0.116413
C31   C     C_R   0.003567 0.619036 0.122077 0.777381
C32   C     C_R   0.123202 0.499982 0.123363 0.859205
C33   C     C_R   0.005109 0.381046 0.886121 0.814429
C34   C     C_R   0.619813 0.500255 0.619823 0.789845
C35   C     C_R   0.884629 0.499781 0.884063 0.789255
C36   C     C_R   0.998559 0.118208 0.617771 0.782774
C37   C     C_R   0.881203 0.883666 0.502605 0.809839
C38   C     C_R   0.000570 0.880897 0.382129 0.822990
C39   C     C_R   0.118290 0.118153 0.499607 0.802336
C40   C     C_R   0.925015 0.682912 0.177687 -0.022296
C41   C     C_R   0.003344 0.687171 0.186957 -0.026777
C42   C     C_R   0.082195 0.761501 0.256844 -0.188175
C43   C     C_R   0.081716 0.824898 0.321813 -0.206649
C44   C     C_R   0.002284 0.816053 0.315312 -0.027907
C45   C     C_3   0.327402 0.535802 0.252978 -0.290214
C46   C     C_R   0.924534 0.746772 0.240771 0.009410
C47   C     C_3   0.847726 0.680768 0.234136 0.441250
C48   C     C_3   0.847344 0.611214 0.163694 -0.428269
C49   C     C_R   0.926625 0.235613 0.754895 0.070506
C50   C     C_R   0.003245 0.314959 0.816593 -0.156634
C51   C     C_R   0.076133 0.333144 0.805165 -0.145323
C52   C     C_R   0.074595 0.268572 0.739372 -0.201320
C53   C     C_R   0.999424 0.186390 0.683209 -0.045132
C54   C     C_R   0.924293 0.172723 0.688338 0.004766
C55   C     C_3   0.865865 0.100121 0.693134 -0.559321
C56   C     C_3   0.275198 0.582630 0.269247 -0.198851
C57   C     C_3   0.869056 0.169346 0.766753 0.522592
C58   C     C_3   0.190757 0.499996 0.191561 -0.163030
C59   C     C_3   0.241991 0.453847 0.175384 0.616969
C60   C     C_3   0.228568 0.418692 0.235341 0.611186
Cu1   Cu    Cu3+1 0.500490 0.438210 0.438660 1.030975
Cu2   Cu    Cu3+1 0.499510 0.561790 0.561340 0.960589
Cu3   Cu    Cu3+1 0.942090 0.438240 0.003860 1.046309
Cu4   Cu    Cu3+1 0.065700 0.561800 0.003830 0.967564
Cu5   Cu    Cu3+1 0.937720 0.000020 0.437750 0.961882
Cu6   Cu    Cu3+1 0.062280 0.000080 0.562350 1.014256
H1    H     H_    0.293056 0.650223 0.282248 0.170541
H2    H     H_    0.758581 0.697350 0.335895 0.270577
H3    H     H_    0.569379 0.614858 0.292737 0.057072
H4    H     H_    0.738313 0.634594 0.786482 0.158637
H5    H     H_    0.853194 0.634326 0.900112 0.143906
H6    H     H_    0.676177 0.337149 0.550903 0.178981
H7    H     H_    0.599455 0.293965 0.588054 0.208691
H8    H     H_    0.282553 0.403921 0.574751 0.164992
H9    H     H_    0.390008 0.564508 0.254261 0.160296
H10   H     H_    0.168943 0.290293 0.574056 0.138655
H11   H     H_    0.297403 0.162033 0.345112 0.162109
H12   H     H_    0.143930 0.768270 0.263423 0.154545
H13   H     H_    0.142984 0.879989 0.377317 0.202492
H14   H     H_    0.789227 0.688409 0.211346 0.065335
H15   H     H_    0.862183 0.564913 0.182128 0.243155
H16   H     H_    0.789931 0.580343 0.098105 0.154261
H17   H     H_    0.135380 0.395598 0.849282 0.176371
H18   H     H_    0.132346 0.281960 0.733579 0.145628
H19   H     H_    0.800618 0.057939 0.633188 0.231926
H20   H     H_    0.897781 0.064710 0.714730 0.148971
H21   H     H_    0.901318 0.173999 0.831108 0.087497
H22   H     H_    0.113486 0.434626 0.249742 0.187377
H23   H     H_    0.270794 0.585733 0.394769 0.182863
H24   H     H_    0.770185 0.750977 0.641881 0.144455
H25   H     H_    0.677874 0.733301 0.297832 0.150481
O1    O     O_R   0.590590 0.537990 0.448210 -0.527626
O2    O     O_R   0.055390 0.642370 0.093330 -0.596766
O3    O     O_R   0.042570 0.447840 0.094710 -0.585353
O4    O     O_R   0.146960 0.552180 0.094690 -0.583380
O5    O     O_R   0.952400 0.357670 0.914360 -0.556319
O6    O     O_R   0.056780 0.462020 0.914330 -0.590749
O7    O     O_R   0.860840 0.447860 0.913000 -0.536719
O8    O     O_R   0.965220 0.552200 0.912980 -0.596451
O9    O     O_R   0.946640 0.090180 0.536890 -0.583745
O10   O     O_R   0.051820 0.090220 0.642110 -0.588813
O11   O     O_R   0.857230 0.909860 0.447430 -0.585599
O12   O     O_R   0.589760 0.642350 0.551800 -0.600947
O13   O     O_R   0.962420 0.909900 0.552660 -0.578510
O14   O     O_R   0.948170 0.909880 0.357990 -0.602741
O15   O     O_R   0.053360 0.909920 0.463210 -0.554104
O16   O     O_R   0.037580 0.090200 0.447440 -0.592231
O17   O     O_R   0.142770 0.090240 0.552670 -0.554215
O18   O     O_R   0.409550 0.447830 0.357350 -0.548657
O19   O     O_R   0.408710 0.552190 0.460940 -0.594689
O20   O     O_R   0.410240 0.357650 0.448200 -0.589290
O21   O     O_R   0.409410 0.462010 0.551790 -0.594458
O22   O     O_R   0.591290 0.447810 0.539060 -0.588148
O23   O     O_R   0.590450 0.552170 0.642650 -0.594225
O24   O     O_R   0.951010 0.538020 0.093350 -0.585407
F1    F     F_    0.655222 0.568162 0.330973 -0.599535
C61   C     C_3   0.811335 0.334551 0.660444 -0.426398
C62   C     C_3   0.780151 0.244060 0.588857 -0.714828
H26   H     H_    0.755510 0.193959 0.606627 0.313014
H27   H     H_    0.727477 0.227781 0.526211 0.227909
H28   H     H_    0.835241 0.242781 0.579950 0.231507
H29   H     H_    0.836238 0.383400 0.641218 0.170120
H30   H     H_    0.866136 0.350648 0.721428 0.199402
F2    F     F_    0.705744 0.281906 0.704870 -0.586580
F3    F     F_    0.266970 0.055318 0.453550 -0.676574
C63   C     C_3   0.156082 0.025477 0.316807 -0.454650
C64   C     C_3   0.111879 0.062435 0.265943 -0.856722
H31   H     H_    0.091855 0.103019 0.303527 0.265520
H32   H     H_    0.155156 0.101588 0.249398 0.263165
H33   H     H_    0.052414 0.007609 0.204022 0.260737
H34   H     H_    0.173534 0.983781 0.276646 0.219847
H35   H     H_    0.107591 0.983216 0.326631 0.208994
C65   C     C_3   0.404301 0.181163 0.460815 -0.318502
C66   C     C_3   0.419072 0.111124 0.408818 -0.770797
H36   H     H_    0.372891 0.045846 0.393604 0.288339
H37   H     H_    0.410142 0.110386 0.347038 0.234635
H38   H     H_    0.486563 0.125279 0.447554 0.244282
H39   H     H_    0.452425 0.245266 0.475588 0.202572
H40   H     H_    0.416581 0.183492 0.523923 0.255815
F4    F     F_    0.869792 0.673753 0.308753 -0.641261
F5    F     F_    0.229982 0.405081 0.094565 -0.643108
F6    F     F_    0.789458 0.166186 0.744222 -0.597383
F7    F     F_    0.206057 0.334273 0.218418 -0.637287
C67   C     C_3   0.904994 0.891535 0.674953 -0.410335
C68   C     C_3   0.968464 0.859422 0.704560 -0.740899
H41   H     H_    0.937196 0.802469 0.711610 0.239010
H42   H     H_    0.990079 0.840311 0.656786 0.271586
H43   H     H_    0.026494 0.912318 0.768621 0.236845
H44   H     H_    0.939034 0.952538 0.675181 0.207871
H45   H     H_    0.883884 0.909515 0.723492 0.197818

loop_
_geom_bond_atom_site_label_1
_geom_bond_atom_site_label_2
_ccdc_geom_bond_type
C32   O3    A    
C38   O15   A    
C63   C64   S    
C29   F3    S    
C41   C42   A    
C19   C20   S    
C32   C58   S    
C61   H29   S    
Cu1   O18   S    
C66   H38   S    
C12   O19   A    
C68   H41   S    
C7    C8    A    
C53   C54   A    
C52   C53   A    
C34   O22   A    
C39   O16   A    
C23   O21   A    
Cu3   O3    S    
C26   C27   A    
C67   H44   S    
C57   F6    S    
Cu5   O11   S    
C14   C21   S    
C28   C29   S    
Cu4   O2    S    
Cu2   O23   S    
Cu3   O7    S    
C60   F7    S    
C37   O11   A    
C2    C60   S    
C43   H13   S    
C15   C16   A    
C21   H7    S    
C49   C57   S    
C48   H15   S    
C25   H8    S    
C31   O24   A    
C52   H18   S    
C62   H26   S    
C20   C61   S    
C67   H45   S    
C36   C53   S    
C54   C55   S    
C30   H11   S    
Cu4   O8    S    
C45   C56   S    
C27   C39   S    
C16   C17   A    
C47   F4    S    
C26   H10   S    
C23   C24   S    
C2    H22   S    
C4    C12   S    
C35   O7    A    
C31   C41   S    
C18   C35   S    
C1    O12   A    
C15   C34   S    
C5    C13   S    
Cu1   O1    S    
Cu3   O24   S    
C65   H39   S    
C49   C54   A    
C22   C28   A    
C29   C63   S    
Cu6   O10   S    
C47   H14   S    
Cu6   O15   S    
C35   O8    A    
C14   C19   A    
Cu5   O14   S    
C12   O18   A    
C68   H42   S    
C44   C46   A    
C17   C18   A    
C4    C45   S    
C39   O17   A    
C21   H6    S    
C51   C52   A    
Cu6   O13   S    
C16   H4    S    
C24   C25   A    
Cu5   O9    S    
C36   O9    A    
C8    C9    A    
C66   H37   S    
C33   C50   S    
C31   O2    A    
C7    H24   S    
Cu3   O5    S    
C1    C6    S    
C36   O10   A    
C62   H28   S    
C55   H19   S    
C40   C46   A    
C43   C44   A    
C64   H32   S    
C38   C44   S    
C29   C30   S    
C11   H25   S    
C3    C56   S    
C47   C48   S    
Cu2   O19   S    
C63   H35   S    
C30   C65   S    
C4    C60   S    
C9    C37   S    
C50   C51   A    
C8    C67   S    
C25   C26   A    
C65   H40   S    
C6    C7    A    
C40   C41   A    
C17   H5    S    
C1    O1    A    
C55   C57   S    
Cu1   O22   S    
C65   C66   S    
C49   C50   A    
C22   C24   A    
C42   C43   A    
C64   H31   S    
Cu1   O20   S    
C33   O5    A    
C51   H17   S    
C68   H43   S    
C11   H2    S    
C48   H16   S    
Cu2   O12   S    
C9    C10   A    
C40   C48   S    
C46   C47   S    
C45   C59   S    
C22   C30   S    
Cu4   O6    S    
Cu4   O4    S    
Cu6   O17   S    
C67   C68   S    
C37   O13   A    
C2    C58   S    
C42   H12   S    
C66   H36   S    
C34   O23   A    
C56   H1    S    
C23   O20   A    
C45   H9    S    
C3    H23   S    
C38   O14   A    
C2    C3    S    
C58   C59   S    
C64   H33   S    
C5    C10   A    
C61   C62   S    
C11   C13   S    
C5    C6    A    
C13   H3    S    
C63   H34   S    
C55   H20   S    
C56   C58   S    
C33   O6    A    
C61   H30   S    
Cu1   Cu2   S    
C62   H27   S    
C20   F2    S    
C13   F1    S    
C10   C11   S    
Cu3   Cu4   S    
C57   H21   S    
C59   C60   S    
C32   O4    A    
Cu2   O21   S    
C20   C21   S    
C59   F5    S    
Cu5   Cu6   S    
C27   C28   A    
C18   C19   A    
C14   C15   A    
Cu5   O16   S    
C3    C4    S    
