data_mof_unit_65881.cif
_audit_creation_date              2012-12-10T19:55:09-0500
_audit_creation_method            fapswitch 2.2
_symmetry_space_group_name_H-M    P1
_symmetry_Int_Tables_number       1
_space_group_crystal_system       triclinic
_cell_length_a                    14.261898
_cell_length_b                    14.994172
_cell_length_c                    16.756549
_cell_angle_alpha                 90.992404
_cell_angle_beta                  84.112692
_cell_angle_gamma                 89.910155
_cell_volume                      3563.85535732

loop_
_atom_site_label
_atom_site_type_symbol
_atom_type_description
_atom_site_fract_x
_atom_site_fract_y
_atom_site_fract_z
_atom_type_partial_charge
C1    C     C_R   0.499868 0.672104 0.501754 0.908475
C2    C     C_R   0.499514 0.327734 0.501791 0.914240
C3    C     C_R   0.435266 0.903137 0.454020 -0.138351
C4    C     C_R   0.579880 0.093802 0.463811 -0.142930
C5    C     C_R   0.434886 0.811246 0.458155 -0.190885
C6    C     C_R   0.579427 0.185759 0.468331 -0.183002
C7    C     C_R   0.500113 0.768040 0.501395 -0.100102
C8    C     C_R   0.498475 0.231356 0.501692 -0.129507
C9    C     C_R   0.565347 0.817356 0.541889 0.273567
C10   C     C_R   0.417500 0.183637 0.532115 0.270622
C11   C     C_R   0.566011 0.909210 0.536353 -0.159336
C12   C     C_R   0.418437 0.091524 0.526132 -0.162869
C13   C     C_R   0.501345 0.951546 0.492598 0.051888
C14   C     C_R   0.499199 0.047216 0.492215 0.050138
C15   C     C_R   0.885956 0.541576 0.561436 -0.217835
C16   C     C_R   0.114390 0.452145 0.441502 -0.222915
C17   C     C_R   0.788166 0.545230 0.558148 -0.013539
C18   C     C_R   0.212136 0.450056 0.444737 -0.014150
C19   C     C_R   0.801178 0.443217 0.449003 0.360212
C20   C     C_R   0.198569 0.558776 0.548642 0.369142
C21   C     C_R   0.898582 0.432287 0.455247 0.154452
C22   C     C_R   0.100668 0.567016 0.543066 0.144074
C23   C     C_R   0.486190 0.504907 0.652972 0.909466
C24   C     C_R   0.513858 0.498803 0.346798 0.890090
C25   C     C_R   0.945905 0.493408 0.503186 0.047032
C26   C     C_R   0.053957 0.502854 0.497526 0.053122
C27   C     C_R   0.476870 0.532034 0.736938 -0.096878
C28   C     C_R   0.523467 0.498710 0.259842 -0.086953
C29   C     C_R   0.549096 0.582784 0.765801 -0.194117
C30   C     C_R   0.447942 0.469758 0.219019 -0.211445
C31   C     C_R   0.541947 0.611306 0.845221 0.303051
C32   C     C_R   0.452098 0.477275 0.136454 0.300749
C33   C     C_R   0.462804 0.586639 0.896853 0.079389
C34   C     C_R   0.532141 0.515988 0.094748 0.084807
C35   C     C_R   0.387152 0.542467 0.866719 -0.136581
C36   C     C_R   0.610153 0.539184 0.134673 -0.159386
C37   C     C_R   0.393970 0.515397 0.786576 -0.136069
C38   C     C_R   0.605936 0.530597 0.217289 -0.154243
C39   C     C_2   0.467696 0.585433 0.982871 -0.127249
C40   C     C_2   0.534802 0.535381 0.010166 -0.141645
H1    H     H_    0.912235 0.572472 0.612978 0.217701
H2    H     H_    0.089019 0.418001 0.391308 0.213763
H3    H     H_    0.665303 0.552257 0.248093 0.185713
H4    H     H_    0.336432 0.478697 0.764248 0.191808
H5    H     H_    0.384603 0.936546 0.420780 0.166319
H6    H     H_    0.642823 0.058871 0.438339 0.173019
H7    H     H_    0.384446 0.773864 0.426882 0.180794
H8    H     H_    0.642171 0.221025 0.445107 0.219832
H9    H     H_    0.614967 0.947981 0.568112 0.184958
H10   H     H_    0.357304 0.054110 0.550253 0.186620
N1    N     N_R   0.747530 0.500020 0.500000 -0.140754
N2    N     N_R   0.252470 0.499980 0.500000 -0.136014
O1    O     O_R   0.420520 0.630930 0.499990 -0.592159
O2    O     O_R   0.579480 0.369070 0.500010 -0.592297
O3    O     O_R   0.579480 0.630940 0.499990 -0.592435
O4    O     O_R   0.420520 0.369060 0.500010 -0.583415
O5    O     O_R   0.411130 0.500010 0.615800 -0.574709
O6    O     O_R   0.588870 0.499990 0.384200 -0.583368
O7    O     O_R   0.570080 0.500020 0.615800 -0.629156
O8    O     O_R   0.429920 0.499980 0.384200 -0.637629
Zn1   Zn    Zn3+2 0.393860 0.499990 0.500000 1.025070
Zn2   Zn    Zn3+2 0.606140 0.500010 0.500000 1.017942
H11   H     H_    0.611389 0.600233 0.726774 0.201146
H12   H     H_    0.385323 0.441923 0.251316 0.183284
H13   H     H_    0.744484 0.582834 0.603379 0.188497
H14   H     H_    0.256152 0.409606 0.401792 0.164108
Br1   Br    Br    0.744528 0.373284 0.369742 -0.427370
Br2   Br    Br    0.255883 0.634117 0.623842 -0.378986
Br3   Br    Br    0.949369 0.315277 0.424620 -0.412155
Br4   Br    Br    0.045853 0.682529 0.573519 -0.397097
H15   H     H_    0.592405 0.507630 0.969698 0.184235
H16   H     H_    0.408955 0.611313 0.023130 0.185874
H17   H     H_    0.326040 0.523191 0.906419 0.193806
H18   H     H_    0.672560 0.567376 0.102338 0.181217
Br5   Br    Br    0.348197 0.431378 0.083902 -0.489269
Br6   Br    Br    0.643303 0.680195 0.881529 -0.430100
Br7   Br    Br    0.649806 0.765215 0.610433 -0.462689
Br8   Br    Br    0.306107 0.237633 0.587524 -0.430633

loop_
_geom_bond_atom_site_label_1
_geom_bond_atom_site_label_2
_ccdc_geom_bond_type
O6    Zn2   S    
C29   H11   S    
C40   H15   S    
C30   H12   S    
C27   C29   A    
C17   N1    A    
C32   Br5   S    
C10   Br8   S    
C18   N2    A    
C4    H6    S    
C23   O7    A    
C5    H7    S    
C33   C39   S    
C6    H8    S    
C34   C40   S    
C19   C21   A    
N2    Zn1   S    
C15   C25   A    
O3    Zn2   S    
C15   C17   A    
C1    O1    A    
O1    Zn1   S    
C35   H17   S    
C39   H16   S    
C31   C33   A    
C19   Br1   S    
C23   C27   S    
C3    C13   A    
C13   C14   S    
N1    Zn2   S    
C16   C26   A    
C15   H1    S    
C4    C6    A    
C2    O2    A    
C39   C40   D    
C5    C7    A    
C6    C8    A    
O2    Zn2   S    
C25   C26   S    
C3    H5    S    
C21   Br3   S    
O8    Zn1   S    
C32   C34   A    
C11   H9    S    
C28   C38   A    
C24   O8    A    
C9    Br7   S    
C9    C11   A    
C10   C12   A    
C23   O5    A    
C16   C18   A    
C20   C22   A    
C16   H2    S    
C7    C9    A    
C21   C25   A    
C36   H18   S    
O7    Zn2   S    
C35   C37   A    
C1    C7    S    
C20   Br2   S    
C8    C10   A    
C2    C8    S    
C24   C28   S    
C12   C14   A    
C3    C5    A    
C12   H10   S    
O5    Zn1   S    
C18   H14   S    
C17   H13   S    
C20   N2    A    
C37   H4    S    
C28   C30   A    
C1    O3    A    
C38   H3    S    
C29   C31   A    
C2    O4    A    
C30   C32   A    
C11   C13   A    
C31   Br6   S    
C27   C37   A    
C36   C38   A    
C33   C35   A    
C34   C36   A    
C4    C14   A    
C19   N1    A    
C24   O6    A    
C22   C26   A    
O4    Zn1   S    
C22   Br4   S    
