data_mof_unit_36688.cif
_audit_creation_date              2012-12-10T19:44:59-0500
_audit_creation_method            fapswitch 2.2
_symmetry_space_group_name_H-M    P1
_symmetry_Int_Tables_number       1
_space_group_crystal_system       triclinic
_cell_length_a                    15.06699
_cell_length_b                    10.941701
_cell_length_c                    13.860202
_cell_angle_alpha                 91.839514
_cell_angle_beta                  91.096181
_cell_angle_gamma                 83.468078
_cell_volume                      2268.69392139

loop_
_atom_site_label
_atom_site_type_symbol
_atom_type_description
_atom_site_fract_x
_atom_site_fract_y
_atom_site_fract_z
_atom_type_partial_charge
C1    C     C_R   0.498918 0.262513 0.498358 0.972943
C2    C     C_R   0.444013 0.904254 0.678574 -0.273718
C3    C     C_R   0.647178 0.064233 0.296813 0.587574
C4    C     C_R   0.356659 0.942193 0.710092 0.569385
C5    C     C_R   0.674060 0.083381 0.203348 0.507600
C6    C     C_R   0.333148 0.925505 0.805127 0.461315
C7    C     C_R   0.611939 0.133680 0.134791 -0.018412
C8    C     C_R   0.396714 0.872083 0.870889 0.090734
C9    C     C_R   0.527832 0.925581 0.420752 0.570939
C10   C     C_R   0.471679 0.075094 0.579722 0.581271
C11   C     C_R   0.500939 0.871764 0.504364 -0.245400
C12   C     C_R   0.500561 0.737698 0.501722 0.977077
C13   C     C_R   0.498442 0.128667 0.496094 -0.258086
C14   C     C_R   0.472996 0.948165 0.585368 0.066388
C15   C     C_R   0.526817 0.052478 0.415501 0.047565
C16   C     C_R   0.328581 0.506618 0.499594 0.890179
C17   C     C_R   0.671255 0.494507 0.500370 0.905024
C18   C     C_R   0.579377 0.476552 0.797774 0.529556
C19   C     C_R   0.420696 0.522699 0.202102 0.529008
C20   C     C_R   0.421558 0.519441 0.792521 0.001450
C21   C     C_R   0.578544 0.481473 0.207581 0.022047
C22   C     C_R   0.418530 0.512620 0.895007 -0.099490
C23   C     C_R   0.071666 0.279299 0.499690 0.663839
C24   C     C_R   0.581722 0.488230 0.105054 -0.110082
C25   C     C_R   0.499797 0.502809 0.948741 0.035018
C26   C     C_R   0.500558 0.497163 0.051214 0.033207
C27   C     C_R   0.580399 0.500972 0.899818 -0.139034
C28   C     C_R   0.419945 0.498580 0.100059 -0.135826
C29   C     C_R   0.337115 0.510083 0.944360 0.311482
C30   C     C_R   0.663157 0.491444 0.055809 0.334077
C31   C     C_R   0.340218 0.485853 0.044825 0.362550
C32   C     C_R   0.660206 0.514064 0.954973 0.352107
C33   C     C_R   0.802669 0.602201 0.500670 -0.143647
C34   C     C_R   0.927939 0.720646 0.492266 0.662663
C35   C     C_R   0.197040 0.398332 0.495355 -0.122490
C36   C     C_R   0.768137 0.489561 0.500431 -0.156973
C37   C     C_R   0.231488 0.511180 0.499057 -0.144529
C38   C     C_R   0.825522 0.377401 0.495791 0.396415
C39   C     C_R   0.173646 0.623018 0.504243 0.357634
C40   C     C_R   0.919153 0.381744 0.498522 -0.067754
C41   C     C_R   0.080260 0.618330 0.497197 -0.050925
C42   C     C_R   0.953174 0.497179 0.497699 -0.037382
C43   C     C_R   0.046324 0.502861 0.497118 -0.026459
C44   C     C_R   0.894317 0.607140 0.497174 0.003454
C45   C     C_R   0.522785 0.167276 0.161513 0.412345
C46   C     C_R   0.105288 0.393024 0.497217 -0.002726
C47   C     C_R   0.980118 0.273881 0.501362 -0.131278
C48   C     C_R   0.019480 0.725915 0.490920 -0.136581
C49   C     C_R   0.483903 0.833365 0.839811 0.395283
C50   C     C_R   0.495969 0.148132 0.255408 0.474085
C51   C     C_R   0.507639 0.850949 0.744517 0.495148
C52   C     C_R   0.558117 0.097484 0.323925 -0.252215
Cu1   Cu    Cu3+1 0.500010 0.499980 0.597420 1.091827
Cu2   Cu    Cu3+1 0.499990 0.500020 0.402580 1.103292
F1    F     F_    0.557003 0.854322 0.342700 -0.623844
F2    F     F_    0.295536 0.001836 0.649640 -0.475021
F3    F     F_    0.759740 0.046051 0.178215 -0.477932
F4    F     F_    0.249268 0.967178 0.834081 -0.496152
F5    F     F_    0.443210 0.146763 0.657844 -0.613611
F6    F     F_    0.127442 0.172630 0.501625 -0.556953
F7    F     F_    0.872202 0.827176 0.488090 -0.585282
F8    F     F_    0.460762 0.212263 0.095806 -0.545720
F9    F     F_    0.547136 0.784228 0.902512 -0.576825
F10   F     F_    0.408387 0.170923 0.278202 -0.562725
F11   F     F_    0.593938 0.823798 0.717798 -0.551584
F12   F     F_    0.706081 0.003354 0.358835 -0.503635
H1    H     H_    0.757106 0.686555 0.501850 0.217849
H2    H     H_    0.815396 0.354905 0.240832 0.392429
H3    H     H_    0.184549 0.252804 0.041135 0.410758
H4    H     H_    0.818967 0.743094 0.955897 0.414423
H5    H     H_    0.781067 0.071614 0.565480 0.428221
H6    H     H_    0.316900 0.720809 0.635440 0.338363
H7    H     H_    0.617192 0.951928 0.997274 0.390722
H8    H     H_    0.348446 0.997336 0.111854 0.404196
H9    H     H_    0.242710 0.314099 0.493293 0.218773
H10   H     H_    0.361132 0.530646 0.750431 0.223148
H11   H     H_    0.638878 0.470747 0.249806 0.217855
H12   H     H_    0.958696 0.183512 0.505813 0.250396
H13   H     H_    0.041247 0.815735 0.483746 0.243713
H14   H     H_    0.617472 0.204490 0.712605 0.389409
H15   H     H_    0.381655 0.793552 0.288484 0.382856
H16   H     H_    0.194983 0.726128 0.841857 0.427241
N1    N     N_R   0.499960 0.499900 0.743810 -0.261020
N2    N     N_R   0.500040 0.500100 0.256190 -0.261458
O1    O     O_R   0.500000 0.319630 0.582270 -0.498757
O2    O     O_2   0.716134 0.301885 0.838258 -0.199399
O3    O     O_3   0.642559 0.266939 0.674295 -0.455311
O4    O     O_2   0.283488 0.696621 0.161844 -0.218891
O5    O     O_2   0.257310 0.557260 0.286705 -0.207671
O6    O     O_3   0.356586 0.730628 0.326338 -0.452367
O7    O     O_2   0.220870 0.424284 0.816743 -0.174613
O8    O     O_2   0.154284 0.559871 0.945659 -0.151897
O9    O     O_3   0.232675 0.657971 0.808830 -0.574436
O10   O     O_2   0.846382 0.444273 0.056248 -0.121632
O11   O     O_2   0.777156 0.580594 0.183916 -0.232440
O12   O     O_R   0.500000 0.680370 0.417730 -0.502154
O13   O     O_3   0.767978 0.345433 0.191550 -0.521839
O14   O     O_2   0.294318 0.332282 0.179623 -0.182972
O15   O     O_2   0.176181 0.485859 0.122352 -0.153185
O16   O     O_3   0.227658 0.299213 0.008823 -0.401032
O17   O     O_2   0.824516 0.509605 0.877333 -0.149440
O18   O     O_2   0.707839 0.663828 0.818066 -0.172573
O19   O     O_3   0.774502 0.699277 0.988467 -0.416670
O20   O     O_2   0.684324 0.246408 0.460999 -0.337786
O21   O     O_2   0.828399 0.165027 0.394900 -0.204600
O22   O     O_3   0.805968 0.150422 0.579329 -0.429127
O23   O     O_R   0.499990 0.319660 0.417730 -0.582168
O24   O     O_2   0.210222 0.839046 0.437461 -0.139832
O25   O     O_2   0.159878 0.839326 0.604036 -0.191971
O26   O     O_3   0.320846 0.748647 0.568506 -0.547698
O27   O     O_2   0.576535 0.217168 0.955090 -0.230860
O28   O     O_2   0.732474 0.194825 0.013090 -0.103624
O29   O     O_3   0.660980 0.997391 0.965293 -0.374293
O30   O     O_2   0.276612 0.822147 0.997640 -0.183475
O31   O     O_2   0.434413 0.779443 0.047067 -0.268573
O32   O     O_3   0.363661 0.007131 0.043521 -0.387910
O33   O     O_R   0.500010 0.680340 0.582270 -0.590412
O34   O     O_R   0.370260 0.499960 0.582280 -0.613376
O35   O     O_R   0.629740 0.500040 0.417720 -0.604723
O36   O     O_R   0.370250 0.499990 0.417740 -0.509111
O37   O     O_R   0.629750 0.500010 0.582260 -0.510539
O38   O     O_2   0.742593 0.439684 0.712489 -0.198881
S1    S     S_3+6 0.672453 0.371852 0.755383 0.135983
S2    S     S_3+6 0.367582 0.865052 0.992904 0.135477
S3    S     S_3+6 0.327163 0.626257 0.244518 0.120130
S4    S     S_3+6 0.232696 0.535758 0.879803 0.106163
S5    S     S_3+6 0.767367 0.468118 0.121144 0.107279
S6    S     S_3+6 0.257541 0.401420 0.093123 0.174718
S7    S     S_3+6 0.743788 0.595985 0.905494 0.174079
S8    S     S_3+6 0.782939 0.232758 0.479732 0.060018
S9    S     S_3+6 0.215398 0.766877 0.528172 0.099146
S10   S     S_3+6 0.645297 0.140688 0.014080 0.183182

loop_
_geom_bond_atom_site_label_1
_geom_bond_atom_site_label_2
_ccdc_geom_bond_type
C40   C47   A    
C38   C40   A    
C49   F9    S    
O7    S4    D    
Cu2   O36   S    
C50   F10   S    
C6    F4    S    
O18   S7    D    
O13   S5    S    
Cu2   N2    S    
C39   C41   A    
O5    S3    D    
Cu1   Cu2   S    
C35   H9    S    
O16   S6    S    
Cu2   O23   S    
C38   S8    S    
C48   H13   S    
C22   C29   A    
C24   C26   A    
H14   O3    S    
C16   O36   A    
C11   C14   A    
Cu1   O33   S    
C45   F8    S    
C33   C36   A    
H7    O29   S    
C20   H10   S    
C51   F11   S    
O9    S4    S    
O24   S9    D    
H2    O13   S    
O6    S3    S    
C49   C51   A    
C22   C25   A    
O25   S9    D    
C50   C52   A    
C9    F1    S    
C17   C36   S    
C30   C32   A    
Cu2   O12   S    
C18   S1    S    
O30   S2    D    
C40   C42   A    
C23   C46   A    
O20   S8    D    
Cu2   O35   S    
C4    F2    S    
C41   C43   A    
C42   C44   A    
C31   S6    S    
C32   S7    S    
C1    O1    A    
C23   F6    S    
H6    O26   S    
C23   C47   A    
C34   C44   A    
C4    C6    A    
C10   C14   A    
C5    C7    A    
Cu1   O34   S    
C8    S2    S    
C6    C8    A    
C25   C26   A    
O10   S5    D    
C19   S3    S    
C34   F7    S    
C2    C4    A    
O4    S3    D    
C16   O34   A    
O19   S7    S    
H5    O22   S    
C21   N2    A    
C3    C52   A    
H8    O32   S    
C18   N1    A    
O26   S9    S    
C15   C52   S    
O28   S10   D    
C19   C28   A    
C9    C11   A    
C7    S10   S    
O15   S6    D    
C1    O23   A    
H15   O6    S    
C17   O37   A    
C20   C22   A    
C13   C15   A    
C20   N1    A    
C3    F12   S    
C1    C13   S    
C42   C43   A    
C19   N2    A    
C7    C45   A    
C33   H1    S    
O22   S8    S    
C30   S5    S    
O31   S2    D    
O32   S2    S    
C35   C37   A    
C27   C32   A    
H4    O19   S    
C33   C44   A    
C28   C31   A    
C18   C27   A    
C3    C5    A    
C10   C13   A    
O8    S4    D    
C11   C12   S    
O21   S8    D    
C25   C27   A    
C16   C37   S    
O29   S10   S    
C26   C28   A    
C5    F3    S    
Cu1   N1    S    
C36   C38   A    
C10   F5    S    
C9    C15   A    
C37   C39   A    
Cu1   O37   S    
O3    S1    S    
C39   S9    S    
C45   C50   A    
O14   S6    D    
C41   C48   A    
C2    C14   S    
C43   C46   A    
C24   C30   A    
C2    C51   A    
C17   O35   A    
C12   O33   A    
H3    O16   S    
O11   S5    D    
O27   S10   D    
C34   C48   A    
C29   C31   A    
C21   C24   A    
C21   H11   S    
O2    S1    D    
H16   O9    S    
C12   O12   A    
Cu1   O1    S    
C47   H12   S    
O38   S1    D    
C29   S4    S    
C35   C46   A    
C8    C49   A    
O17   S7    D    
