data_mof_unit_23023.cif
_audit_creation_date              2013-03-05T15:42:28-0500
_audit_creation_method            fapswitch 2.2
_symmetry_space_group_name_H-M    P1
_symmetry_Int_Tables_number       1
_space_group_crystal_system       triclinic
_cell_length_a                    7.72992
_cell_length_b                    8.662236
_cell_length_c                    23.423741
_cell_angle_alpha                 91.004883
_cell_angle_beta                  85.502444
_cell_angle_gamma                 93.812015
_cell_volume                      1560.00725303

loop_
_atom_site_label
_atom_site_type_symbol
_atom_site_description
_atom_site_fract_x
_atom_site_fract_y
_atom_site_fract_z
_atom_type_partial_charge
O1    O     O_R   0.389250 0.738570 0.503790 -0.579411
O2    O     O_R   0.610750 0.261430 0.496210 -0.580566
O3    O     O_R   0.678390 0.711620 0.493890 -0.596249
O4    O     O_R   0.321610 0.288380 0.506110 -0.596711
C1    C     C_R   0.545388 0.794173 0.497837 0.897458
C2    C     C_R   0.454609 0.205837 0.502216 0.894334
O5    O     O_R   0.355400 0.513520 0.588790 -0.573458
O6    O     O_R   0.644600 0.486480 0.411210 -0.569919
O7    O     O_R   0.644550 0.486570 0.578900 -0.629185
O8    O     O_R   0.355450 0.513430 0.421100 -0.629127
C3    C     C_R   0.502234 0.503269 0.610628 0.945219
C4    C     C_R   0.497743 0.496682 0.389343 0.942983
Zn1   Zn    Zn3+2 0.306930 0.518000 0.506610 1.101180
Zn2   Zn    Zn3+2 0.693070 0.482000 0.493390 1.102447
C5    C     C_R   0.396600 0.368662 0.120099 0.604368
C6    C     C_R   0.595606 0.619033 0.880057 0.605980
N1    N     N_R   0.471324 0.492158 0.148155 -0.340773
N2    N     N_R   0.520107 0.495895 0.851992 -0.344100
C7    C     C_R   0.552427 0.616551 0.120110 0.620913
C8    C     C_R   0.438319 0.371755 0.880005 0.630903
C9    C     C_R   0.562055 0.620232 0.060529 -0.062542
C10   C     C_R   0.429342 0.367736 0.939591 -0.064566
C11   C     C_R   0.491048 0.492449 0.030165 -0.035180
C12   C     C_R   0.500832 0.495314 0.969962 -0.038199
C13   C     C_R   0.410732 0.362063 0.059927 -0.147278
C14   C     C_R   0.581421 0.625614 0.940212 -0.149693
C15   C     C_R   0.639952 0.749308 0.031139 -0.121052
C16   C     C_R   0.351618 0.238595 0.968987 -0.119211
C17   C     C_R   0.646695 0.755358 0.971602 0.307203
C18   C     C_R   0.345417 0.232337 0.028525 0.306142
O9    O     O_2   0.307198 0.255277 0.150889 -0.449382
O10   O     O_2   0.685316 0.732287 0.849281 -0.445363
O11   O     O_2   0.623595 0.735840 0.150110 -0.476032
O12   O     O_2   0.366069 0.253047 0.849988 -0.474218
H1    H     H_    0.691294 0.849037 0.054486 0.237964
H2    H     H_    0.300084 0.138959 0.945633 0.238081
C19   C     C_R   0.645494 0.428228 0.756089 0.342106
C20   C     C_R   0.345972 0.560326 0.244114 0.350719
C21   C     C_R   0.637250 0.431971 0.696973 -0.248428
C22   C     C_R   0.357636 0.560747 0.303109 -0.245750
H3    H     H_    0.732930 0.374420 0.669450 0.236675
H4    H     H_    0.261418 0.617671 0.330620 0.239107
C23   C     C_R   0.507102 0.507861 0.672794 -0.231670
C24   C     C_R   0.491819 0.489948 0.327164 -0.241037
C25   C     C_R   0.381791 0.583721 0.707989 0.308365
C26   C     C_R   0.617746 0.414807 0.291880 0.326709
C27   C     C_R   0.385353 0.578655 0.767674 0.028829
C28   C     C_R   0.609105 0.414154 0.232246 0.043119
C29   C     C_R   0.518043 0.501541 0.791376 0.140157
C30   C     C_R   0.473371 0.487260 0.208826 0.126686
C31   C     C_2   0.569682 0.956065 0.500863 0.010470
C32   C     C_2   0.430263 0.043944 0.499312 0.010259
N3    N     N_2   0.950330 0.457950 0.484560 -0.134148
N4    N     N_2   0.049670 0.542050 0.515440 -0.135254
H5    H     H_    0.014608 0.382936 0.457152 0.241952
H6    H     H_    0.985393 0.617073 0.542844 0.241406
N5    N     N_R   0.711005 0.897427 0.944586 0.249987
O13   O     O_R   0.856985 0.965763 0.958506 -0.308169
O14   O     O_R   0.607591 0.974238 0.916205 -0.313423
N6    N     N_R   0.281355 0.090184 0.055530 0.249828
O15   O     O_R   0.135497 0.021630 0.041602 -0.308360
O16   O     O_R   0.384881 0.013563 0.083936 -0.318109
N7    N     N_R   0.781553 0.347916 0.779360 0.242390
O17   O     O_R   0.832659 0.382373 0.829908 -0.355418
O18   O     O_R   0.863615 0.245616 0.748362 -0.290318
N8    N     N_R   0.206559 0.636179 0.220920 0.249408
O19   O     O_R   0.123584 0.738848 0.251429 -0.287274
O20   O     O_R   0.153170 0.596813 0.171084 -0.353547
N9    N     N_R   0.256024 0.671806 0.683328 0.225251
O21   O     O_R   0.091351 0.628386 0.689765 -0.349562
O22   O     O_R   0.306877 0.792646 0.652673 -0.334575
N10   N     N_R   0.750627 0.335822 0.316533 0.219325
O23   O     O_R   0.910399 0.394591 0.312939 -0.348837
O24   O     O_R   0.710143 0.209904 0.345421 -0.332119
C33   C     C_3   0.248367 0.657884 0.805262 -0.586244
H7    H     H_    0.264728 0.650599 0.851646 0.207054
H8    H     H_    0.252524 0.782425 0.794426 0.271012
H9    H     H_    0.117648 0.603430 0.798227 0.282799
C34   C     C_3   0.741782 0.335566 0.192648 -0.625646
H10   H     H_    0.675533 0.242962 0.167414 0.246885
H11   H     H_    0.810543 0.421558 0.162839 0.249988
H12   H     H_    0.841410 0.280645 0.215403 0.287484
N11   N     N_R   0.742409 0.017483 0.510407 0.233514
O25   O     O_R   0.859351 0.032490 0.467491 -0.263579
O26   O     O_R   0.782496 0.056123 0.561892 -0.316488
N12   N     N_R   0.257484 0.982528 0.489840 0.233623
O27   O     O_R   0.140750 0.967331 0.532809 -0.262743
O28   O     O_R   0.217093 0.944241 0.438355 -0.317370

loop_
_geom_bond_atom_site_label_1
_geom_bond_atom_site_label_2
_geom_bond_distance
_ccdc_geom_bond_type
N8    O20   1.300827 A    
N7    O18   1.301839 A    
C15   C17   1.393234 A    
O7    Zn2   2.008852 S    
C21   H3    1.083564 S    
N3    N4    1.279766 D    
O5    C3    1.289906 A    
O1    C1    1.267593 A    
C28   C34   1.515612 S    
C7    C9    1.392554 A    
C12   C14   1.419027 A    
N12   O28   1.301185 A    
N5    O14   1.301249 A    
C19   C29   1.412136 A    
N6    O16   1.301237 A    
C25   C27   1.402003 A    
O4    Zn1   1.999553 S    
C33   H8    1.110411 S    
C20   N8    1.444546 S    
C18   N6    1.434824 S    
C11   C12   1.406838 A    
C3    C23   1.459378 S    
C26   N10   1.434202 S    
C8    O12   1.350359 S    
C28   C30   1.411954 A    
N8    O19   1.301807 A    
C9    C15   1.399678 A    
C10   C16   1.399728 A    
O2    C2    1.267639 A    
C19   N7    1.444895 S    
C24   C26   1.411895 A    
C26   C28   1.403570 A    
N3    H5    1.029332 S    
C6    C14   1.405175 A    
N4    H6    1.029329 S    
N9    O22   1.301231 A    
C25   N9    1.436359 S    
C31   C32   1.363237 D    
C27   C29   1.414160 A    
C7    O11   1.350458 S    
C34   H11   1.110087 S    
N12   O27   1.300398 A    
C21   C23   1.398334 A    
C15   H1    1.083852 S    
C34   H10   1.109628 S    
N6    O15   1.300825 A    
C33   H7    1.106981 S    
O7    C3    1.293297 A    
C22   H4    1.083526 S    
N11   O25   1.300377 A    
C22   C24   1.399209 A    
O6    C4    1.290330 A    
C23   C25   1.410702 A    
O3    Zn2   1.999552 S    
O8    C4    1.293564 A    
N10   O24   1.301065 A    
N11   O26   1.301192 A    
C17   N5    1.434809 S    
C9    C11   1.408958 A    
C10   C12   1.409112 A    
O4    C2    1.287333 A    
O1    Zn1   1.973817 S    
C31   N11   1.436611 S    
Zn1   N4    2.007430 S    
C13   C18   1.418612 A    
C5    N1    1.364772 A    
O6    Zn2   1.991236 S    
C1    C31   1.403732 S    
C8    C10   1.392951 A    
N10   O23   1.301200 A    
O3    C1    1.287403 A    
O8    Zn1   2.008851 S    
N1    C30   1.423875 S    
C34   H12   1.107024 S    
C5    O9    1.348629 S    
C20   C30   1.410832 A    
C6    O10   1.348664 S    
C16   C18   1.393562 A    
C27   C33   1.515476 S    
C19   C21   1.392216 A    
C20   C22   1.391798 A    
N5    O13   1.300823 A    
C32   N12   1.436615 S    
N1    C7    1.362369 A    
N2    C8    1.362300 A    
C11   C13   1.418999 A    
N9    O21   1.301048 A    
O2    Zn2   1.973818 S    
C33   H9    1.109356 S    
C5    C13   1.405569 A    
N7    O17   1.300914 A    
O5    Zn1   1.991236 S    
Zn2   N3    2.007429 S    
C16   H2    1.083841 S    
C14   C17   1.418489 A    
C6    N2    1.365020 A    
C4    C24   1.460790 S    
C2    C32   1.403642 S    
N2    C29   1.422947 S    
