data_mof_unit_28722.cif
_audit_creation_date              2012-12-10T19:00:00-0500
_audit_creation_method            fapswitch 2.2
_symmetry_space_group_name_H-M    P1
_symmetry_Int_Tables_number       1
_space_group_crystal_system       triclinic
_cell_length_a                    10.757335
_cell_length_b                    10.741855
_cell_length_c                    9.800111
_cell_angle_alpha                 90.801689
_cell_angle_beta                  92.343889
_cell_angle_gamma                 88.253054
_cell_volume                      1130.87397019

loop_
_atom_site_label
_atom_site_type_symbol
_atom_type_description
_atom_site_fract_x
_atom_site_fract_y
_atom_site_fract_z
_atom_type_partial_charge
C1    C     C_R   0.503749 0.259722 0.499065 0.942669
C2    C     C_R   0.478445 0.068061 0.617510 -0.343827
C3    C     C_R   0.510817 0.872216 0.505050 -0.199406
C4    C     C_R   0.509256 0.127142 0.498170 -0.200913
C5    C     C_R   0.572956 0.579466 0.076523 -0.077545
C6    C     C_R   0.425179 0.422292 0.923418 -0.083771
C7    C     C_R   0.572348 0.579931 0.932352 -0.046096
C8    C     C_R   0.424666 0.422939 0.067550 -0.066405
C9    C     C_R   0.259724 0.500738 0.497011 0.868683
C10   C     C_R   0.740284 0.496674 0.503030 0.895437
C11   C     C_R   0.067801 0.774971 0.100793 -0.166614
C12   C     C_R   0.503372 0.740088 0.501558 0.920538
C13   C     C_R   0.918242 0.209874 0.894701 -0.178295
C14   C     C_R   0.075424 0.730857 0.234479 -0.203914
C15   C     C_R   0.926227 0.256825 0.762976 -0.197466
C16   C     C_R   0.098453 0.603483 0.259172 0.137858
C17   C     C_R   0.899812 0.383620 0.737517 0.127522
C18   C     C_R   0.124634 0.523234 0.148959 -0.139668
C19   C     C_R   0.859104 0.460712 0.844686 -0.128312
C20   C     C_R   0.118993 0.568090 0.015380 -0.167092
C21   C     C_R   0.851360 0.413613 0.976270 -0.188861
C22   C     C_R   0.084640 0.692670 0.990871 0.197961
C23   C     C_R   0.872718 0.497064 0.507808 -0.055152
C24   C     C_R   0.884367 0.289167 0.002196 0.208954
C25   C     C_R   0.926360 0.551142 0.396761 -0.196521
C26   C     C_R   0.074024 0.440181 0.602477 -0.210220
C27   C     C_3   0.526004 0.098796 0.152997 0.104586
C28   C     C_3   0.592932 0.150504 0.033321 -0.717092
C29   C     C_3   0.334144 0.883172 0.771688 0.139306
C30   C     C_3   0.311372 0.943236 0.910304 -0.861727
C31   C     C_R   0.127506 0.495926 0.491959 -0.065817
C32   C     C_R   0.946569 0.440334 0.612976 0.028191
C33   C     C_R   0.053358 0.550042 0.385820 0.012716
C34   C     C_R   0.546900 0.059283 0.382468 0.500719
C35   C     C_R   0.480353 0.940654 0.622734 0.501278
C36   C     C_R   0.548898 0.930782 0.388297 -0.355675
H1    H     H_    0.629932 0.643845 0.881007 0.149364
H2    H     H_    0.826301 0.475495 0.059435 0.158962
H3    H     H_    0.868506 0.594102 0.315914 0.157817
H4    H     H_    0.132279 0.397445 0.683068 0.151938
H5    H     H_    0.583253 0.876515 0.302972 0.181440
H6    H     H_    0.452706 0.120342 0.707836 0.185060
H7    H     H_    0.631653 0.642501 0.134918 0.126519
H8    H     H_    0.365831 0.359839 0.865046 0.120979
H9    H     H_    0.433888 0.147756 0.160447 0.127470
H10   H     H_    0.511359 0.998546 0.130679 0.133478
H11   H     H_    0.678050 0.092797 0.014484 0.263356
H12   H     H_    0.364737 0.361352 0.118837 0.117111
H13   H     H_    0.531590 0.149278 0.939805 0.191732
H14   H     H_    0.619681 0.247826 0.055510 0.270944
H15   H     H_    0.307481 0.784359 0.774660 0.208000
H16   H     H_    0.271671 0.930586 0.693173 0.128517
H17   H     H_    0.343276 0.040378 0.912564 0.231883
H18   H     H_    0.210549 0.945778 0.929706 0.236826
H19   H     H_    0.361572 0.888841 0.991949 0.257829
H20   H     H_    0.040513 0.871305 0.082477 0.164731
H21   H     H_    0.944106 0.113403 0.914313 0.167411
H22   H     H_    0.051428 0.793519 0.317551 0.161168
H23   H     H_    0.960764 0.196323 0.682744 0.162915
H24   H     H_    0.138249 0.424145 0.165153 0.148305
H25   H     H_    0.841142 0.559038 0.828481 0.169830
H26   H     H_    0.131796 0.503930 0.930639 0.155303
I1    I     I_    0.036823 0.751585 0.790069 -0.535203
I2    I     I_    0.894648 0.224894 0.205154 -0.412450
N1    N     N_R   0.499970 0.499970 0.857200 -0.078901
N2    N     N_R   0.500030 0.500030 0.142800 -0.073418
O1    O     O_R   0.499990 0.316750 0.614620 -0.638103
O2    O     O_3   0.462429 0.884355 0.746177 -0.601620
O3    O     O_R   0.500010 0.683250 0.385380 -0.635817
O4    O     O_R   0.499990 0.316780 0.385290 -0.582879
O5    O     O_R   0.500010 0.683220 0.614710 -0.581672
O6    O     O_R   0.316760 0.500000 0.614660 -0.627023
O7    O     O_R   0.683240 0.500000 0.385340 -0.615312
O8    O     O_R   0.316760 0.500020 0.385330 -0.627081
O9    O     O_R   0.683240 0.499980 0.614670 -0.628213
O10   O     O_3   0.598962 0.117828 0.274252 -0.564221
Zn1   Zn    Zn3+2 0.500000 0.499980 0.653120 0.964714
Zn2   Zn    Zn3+2 0.500000 0.500020 0.346880 0.972282

loop_
_geom_bond_atom_site_label_1
_geom_bond_atom_site_label_2
_ccdc_geom_bond_type
C2    C35   A    
C12   O3    A    
C28   H11   S    
C26   C32   A    
O4    Zn2   S    
O1    Zn1   S    
C9    O6    A    
O3    Zn2   S    
C8    N2    A    
C30   H18   S    
C29   C30   S    
C3    C36   A    
C19   C21   A    
C2    H6    S    
C10   O7    A    
C13   H21   S    
C28   H13   S    
C3    C12   S    
C17   C19   A    
C22   I1    S    
C28   H14   S    
C6    N1    A    
C21   H2    S    
O7    Zn2   S    
C31   C33   A    
C34   C36   A    
C27   H9    S    
C5    H7    S    
C26   C31   A    
C24   I2    S    
C6    H8    S    
C36   H5    S    
C14   H22   S    
N2    Zn2   S    
C30   H17   S    
C4    C34   A    
N1    Zn1   S    
C11   C14   A    
C5    C7    A    
C6    C8    A    
C13   C24   A    
C2    C4    A    
C8    H12   S    
O6    Zn1   S    
C16   C33   S    
C7    N1    A    
C29   O2    S    
C10   O9    A    
C3    C35   A    
C7    H1    S    
O9    Zn1   S    
C27   H10   S    
C18   H24   S    
C12   O5    A    
C20   C22   A    
C13   C15   A    
C14   C16   A    
C9    O8    A    
C27   O10   S    
O5    Zn1   S    
C29   H15   S    
C15   C17   A    
C15   H23   S    
C5    N2    A    
C10   C23   S    
C30   H19   S    
C11   C22   A    
C1    O4    A    
C1    C4    S    
C23   C32   A    
C25   H3    S    
C26   H4    S    
C35   O2    S    
C19   H25   S    
C1    O1    A    
C18   C20   A    
C23   C25   A    
C20   H26   S    
C9    C31   S    
C16   C18   A    
O8    Zn2   S    
C21   C24   A    
C34   O10   S    
C27   C28   S    
C17   C32   S    
C11   H20   S    
C25   C33   A    
C29   H16   S    
