data_mof_unit_43611.cif
_audit_creation_date              2012-10-26T20:16:51-0400
_audit_creation_method            fapswitch 2.2
_symmetry_space_group_name_H-M    P1
_symmetry_Int_Tables_number       1
_space_group_crystal_system       triclinic
_cell_length_a                    10.898357
_cell_length_b                    10.910058
_cell_length_c                    10.423692
_cell_angle_alpha                 92.01237
_cell_angle_beta                  91.572494
_cell_angle_gamma                 90.576694
_cell_volume                      1238.08848372

loop_
_atom_site_label
_atom_site_type_symbol
_atom_type_description
_atom_site_fract_x
_atom_site_fract_y
_atom_site_fract_z
_atom_type_partial_charge
C1    C     C_R   0.498720 0.261394 0.497769 0.555614
C2    C     C_R   0.624351 0.914961 0.815940 0.305136
C3    C     C_R   0.519462 0.106068 0.252558 0.067067
C4    C     C_R   0.510803 0.896193 0.749807 0.065443
C5    C     C_R   0.639409 0.121249 0.209861 -0.140207
C6    C     C_R   0.412702 0.841005 0.811260 -0.113318
C7    C     C_R   0.659323 0.157761 0.085194 -0.135088
C8    C     C_R   0.428475 0.802106 0.936813 -0.133865
C9    C     C_R   0.559768 0.181715 0.002941 -0.149836
C10   C     C_R   0.541581 0.818049 0.001628 -0.153309
C11   C     C_R   0.499315 0.929349 0.387056 -0.152457
C12   C     C_R   0.499665 0.738730 0.502282 0.540270
C13   C     C_R   0.488560 0.071106 0.612843 -0.115660
C14   C     C_R   0.496503 0.872363 0.505194 -0.010886
C15   C     C_R   0.495222 0.127943 0.494916 0.007265
C16   C     C_R   0.261409 0.498329 0.497836 0.550797
C17   C     C_R   0.738667 0.498155 0.502295 0.543775
C18   C     C_R   0.493387 0.944742 0.620130 -0.005261
C19   C     C_R   0.501452 0.055808 0.380375 0.000498
C20   C     C_1   0.499856 0.499855 0.071931 0.085588
C21   C     C_1   0.499724 0.499831 0.928051 0.087077
C22   C     C_R   0.184360 0.524193 0.053762 -0.136969
C23   C     C_R   0.872228 0.493257 0.506496 -0.004562
C24   C     C_R   0.797305 0.438734 0.934443 -0.147032
C25   C     C_R   0.154067 0.544588 0.181889 -0.069135
C26   C     C_R   0.832873 0.428815 0.807187 -0.074021
C27   C     C_R   0.105697 0.448808 0.251749 -0.000335
C28   C     C_R   0.895351 0.525986 0.752543 -0.000124
C29   C     C_R   0.085912 0.333183 0.190568 -0.024927
C30   C     C_R   0.927079 0.630391 0.829923 -0.080178
C31   C     C_R   0.113407 0.311707 0.061079 0.318881
C32   C     C_R   0.892956 0.641651 0.958667 0.296323
C33   C     C_R   0.165649 0.408987 0.993475 -0.106642
C34   C     C_R   0.127947 0.496594 0.494760 -0.000178
C35   C     C_R   0.825719 0.543768 0.009940 -0.095727
C36   C     C_R   0.929432 0.472157 0.389316 -0.167784
C37   C     C_R   0.070889 0.514459 0.612502 -0.162896
C38   C     C_3   0.085949 0.186414 0.874110 -0.138387
C39   C     C_3   0.892826 0.756060 0.154938 -0.146583
C40   C     C_3   0.251632 0.999370 0.153959 -0.091390
C41   C     C_3   0.818870 0.911581 0.740165 -0.136010
C42   C     C_R   0.944262 0.511627 0.621153 -0.036124
C43   C     C_R   0.056155 0.473576 0.381134 -0.038306
C44   C     C_R   0.439939 0.166734 0.044465 -0.088637
C45   C     C_R   0.638623 0.875779 0.942370 -0.082842
C46   C     C_R   0.418805 0.125365 0.168244 0.326964
Cu1   Cu    Cu3+1 0.500000 0.500000 0.625300 0.969821
Cu2   Cu    Cu3+1 0.500000 0.500000 0.374700 0.982842
H1    H     H_    0.191667 0.397888 0.894473 0.098153
H2    H     H_    0.747287 0.364711 0.975123 0.117543
H3    H     H_    0.166018 0.635494 0.225928 0.118437
H4    H     H_    0.812292 0.345120 0.751382 0.132542
H5    H     H_    0.045087 0.259838 0.243077 0.131086
H6    H     H_    0.981125 0.703024 0.790201 0.098345
H7    H     H_    0.874931 0.454579 0.301920 0.128274
H8    H     H_    0.125533 0.529576 0.700293 0.131138
H9    H     H_    0.575554 0.211302 0.906739 0.135858
H10   H     H_    0.553456 0.787472 0.098621 0.113440
H11   H     H_    0.363595 0.185851 0.980081 0.123583
H12   H     H_    0.795251 0.546021 0.107681 0.102741
H13   H     H_    0.723437 0.893982 0.996023 0.144141
H14   H     H_    0.180125 0.193040 0.836601 0.106178
H15   H     H_    0.024813 0.256532 0.832470 0.123852
H16   H     H_    0.048132 0.095192 0.842477 0.140521
H17   H     H_    0.934685 0.682529 0.212034 0.126041
H18   H     H_    0.791086 0.754130 0.160112 0.113035
H19   H     H_    0.925242 0.845024 0.198954 0.135025
H20   H     H_    0.305866 0.919067 0.184353 0.093350
H21   H     H_    0.246176 0.001573 0.047318 0.145876
H22   H     H_    0.156859 0.986764 0.187784 0.161006
H23   H     H_    0.717418 0.102319 0.272455 0.109185
H24   H     H_    0.794349 0.821618 0.691645 0.125917
H25   H     H_    0.870664 0.898781 0.831774 0.158904
H26   H     H_    0.880637 0.960583 0.675908 0.125751
H27   H     H_    0.324181 0.829197 0.762334 0.106096
H28   H     H_    0.752190 0.166180 0.052138 0.141122
H29   H     H_    0.352692 0.760824 0.984629 0.101940
H30   H     H_    0.504376 0.875305 0.298359 0.121068
H31   H     H_    0.485097 0.125343 0.701809 0.134987
H32   H     H_    0.220654 0.598383 0.999891 0.111461
N1    N     N_1   0.500010 0.499990 0.186410 -0.197706
N2    N     N_1   0.499990 0.500010 0.813590 -0.196521
O1    O     O_R   0.499990 0.319650 0.605810 -0.517277
O2    O     O_3   0.930845 0.748742 0.026629 -0.600560
O3    O     O_3   0.300375 0.109812 0.209497 -0.558550
O4    O     O_3   0.714830 0.984289 0.760956 -0.586317
O5    O     O_R   0.500010 0.680350 0.394190 -0.517109
O6    O     O_R   0.499990 0.319640 0.394190 -0.476034
O7    O     O_R   0.500010 0.680360 0.605810 -0.490531
O8    O     O_R   0.319640 0.500010 0.605810 -0.515604
O9    O     O_R   0.680360 0.499990 0.394190 -0.514092
O10   O     O_R   0.319650 0.500010 0.394190 -0.484166
O11   O     O_R   0.680350 0.499990 0.605810 -0.490348
O12   O     O_3   0.088778 0.193949 0.009517 -0.576462

loop_
_geom_bond_atom_site_label_1
_geom_bond_atom_site_label_2
_ccdc_geom_bond_type
C13   H31   S    
C16   O8    A    
C5    H23   S    
C27   C29   A    
C34   C37   A    
C39   H17   S    
C14   C18   A    
C17   O9    A    
C6    H27   S    
C15   C19   A    
C41   O4    S    
C30   H6    S    
C11   C19   A    
C17   C23   S    
C23   C42   A    
C40   H22   S    
C13   C18   A    
C10   H10   S    
C24   C26   A    
C39   O2    S    
C11   C14   A    
C44   H11   S    
C33   H1    S    
Cu2   N1    S    
Cu1   N2    S    
C28   C42   S    
C37   C42   A    
C16   C34   S    
C41   H26   S    
C37   H8    S    
C22   C25   A    
Cu2   O6    S    
C3    C19   S    
C1    C15   S    
Cu1   O1    S    
C46   O3    S    
C4    C18   S    
C1    O6    A    
C20   N1    T    
Cu1   O7    S    
C44   C46   A    
C38   H16   S    
C2    C45   A    
C24   H2    S    
C32   O2    S    
C24   C35   A    
C40   H21   S    
C32   C35   A    
C12   O7    A    
C4    C6    A    
C5    C7    A    
C6    C8    A    
Cu2   O9    S    
C35   H12   S    
C40   O3    S    
C2    C4    A    
C25   H3    S    
C11   H30   S    
C26   H4    S    
Cu1   Cu2   S    
C38   O12   S    
C10   C45   A    
C31   C33   A    
Cu1   O11   S    
Cu2   O5    S    
C21   N2    T    
C41   H24   S    
C12   C14   S    
C16   O10   A    
C13   C15   A    
Cu2   O10   S    
C8    H29   S    
C39   H18   S    
C17   O11   A    
C38   H15   S    
C7    C9    A    
C22   C33   A    
C9    C44   A    
C12   O5    A    
C39   H19   S    
C34   C43   A    
C3    C5    A    
C7    H28   S    
C1    O1    A    
C31   O12   S    
C3    C46   A    
C26   C28   A    
C28   C30   A    
C22   H32   S    
C29   C31   A    
C36   H7    S    
C30   C32   A    
C29   H5    S    
C45   H13   S    
Cu1   O8    S    
C2    O4    S    
C9    H9    S    
C41   H25   S    
C27   C43   S    
C20   C21   S    
C8    C10   A    
C23   C36   A    
C40   H20   S    
C36   C43   A    
C38   H14   S    
C25   C27   A    
