data_mof_unit_11910.cif
_audit_creation_date              2013-03-05T16:43:17-0500
_audit_creation_method            fapswitch 2.2
_symmetry_space_group_name_H-M    P1
_symmetry_Int_Tables_number       1
_space_group_crystal_system       triclinic
_cell_length_a                    15.741643
_cell_length_b                    10.647208
_cell_length_c                    9.876423
_cell_angle_alpha                 90.044363
_cell_angle_beta                  89.650432
_cell_angle_gamma                 89.909682
_cell_volume                      1655.30003186

loop_
_atom_site_label
_atom_site_type_symbol
_atom_site_description
_atom_site_fract_x
_atom_site_fract_y
_atom_site_fract_z
_atom_type_partial_charge
O1    O     O_R   0.500010 0.316790 0.614690 -0.594283
O2    O     O_R   0.500000 0.316760 0.385350 -0.579636
C1    C     C_R   0.506697 0.260164 0.499888 0.918775
O3    O     O_R   0.377150 0.500020 0.614720 -0.582276
O4    O     O_R   0.377140 0.499990 0.385380 -0.620933
C2    C     C_R   0.338384 0.499897 0.500220 0.901962
Zn1   Zn    Zn3+2 0.500010 0.500020 0.653130 1.055752
Zn2   Zn    Zn3+2 0.499990 0.499980 0.346870 1.031800
O5    O     O_R   0.500000 0.683240 0.614650 -0.596675
O6    O     O_R   0.499990 0.683210 0.385310 -0.607410
O7    O     O_R   0.622860 0.500010 0.614620 -0.612448
O8    O     O_R   0.622850 0.499980 0.385280 -0.608415
C3    C     C_R   0.503478 0.740152 0.500153 0.909275
C4    C     C_R   0.661657 0.499850 0.499539 0.901449
C5    C     C_3   0.050010 0.481812 0.635954 -0.469714
C6    C     C_3   0.049246 0.411537 0.391747 0.104481
C7    C     C_3   0.950746 0.415817 0.386733 -0.485060
H1    H     H_    0.066440 0.318339 0.435376 0.151485
H2    H     H_    0.925239 0.319822 0.405606 0.197240
C8    C     C_1   0.750448 0.501743 0.498358 -0.087266
C9    C     C_3   0.082953 0.515200 0.491202 -0.095230
C10   C     C_3   0.952500 0.466652 0.635401 0.152981
C11   C     C_3   0.917195 0.508209 0.495492 0.028703
C12   C     C_3   0.947917 0.641954 0.456215 -0.427517
C13   C     C_3   0.048236 0.650787 0.452664 0.479341
C14   C     C_1   0.825685 0.504311 0.496957 0.026614
C15   C     C_1   0.174549 0.509383 0.495918 0.146236
C16   C     C_1   0.249697 0.504084 0.499407 0.004112
H3    H     H_    0.917607 0.712050 0.523808 0.248999
H4    H     H_    0.069613 0.554813 0.709918 0.293152
C17   C     C_R   0.520192 0.063952 0.622942 0.004068
C18   C     C_R   0.527094 0.129184 0.501206 -0.215504
C19   C     C_R   0.553226 0.063618 0.383229 0.320062
C20   C     C_R   0.546994 0.933048 0.383295 -0.210785
H5    H     H_    0.560104 0.881144 0.291065 0.226457
C21   C     C_R   0.521045 0.871077 0.501733 -0.198879
C22   C     C_R   0.519427 0.936067 0.623864 0.099376
C23   C     C_3   0.457870 0.930920 0.740180 0.129715
C24   C     C_3   0.457640 0.073665 0.737063 -0.385130
H6    H     H_    0.485794 0.118690 0.827970 0.263476
C25   C     C_R   0.437694 0.559656 0.072381 0.139118
N1    N     N_R   0.499430 0.499140 0.142800 -0.113558
C26   C     C_R   0.566191 0.449549 0.071056 -0.022985
C27   C     C_R   0.566155 0.449385 0.927241 -0.023049
H7    H     H_    0.618685 0.407205 0.872626 0.167580
N2    N     N_R   0.499430 0.499180 0.857150 -0.103890
C28   C     C_R   0.436862 0.558188 0.930087 0.136610
C29   C     C_3   0.342210 0.533485 0.931595 0.400784
C30   C     C_3   0.344627 0.538162 0.085769 -0.459636
H8    H     H_    0.329864 0.447003 0.135477 0.243509
H9    H     H_    0.938549 0.364501 0.647219 0.143748
N3    N     N_R   0.912383 0.532617 0.749910 0.243909
O9    O     O_R   0.922951 0.652525 0.768198 -0.287594
O10   O     O_R   0.867224 0.469717 0.837248 -0.336793
H10   H     H_    0.921034 0.663737 0.355010 0.215955
N4    N     N_R   0.585123 0.126821 0.265130 0.223824
O11   O     O_R   0.643780 0.211848 0.278174 -0.401419
O12   O     O_R   0.567992 0.084113 0.144893 -0.329177
H11   H     H_    0.395852 0.887079 0.715100 0.159571
N5    N     N_R   0.495748 0.881566 0.864421 0.252184
O13   O     O_R   0.456753 0.897562 0.979639 -0.298849
O14   O     O_R   0.566034 0.816973 0.860933 -0.345602
H12   H     H_    0.395687 0.113232 0.704321 0.226604
H13   H     H_    0.619043 0.408308 0.124288 0.200310
H14   H     H_    0.079122 0.392264 0.671356 0.212514
N6    N     N_R   0.293061 0.636942 0.872246 0.224305
O15   O     O_R   0.231140 0.614289 0.789261 -0.320277
O16   O     O_R   0.307977 0.752622 0.907271 -0.328024
N7    N     N_R   0.315477 0.409198 0.882659 0.215682
O17   O     O_R   0.370506 0.327541 0.838387 -0.402700
O18   O     O_R   0.237042 0.373911 0.899966 -0.276808
H15   H     H_    0.311616 0.620379 0.131459 0.261493
N8    N     N_R   0.088897 0.417601 0.256400 0.261754
O19   O     O_R   0.161119 0.361048 0.235264 -0.337961
O20   O     O_R   0.050755 0.469881 0.154242 -0.269347
H16   H     H_    0.926465 0.444372 0.285950 0.259551
N9    N     N_R   0.080402 0.745564 0.549817 0.224249
O21   O     O_R   0.029663 0.814979 0.622745 -0.293621
O22   O     O_R   0.161169 0.771482 0.552049 -0.309337
N10   N     N_R   0.076478 0.690410 0.316022 0.240882
O23   O     O_R   0.034959 0.778998 0.254002 -0.292142
O24   O     O_R   0.154285 0.669510 0.276558 -0.319718

loop_
_geom_bond_atom_site_label_1
_geom_bond_atom_site_label_2
_geom_bond_distance
_ccdc_geom_bond_type
N6    O16   1.301173 A    
C6    C9    1.571979 S    
C13   N10   1.480211 S    
N8    O19   1.301305 A    
C29   N7    1.471424 S    
N9    O21   1.301256 A    
C27   H7    1.081403 S    
C12   H10   1.112281 S    
Zn1   O7    1.968629 S    
C7    C11   1.546033 S    
C13   N9    1.483707 S    
C21   C22   1.390218 A    
Zn2   N1    2.015568 S    
O4    C2    1.284593 A    
O7    C4    1.286995 A    
C5    H14   1.114629 S    
N4    O11   1.301015 A    
N5    O14   1.302094 A    
C20   H5    1.083654 S    
C25   N1    1.360248 A    
C11   C14   1.441167 S    
N7    O18   1.301471 A    
O5    C3    1.284262 A    
C12   H3    1.106587 S    
C5    C10   1.543728 S    
C2    C16   1.396800 S    
C17   C18   1.392729 A    
C27   N2    1.367938 A    
C6    C7    1.552230 S    
C30   H15   1.111336 S    
C7    H16   1.110883 S    
C11   C12   1.553359 S    
C19   N4    1.435472 S    
N6    O15   1.300085 A    
C9    C15   1.444143 S    
N8    O20   1.302130 A    
N7    O17   1.299944 A    
O3    Zn1   1.973142 S    
C25   C30   1.488242 S    
N3    O10   1.301092 A    
C26   H13   1.079793 S    
N9    O22   1.301759 A    
C6    N8    1.473349 S    
Zn1   N2    2.014980 S    
C4    C8    1.397866 S    
C12   C13   1.582311 S    
C3    C21   1.421667 S    
N10   O24   1.301832 A    
C24   H6    1.112298 S    
C17   C22   1.361731 A    
N5    O13   1.300605 A    
O1    C1    1.287414 A    
C26   C27   1.420381 A    
C22   C23   1.499459 S    
C28   C29   1.513415 S    
Zn2   O8    1.973142 S    
C19   C20   1.393821 A    
C25   C28   1.405572 A    
C6    H1    1.115715 S    
C23   N5    1.465010 S    
O3    C2    1.288272 A    
C29   C30   1.524171 S    
O8    C4    1.286488 A    
N1    C26   1.368899 A    
N3    O9    1.300348 A    
C5    H4    1.111575 S    
C10   N3    1.469616 S    
Zn1   O5    1.987746 S    
C9    C13   1.590112 S    
N2    C28   1.368351 A    
O1    Zn1   1.987196 S    
O2    Zn2   1.987746 S    
N10   O23   1.302248 A    
O6    C3    1.287201 A    
O4    Zn2   1.968628 S    
C24   H12   1.111711 S    
C18   C19   1.416407 A    
O2    C1    1.286938 A    
C23   C24   1.520170 S    
C8    C14   1.184706 T    
C7    H2    1.114131 S    
N4    O12   1.301204 A    
C20   C21   1.402402 A    
C1    C18   1.430654 S    
C23   H11   1.111997 S    
C5    C9    1.559308 S    
Zn2   O6    1.987196 S    
C30   H8    1.112258 S    
C15   C16   1.184920 T    
C17   C24   1.495529 S    
C10   C11   1.556786 S    
C29   N6    1.469482 S    
C10   H9    1.115977 S    
