data_mof_unit_34391.cif
_audit_creation_date              2012-12-10T19:00:14-0500
_audit_creation_method            fapswitch 2.2
_symmetry_space_group_name_H-M    P1
_symmetry_Int_Tables_number       1
_space_group_crystal_system       triclinic
_cell_length_a                    9.565096
_cell_length_b                    10.825942
_cell_length_c                    13.443666
_cell_angle_alpha                 90.833259
_cell_angle_beta                  72.080552
_cell_angle_gamma                 89.355517
_cell_volume                      1324.25536455

loop_
_atom_site_label
_atom_site_type_symbol
_atom_type_description
_atom_site_fract_x
_atom_site_fract_y
_atom_site_fract_z
_atom_type_partial_charge
C1    C     C_R   0.498461 0.737580 0.502314 0.827236
C2    C     C_R   0.435515 0.489173 0.979262 0.082273
C3    C     C_R   0.470630 0.456606 0.871608 0.086893
C4    C     C_R   0.543732 0.470473 0.030684 0.076212
C5    C     C_R   0.678465 0.409122 0.977025 0.169023
C6    C     C_R   0.703668 0.365807 0.874949 -0.257624
C7    C     C_R   0.600723 0.387558 0.823531 -0.215583
C8    C     C_R   0.522457 0.510907 0.133991 -0.254828
C9    C     C_R   0.757456 0.423474 0.131602 -0.207721
C10   C     C_R   0.373310 0.492435 0.815407 -0.101068
C11   C     C_R   0.370618 0.938241 0.509508 0.113772
C12   C     C_R   0.421176 0.494563 0.700171 0.768212
C13   C     C_R   0.493006 0.870664 0.514243 -0.165954
C14   C     C_R   0.609448 0.933191 0.534703 -0.307228
C15   C     C_R   0.611099 0.062847 0.537283 0.481710
C16   C     C_R   0.496272 0.129145 0.514627 -0.206116
C17   C     C_R   0.372603 0.065237 0.509325 0.060797
C18   C     C_3   0.291331 0.072425 0.430751 -0.442771
C19   C     C_3   0.289548 0.932268 0.430690 -0.434682
C20   C     C_R   0.951000 0.410796 0.445941 0.301093
C21   C     C_R   0.895631 0.579287 0.561865 -0.084986
C22   C     C_R   0.043073 0.579780 0.563521 0.253004
C23   C     C_R   0.499816 0.262295 0.502614 0.824694
C24   C     C_R   0.098240 0.410784 0.445807 0.215098
C25   C     C_3   0.153226 0.384903 0.330979 -0.495133
C26   C     C_3   0.994595 0.385026 0.331294 -0.507800
C27   C     C_R   0.579010 0.498217 0.299867 0.794424
C28   C     C_R   0.785229 0.388553 0.027157 -0.198876
C29   C     C_R   0.624249 0.482114 0.186002 -0.047898
C30   C     C_R   0.232985 0.539420 0.870041 -0.198008
C31   C     C_R   0.192227 0.558591 0.977465 -0.152106
C32   C     C_R   0.292698 0.536963 0.031451 -0.183347
Cu1   Cu    Cu3+1 0.359330 0.500020 0.500010 0.934945
Cu2   Cu    Cu3+1 0.640670 0.499980 0.499990 0.951847
H1    H     H_    0.837079 0.399703 0.170688 0.148702
H2    H     H_    0.180318 0.115524 0.464230 0.207954
H3    H     H_    0.358867 0.110794 0.355156 0.190055
H4    H     H_    0.177393 0.894821 0.463614 0.198527
H5    H     H_    0.356168 0.889120 0.355134 0.192867
H6    H     H_    0.815659 0.644451 0.610178 0.152880
H7    H     H_    0.215586 0.462710 0.286614 0.211574
H8    H     H_    0.208363 0.292878 0.311899 0.197978
H9    H     H_    0.967831 0.463303 0.287397 0.204923
H10   H     H_    0.803430 0.314390 0.834591 0.140465
H11   H     H_    0.957618 0.292975 0.312731 0.206672
H12   H     H_    0.888110 0.341554 0.986594 0.140156
H13   H     H_    0.426405 0.563967 0.176779 0.135886
H14   H     H_    0.155554 0.564709 0.829335 0.155882
H15   H     H_    0.253621 0.555858 0.114335 0.121685
H16   H     H_    0.083310 0.594371 0.018846 0.146549
H17   H     H_    0.623217 0.346143 0.746588 0.181135
H18   H     H_    0.703167 0.882020 0.542722 0.173248
N1    N     N_R   0.852320 0.499070 0.499340 -0.210847
N2    N     N_R   0.148230 0.499110 0.499340 -0.189063
O1    O     O_R   0.381190 0.680360 0.500000 -0.581400
O2    O     O_R   0.618780 0.680320 0.499990 -0.586478
O3    O     O_R   0.323230 0.500000 0.650990 -0.590204
O4    O     O_R   0.560820 0.499960 0.650980 -0.584628
O5    O     O_R   0.381220 0.319680 0.500010 -0.581837
O6    O     O_R   0.618810 0.319640 0.500000 -0.528446
O7    O     O_R   0.439180 0.500040 0.349020 -0.583497
O8    O     O_R   0.676770 0.500000 0.349010 -0.584468
O9    O     O_3   0.732910 0.123796 0.547383 -0.560577
C33   C     C_3   0.750202 0.099763 0.645857 -0.345182
H19   H     H_    0.799019 0.006348 0.646676 0.159613
H20   H     H_    0.827846 0.167693 0.660652 0.182710
H21   H     H_    0.644779 0.110659 0.710581 0.152014
C34   C     C_3   0.072988 0.673225 0.638215 -0.823891
H22   H     H_    0.182759 0.669891 0.646309 0.280367
H23   H     H_    0.053562 0.767689 0.613739 0.196627
H24   H     H_    0.995581 0.658941 0.717699 0.192541

loop_
_geom_bond_atom_site_label_1
_geom_bond_atom_site_label_2
_ccdc_geom_bond_type
C25   H8    S    
Cu1   O1    S    
C25   H7    S    
C2    C4    A    
C14   H18   S    
Cu2   O2    S    
C6    C7    A    
C27   O8    A    
C27   C29   S    
C5    C28   A    
C27   O7    A    
C10   C30   A    
C31   C32   A    
Cu2   O6    S    
C17   C18   S    
C9    C29   A    
C30   C31   A    
C4    C8    A    
C28   H12   S    
C33   H19   S    
C2    C3    A    
C1    O1    A    
C8    H13   S    
C7    H17   S    
C12   O4    A    
Cu1   O5    S    
C3    C10   A    
C6    H10   S    
C13   C14   A    
C21   N1    A    
C11   C13   A    
C11   C19   S    
C5    C6    A    
C21   H6    S    
C19   H5    S    
C34   H24   S    
C12   O3    A    
C10   C12   S    
C2    C32   A    
C19   H4    S    
C18   H3    S    
C26   H9    S    
Cu1   Cu2   S    
C16   C23   S    
C3    C7    A    
C22   N2    A    
C23   O6    A    
Cu2   O4    S    
C1    O2    A    
C32   H15   S    
C1    C13   S    
C8    C29   A    
C31   H16   S    
C24   N2    A    
C15   C16   A    
C33   H21   S    
C20   C24   A    
Cu2   O8    S    
C16   C17   A    
C24   C25   S    
Cu2   N1    S    
C34   H23   S    
C18   C19   S    
C30   H14   S    
Cu1   N2    S    
C9    H1    S    
C15   O9    S    
C14   C15   A    
C4    C5    A    
Cu1   O3    S    
C22   C34   S    
C23   O5    A    
C25   C26   S    
C21   C22   A    
C18   H2    S    
Cu1   O7    S    
C34   H22   S    
C11   C17   A    
O9    C33   S    
C9    C28   A    
C20   C26   S    
C20   N1    A    
C26   H11   S    
C33   H20   S    
