data_mof_unit_59277.cif
_audit_creation_date              2012-12-10T16:55:00-0500
_audit_creation_method            fapswitch 2.2
_symmetry_space_group_name_H-M    P1
_symmetry_Int_Tables_number       1
_space_group_crystal_system       triclinic
_cell_length_a                    9.722205
_cell_length_b                    10.898593
_cell_length_c                    15.439817
_cell_angle_alpha                 88.595631
_cell_angle_beta                  73.858134
_cell_angle_gamma                 88.803088
_cell_volume                      1570.84047751

loop_
_atom_site_label
_atom_site_type_symbol
_atom_type_description
_atom_site_fract_x
_atom_site_fract_y
_atom_site_fract_z
_atom_type_partial_charge
C1    C     C_R   0.003216 0.265359 0.495154 0.877660
C2    C     C_R   0.678339 0.506271 0.909704 -0.005801
C3    C     C_R   0.763775 0.437156 0.955419 0.131550
C4    C     C_R   0.530125 0.527129 0.954611 0.051603
C5    C     C_R   0.475101 0.491775 0.047085 0.049057
C6    C     C_R   0.571458 0.445475 0.093658 -0.245168
C7    C     C_R   0.711494 0.412096 0.048180 0.109411
C8    C     C_R   0.432920 0.574903 0.908933 -0.225828
C9    C     C_R   0.292456 0.603768 0.954505 -0.199129
C10   C     C_R   0.239542 0.575089 0.045780 0.089659
C11   C     C_R   0.325992 0.508523 0.091243 0.070321
C12   C     C_R   0.917205 0.500367 0.672162 0.818795
C13   C     C_R   0.099886 0.610756 0.091521 -0.253117
C14   C     C_R   0.046614 0.586999 0.183861 0.118541
C15   C     C_R   0.258444 0.460015 0.178654 0.150365
C16   C     C_2   0.925152 0.934324 0.448940 0.225294
C17   C     C_2   0.993195 0.867605 0.499776 -0.373159
C18   C     C_2   0.914156 0.069846 0.455891 0.131627
C19   C     C_2   0.012964 0.133257 0.482245 -0.370544
C20   C     C_2   0.407702 0.415795 0.541259 0.165004
C21   C     C_2   0.558128 0.425681 0.550696 0.342677
C22   C     C_R   0.999035 0.734786 0.498509 0.907847
C23   C     C_R   0.082742 0.500649 0.327665 0.814390
C24   C     C_R   0.872516 0.490291 0.770839 -0.025004
C25   C     C_R   0.127170 0.512811 0.228614 -0.113725
C26   C     C_R   0.901073 0.395340 0.907645 -0.164909
C27   C     C_R   0.951404 0.416268 0.815267 -0.282946
C28   C     C_R   0.745247 0.547851 0.819893 0.099829
Cu1   Cu    Cu3+1 0.138640 0.500020 0.499980 0.919623
Cu2   Cu    Cu3+1 0.861360 0.499980 0.500020 0.976750
H1    H     H_    0.034923 0.663695 0.056825 0.147770
H2    H     H_    0.042729 0.909791 0.546186 0.110649
H3    H     H_    0.109348 0.088463 0.490418 0.114721
H4    H     H_    0.401520 0.577876 0.478238 0.167809
H5    H     H_    0.624963 0.549972 0.451549 0.149037
H6    H     H_    0.224041 0.647133 0.917550 0.147785
H7    H     H_    0.967199 0.340892 0.940477 0.179860
H8    H     H_    0.052070 0.374448 0.778464 0.153403
H9    H     H_    0.540148 0.433370 0.166025 0.189041
H10   H     H_    0.461876 0.591013 0.837531 0.143090
N1    N     N_2   0.346430 0.498660 0.500980 -0.304384
N2    N     N_2   0.652550 0.498630 0.501000 -0.311898
O1    O     O_R   0.117050 0.321960 0.499980 -0.613127
O2    O     O_R   0.882890 0.321920 0.500020 -0.516424
O3    O     O_R   0.052910 0.500040 0.629810 -0.593204
O4    O     O_R   0.818750 0.499990 0.629840 -0.551075
O5    O     O_R   0.117110 0.678080 0.499980 -0.588793
O6    O     O_R   0.882950 0.678040 0.500020 -0.545105
O7    O     O_R   0.181250 0.500010 0.370160 -0.590905
O8    O     O_R   0.947090 0.499960 0.370190 -0.539575
N3    N     N_3   0.800678 0.352329 0.096938 -0.612197
H11   H     H_    0.807231 0.409305 0.149041 0.225382
H12   H     H_    0.750548 0.271531 0.126234 0.223530
N4    N     N_2   0.866551 0.875519 0.385799 -0.407260
H13   H     H_    0.896332 0.914928 0.322055 0.230678
C29   C     C_3   0.715059 0.848858 0.416503 -0.645731
H14   H     H_    0.695217 0.762332 0.385872 0.233048
H15   H     H_    0.651650 0.923442 0.394858 0.188407
H16   H     H_    0.677570 0.837618 0.491130 0.234579
N5    N     N_3   0.797456 0.133050 0.432908 -0.552006
H17   H     H_    0.701470 0.098158 0.473973 0.213007
H18   H     H_    0.803407 0.116266 0.365631 0.209932
N6    N     N_3   0.332473 0.307799 0.581233 -0.608189
H19   H     H_    0.327038 0.248416 0.530318 0.237493
H20   H     H_    0.231542 0.331228 0.622744 0.261551
N7    N     N_2   0.601610 0.342675 0.611039 -0.343678
H21   H     H_    0.595513 0.251915 0.595378 0.250660
C30   C     C_3   0.536046 0.364944 0.705581 -0.654163
H22   H     H_    0.593284 0.310250 0.746720 0.221331
H23   H     H_    0.421776 0.338286 0.725571 0.217487
H24   H     H_    0.543315 0.463191 0.719638 0.223029
N8    N     N_2   0.309760 0.347988 0.209956 -0.446460
H25   H     H_    0.275352 0.329143 0.278096 0.267030
C31   C     C_3   0.299268 0.241112 0.158384 -0.696474
H26   H     H_    0.346716 0.160017 0.184997 0.222168
H27   H     H_    0.358680 0.254510 0.086270 0.245993
H28   H     H_    0.185090 0.222454 0.164074 0.226992
N9    N     N_3   0.911987 0.640447 0.232011 -0.563207
H29   H     H_    0.833540 0.610977 0.203029 0.208634
H30   H     H_    0.919240 0.735631 0.222664 0.216358
N10   N     N_3   0.708354 0.663839 0.784822 -0.616986
H31   H     H_    0.652362 0.650434 0.737205 0.220313
H32   H     H_    0.650201 0.720377 0.836377 0.229400

loop_
_geom_bond_atom_site_label_1
_geom_bond_atom_site_label_2
_ccdc_geom_bond_type
C8    C9    A    
C22   O6    A    
N6    H20   S    
C21   N7    S    
N7    C30   S    
C24   C27   A    
C4    C8    A    
N10   H31   S    
Cu1   O7    S    
C15   N8    S    
C26   C27   A    
C31   H27   S    
Cu1   O5    S    
Cu2   O6    S    
C5    C11   A    
C3    C7    A    
C5    C6    A    
N9    H30   S    
C15   C25   A    
C27   H8    S    
C29   H14   S    
N5    H18   S    
C18   C19   D    
H5    N2    S    
C30   H22   S    
C11   C15   A    
C1    O1    A    
C16   C17   D    
C31   H28   S    
C9    H6    S    
C9    C10   A    
N8    H25   S    
C14   N9    S    
N7    H21   S    
Cu2   O8    S    
C13   C14   A    
Cu1   O1    S    
Cu2   O2    S    
H4    N1    S    
N10   H32   S    
C13   H1    S    
C20   N1    D    
N4    C29   S    
C1    C19   S    
C31   H26   S    
N3    H11   S    
C12   O4    A    
C19   H3    S    
N9    H29   S    
C4    C5    A    
C23   O8    A    
N6    H19   S    
Cu1   O3    S    
N5    H17   S    
N3    H12   S    
C2    C4    A    
Cu1   Cu2   S    
C1    O2    A    
N8    C31   S    
C18   N5    S    
C17   H2    S    
N4    H13   S    
Cu1   N1    S    
C28   N10   S    
Cu2   O4    S    
C3    C26   A    
C24   C28   A    
C12   O3    A    
C10   C13   A    
C26   H7    S    
C6    C7    A    
C12   C24   S    
C17   C22   S    
C29   H16   S    
C20   N6    S    
C2    C3    A    
C7    N3    S    
C30   H24   S    
C29   H15   S    
C22   O5    A    
C23   C25   S    
C14   C25   A    
C16   N4    S    
C23   O7    A    
C10   C11   A    
C21   N2    D    
C20   C21   S    
C16   C18   S    
C30   H23   S    
C6    H9    S    
Cu2   N2    S    
C2    C28   A    
C8    H10   S    
