data_mof_unit_54091.cif
_audit_creation_date              2012-12-10T20:38:23-0500
_audit_creation_method            fapswitch 2.2
_symmetry_space_group_name_H-M    P1
_symmetry_Int_Tables_number       1
_space_group_crystal_system       triclinic
_cell_length_a                    9.934922
_cell_length_b                    10.772445
_cell_length_c                    16.679321
_cell_angle_alpha                 92.574449
_cell_angle_beta                  84.169401
_cell_angle_gamma                 89.621545
_cell_volume                      1773.93835097

loop_
_atom_site_label
_atom_site_type_symbol
_atom_type_description
_atom_site_fract_x
_atom_site_fract_y
_atom_site_fract_z
_atom_type_partial_charge
C1    C     C_R   0.499815 0.740029 0.498969 0.884025
C2    C     C_R   0.534315 0.495354 0.257514 -0.107662
C3    C     C_R   0.397825 0.937788 0.463386 0.028795
C4    C     C_R   0.481064 0.481696 0.651231 0.865258
C5    C     C_R   0.504233 0.871423 0.489384 -0.141821
C6    C     C_R   0.626219 0.933482 0.495673 -0.291966
C7    C     C_R   0.630521 0.061914 0.495644 0.209405
C8    C     C_R   0.512672 0.128245 0.480380 -0.162051
C9    C     C_R   0.407996 0.061582 0.449998 0.047989
C10   C     C_3   0.257625 0.077352 0.454393 0.003182
C11   C     C_3   0.246859 0.942100 0.479117 -0.021083
C12   C     C_R   0.343646 0.418890 0.775587 -0.316131
C13   C     C_R   0.917235 0.517080 0.570349 0.102902
C14   C     C_R   0.938719 0.461413 0.433520 -0.163865
C15   C     C_R   0.083093 0.455264 0.433926 0.237577
C16   C     C_R   0.502298 0.260196 0.495135 0.869099
C17   C     C_R   0.058864 0.520637 0.570349 0.053523
C18   C     C_3   0.047583 0.633324 0.627298 -0.068110
C19   C     C_3   0.894589 0.619085 0.633836 0.027743
C20   C     C_R   0.520189 0.501984 0.346219 0.882692
C21   C     C_R   0.470464 0.424552 0.730265 -0.153085
C22   C     C_R   0.584059 0.365424 0.758310 0.212682
C23   C     C_R   0.421168 0.460140 0.137361 -0.228704
C24   C     C_R   0.571017 0.322912 0.836622 -0.250543
C25   C     C_R   0.449545 0.338969 0.886339 0.108077
C26   C     C_R   0.332408 0.378685 0.854203 0.255929
C27   C     C_3   0.832071 0.317543 0.739949 -0.841536
C28   C     C_3   0.839731 0.304431 0.067467 -0.831079
C29   C     C_3   0.849520 0.138635 0.449773 -0.775425
C30   C     C_3   0.281753 0.041735 0.302941 -0.777115
C31   C     C_3   0.061355 0.966165 0.587353 -0.827529
C32   C     C_3   0.109344 0.353611 0.295660 -0.892362
C33   C     C_3   0.054642 0.699965 0.769643 -0.821018
C34   C     C_R   0.416069 0.492037 0.218601 -0.266388
C35   C     C_3   0.726941 0.789208 0.664251 -0.754453
C36   C     C_3   0.824492 0.627166 0.256964 -0.787454
C37   C     C_3   0.178916 0.489914 0.956734 -0.819115
C38   C     C_R   0.661791 0.482018 0.211267 0.149322
C39   C     C_R   0.667033 0.448722 0.128187 0.174629
C40   C     C_R   0.545396 0.433573 0.092546 0.138949
C41   C     C_2   0.453147 0.337370 0.973605 -0.221018
C42   C     C_2   0.549397 0.403479 0.006176 -0.213496
H1    H     H_    0.717275 0.885011 0.505224 0.172750
H2    H     H_    0.830107 0.222007 0.762432 0.236623
H3    H     H_    0.848997 0.386747 0.789249 0.250788
H4    H     H_    0.868578 0.492240 0.094069 0.229134
H5    H     H_    0.861484 0.266251 0.125634 0.234715
H6    H     H_    0.933776 0.299974 0.025302 0.251273
H7    H     H_    0.762396 0.246342 0.040613 0.259310
H8    H     H_    0.790436 0.082741 0.564796 0.215647
H9    H     H_    0.885799 0.046560 0.423125 0.215983
H10   H     H_    0.936087 0.191218 0.470732 0.229350
H11   H     H_    0.806069 0.192118 0.402912 0.253612
H12   H     H_    0.085485 0.716491 0.596425 0.162382
H13   H     H_    0.215900 0.147941 0.501033 0.165071
H14   H     H_    0.105591 0.086230 0.376900 0.231537
H15   H     H_    0.228908 0.065849 0.250088 0.232104
H16   H     H_    0.286604 0.938950 0.305044 0.232488
H17   H     H_    0.385447 0.080001 0.294334 0.251485
H18   H     H_    0.239430 0.861512 0.591852 0.239415
H19   H     H_    0.033708 0.945322 0.651393 0.249360
H20   H     H_    0.996733 0.911250 0.548772 0.239815
H21   H     H_    0.041389 0.066469 0.581199 0.246870
H22   H     H_    0.193928 0.876572 0.439812 0.149113
H23   H     H_    0.846484 0.583111 0.691207 0.187888
H24   H     H_    0.890773 0.430928 0.381117 0.188141
H25   H     H_    0.235439 0.333297 0.387143 0.288589
H26   H     H_    0.029314 0.283669 0.308443 0.241980
H27   H     H_    0.190102 0.309691 0.252515 0.263098
H28   H     H_    0.069786 0.435058 0.266916 0.244716
H29   H     H_    0.208869 0.624301 0.693575 0.258971
H30   H     H_    0.117751 0.689996 0.820279 0.238838
H31   H     H_    0.949386 0.676523 0.791938 0.245443
H32   H     H_    0.059239 0.798068 0.751926 0.244673
H33   H     H_    0.318323 0.511948 0.251326 0.209915
H34   H     H_    0.327400 0.457676 0.109550 0.157035
H35   H     H_    0.833709 0.741714 0.547772 0.236943
H36   H     H_    0.714249 0.887322 0.648823 0.223230
H37   H     H_    0.755559 0.789467 0.726938 0.230066
H38   H     H_    0.629663 0.740210 0.661194 0.252726
H39   H     H_    0.861301 0.439851 0.225948 0.219471
H40   H     H_    0.849559 0.665976 0.196739 0.222402
H41   H     H_    0.915355 0.632563 0.290543 0.233718
H42   H     H_    0.742551 0.684136 0.291329 0.255465
H43   H     H_    0.631384 0.443152 0.967613 0.183263
H44   H     H_    0.123285 0.361709 0.869170 0.228934
H45   H     H_    0.253189 0.448805 0.751386 0.190682
H46   H     H_    0.102155 0.552163 0.935047 0.238252
H47   H     H_    0.272172 0.544248 0.963732 0.253296
H48   H     H_    0.138864 0.457841 0.016720 0.238288
H49   H     H_    0.368400 0.299909 0.010904 0.178646
H50   H     H_    0.656789 0.282578 0.861526 0.166554
H51   H     H_    0.694714 0.295099 0.653419 0.255583
H52   H     H_    0.917987 0.322790 0.692206 0.246611
N1    N     N_R   0.857140 0.500860 0.500530 -0.122350
N2    N     N_2   0.831294 0.729549 0.608579 -0.295948
N3    N     N_2   0.783462 0.498994 0.248354 -0.303622
N4    N     N_2   0.204329 0.382960 0.901207 -0.314874
N5    N     N_R   0.142780 0.500820 0.500530 -0.150952
N6    N     N_2   0.706934 0.344935 0.706358 -0.282823
N7    N     N_2   0.793426 0.432123 0.079823 -0.327021
N8    N     N_2   0.749485 0.121986 0.517336 -0.282192
N9    N     N_2   0.208474 0.095754 0.376103 -0.317200
N10   N     N_2   0.202963 0.936890 0.564583 -0.298156
N11   N     N_2   0.165855 0.394226 0.368883 -0.267471
N12   N     N_2   0.105552 0.616929 0.702471 -0.296173
O1    O     O_R   0.385310 0.683210 0.499990 -0.627493
O2    O     O_R   0.614650 0.683240 0.500000 -0.614478
O3    O     O_R   0.371780 0.500000 0.615800 -0.627556
O4    O     O_R   0.601120 0.500040 0.615800 -0.595997
O5    O     O_R   0.385350 0.316760 0.500000 -0.646109
O6    O     O_R   0.614690 0.316790 0.500010 -0.590801
O7    O     O_R   0.398880 0.499960 0.384200 -0.617970
O8    O     O_R   0.628220 0.500000 0.384200 -0.590168
Zn1   Zn    Zn3+2 0.346870 0.499980 0.499990 0.927225
Zn2   Zn    Zn3+2 0.653130 0.500020 0.500010 0.951123

loop_
_geom_bond_atom_site_label_1
_geom_bond_atom_site_label_2
_ccdc_geom_bond_type
C4    O3    A    
C28   H5    S    
C41   C42   D    
C31   H19   S    
C37   H46   S    
C23   H34   S    
C7    C8    A    
C35   N2    S    
H39   N3    S    
C37   H48   S    
C13   N1    A    
C1    C5    S    
C10   N9    S    
N5    Zn1   S    
C5    C6    A    
C36   H41   S    
C23   C40   A    
C30   H15   S    
C35   H38   S    
C18   C19   S    
C33   H30   S    
C28   N7    S    
C36   H40   S    
C8    C9    A    
C7    N8    S    
C30   N9    S    
C11   N10   S    
C9    C10   S    
C34   H33   S    
C32   H26   S    
C27   H3    S    
C40   C42   S    
C8    C16   S    
C21   C22   A    
C31   H20   S    
C38   N3    S    
C24   H50   S    
C37   N4    S    
C39   N7    S    
C6    C7    A    
H4    N7    S    
C27   N6    S    
C22   N6    S    
C13   C19   S    
C2    C20   S    
C31   H21   S    
C24   C25   A    
C11   H22   S    
C25   C41   S    
C39   C40   A    
C18   H12   S    
H25   N11   S    
C32   H28   S    
C25   C26   A    
C12   C21   A    
C12   C26   A    
C18   N12   S    
C3    C9    A    
C28   H7    S    
C2    C38   A    
N1    Zn2   S    
C23   C34   A    
C30   H17   S    
C17   C18   S    
C14   H24   S    
C42   H43   S    
C10   H13   S    
C17   N5    A    
H51   N6    S    
O1    Zn1   S    
C36   N3    S    
C26   N4    S    
C33   H31   S    
C41   H49   S    
C1    O1    A    
H8    N8    S    
C6    H1    S    
O2    Zn2   S    
C22   C24   A    
O4    Zn2   S    
C14   N1    A    
O6    Zn2   S    
C16   O6    A    
C29   H9    S    
C4    O4    A    
C28   H6    S    
H35   N2    S    
C12   H45   S    
C33   N12   S    
H14   N9    S    
C15   N5    A    
C3    C5    A    
O8    Zn2   S    
C32   H27   S    
C37   H47   S    
C35   H36   S    
C13   C17   A    
C32   N11   S    
C31   N10   S    
C15   N11   S    
H18   N10   S    
C20   O8    A    
C4    C21   S    
C2    C34   A    
C38   C39   A    
C29   H11   S    
C36   H42   S    
C30   H16   S    
C35   H37   S    
C29   N8    S    
C19   H23   S    
C20   O7    A    
H44   N4    S    
C3    C11   S    
C10   C11   S    
O3    Zn1   S    
C1    O2    A    
C33   H32   S    
H29   N12   S    
C14   C15   A    
C27   H52   S    
O5    Zn1   S    
C27   H2    S    
C19   N2    S    
C16   O5    A    
O7    Zn1   S    
C29   H10   S    
