data_mof_unit_32488.cif
_audit_creation_date              2012-12-10T19:03:35-0500
_audit_creation_method            fapswitch 2.2
_symmetry_space_group_name_H-M    P1
_symmetry_Int_Tables_number       1
_space_group_crystal_system       triclinic
_cell_length_a                    15.899315
_cell_length_b                    10.886365
_cell_length_c                    9.587026
_cell_angle_alpha                 92.475787
_cell_angle_beta                  89.088698
_cell_angle_gamma                 91.196159
_cell_volume                      1657.28038992

loop_
_atom_site_label
_atom_site_type_symbol
_atom_type_description
_atom_site_fract_x
_atom_site_fract_y
_atom_site_fract_z
_atom_type_partial_charge
C1    C     C_R   0.502321 0.262035 0.496288 0.833427
C2    C     C_3   0.946859 0.432792 0.637704 -0.000363
C3    C     C_3   0.916638 0.487250 0.496880 -0.266795
C4    C     C_3   0.953346 0.623688 0.488531 0.420166
C5    C     C_3   0.052079 0.620710 0.483570 -0.045328
C6    C     C_1   0.824279 0.488447 0.495998 0.197000
C7    C     C_1   0.175771 0.491351 0.506802 0.182279
C8    C     C_1   0.251146 0.495664 0.504221 -0.035839
C9    C     C_R   0.528567 0.068022 0.607739 -0.026546
C10   C     C_R   0.507759 0.127654 0.487889 -0.206397
C11   C     C_R   0.485859 0.053221 0.367749 0.293682
C12   C     C_R   0.340472 0.499368 0.501153 0.819504
C13   C     C_R   0.463523 0.928909 0.384905 0.166496
C14   C     C_R   0.487199 0.870537 0.506261 -0.145312
C15   C     C_R   0.521297 0.941955 0.616666 -0.058863
C16   C     C_3   0.492306 0.959124 0.766918 0.220223
C17   C     C_3   0.505372 0.096516 0.755547 0.098037
C18   C     C_R   0.563793 0.558735 0.075060 0.204631
C19   C     C_R   0.439414 0.439057 0.072563 0.068290
C20   C     C_R   0.440093 0.437402 0.924229 0.000145
C21   C     C_R   0.563130 0.558381 0.926927 0.213588
C22   C     C_3   0.580578 0.691864 0.923230 -0.027833
C23   C     C_R   0.493793 0.737056 0.502799 0.888931
C24   C     C_3   0.582475 0.695092 0.082033 0.085441
C25   C     C_R   0.659558 0.497783 0.498933 0.859813
C26   C     C_3   0.045444 0.442174 0.650729 0.428885
C27   C     C_3   0.051789 0.404674 0.378398 0.017767
C28   C     C_3   0.952803 0.397696 0.373570 0.393782
C29   C     C_1   0.748910 0.492416 0.496792 0.033603
C30   C     C_3   0.083496 0.486842 0.506369 -0.219923
Cu1   Cu    Cu3+1 0.500000 0.499980 0.640670 1.048956
Cu2   Cu    Cu3+1 0.500000 0.500020 0.359330 1.084218
H1    H     H_    0.928821 0.334716 0.635270 0.216937
H2    H     H_    0.536505 0.922710 0.841387 0.161810
H3    H     H_    0.447319 0.151126 0.770070 0.177012
H4    H     H_    0.388320 0.393821 0.126701 0.186742
H5    H     H_    0.390661 0.388001 0.867847 0.163484
H6    H     H_    0.524302 0.735946 0.884633 0.157521
H7    H     H_    0.530179 0.748609 0.129489 0.155345
H8    H     H_    0.074920 0.451456 0.284634 0.221881
H9    H     H_    0.076897 0.682975 0.568348 0.220750
N1    N     N_R   0.500530 0.500930 0.147930 -0.219669
N2    N     N_R   0.500530 0.500890 0.852020 -0.209025
O1    O     O_R   0.500000 0.319640 0.618810 -0.587885
O2    O     O_R   0.500010 0.319680 0.381230 -0.521468
O3    O     O_R   0.379430 0.499990 0.618840 -0.570573
O4    O     O_R   0.379440 0.500030 0.381260 -0.580225
O5    O     O_R   0.499990 0.680320 0.618770 -0.550805
O6    O     O_R   0.500000 0.680360 0.381190 -0.575320
O7    O     O_R   0.620560 0.499970 0.618740 -0.554101
O8    O     O_R   0.620570 0.500010 0.381160 -0.521874
Br1   Br    Br    0.080254 0.559234 0.803019 -0.337635
Br2   Br    Br    0.880613 0.474869 0.807206 -0.223835
Br3   Br    Br    0.902864 0.716484 0.341531 -0.154042
S1    S     S_3+6 0.493074 0.104802 0.194920 0.088100
O9    O     O_2   0.565627 0.194239 0.180292 -0.186093
O10   O     O_2   0.508128 0.997515 0.094738 -0.248762
O11   O     O_3   0.402924 0.171528 0.154337 -0.512065
H10   H     H_    0.357642 0.120770 0.196447 0.384337
Br4   Br    Br    0.383388 0.847900 0.259404 -0.340308
S2    S     S_3+6 0.383308 0.917083 0.796037 0.051851
O12   O     O_2   0.353174 0.976178 0.931682 -0.175279
O13   O     O_2   0.330923 0.960853 0.679466 -0.247025
O14   O     O_3   0.372024 0.763650 0.803532 -0.531050
H11   H     H_    0.310612 0.748210 0.812713 0.398308
Br5   Br    Br    0.603377 0.163782 0.852848 -0.255074
S3    S     S_3+6 0.084986 0.295930 0.705574 0.122368
O15   O     O_2   0.046192 0.188339 0.625147 -0.149388
O16   O     O_2   0.179049 0.290723 0.688797 -0.273513
O17   O     O_3   0.059582 0.280069 0.875083 -0.384706
H12   H     H_    0.109652 0.309524 0.927925 0.390984
Br6   Br    Br    0.682834 0.727895 0.815870 -0.255921
S4    S     S_3+6 0.681809 0.739449 0.157594 0.143741
O18   O     O_2   0.748345 0.651420 0.107943 -0.139961
O19   O     O_2   0.706433 0.866331 0.113600 -0.158499
O20   O     O_3   0.675416 0.741243 0.332736 -0.506003
H13   H     H_    0.655177 0.824145 0.361279 0.354349
Br7   Br    Br    0.110745 0.249544 0.342290 -0.239602
Br8   Br    Br    0.907598 0.228221 0.394726 -0.216385
S5    S     S_3+6 0.920053 0.428210 0.197491 0.124157
O21   O     O_2   0.935984 0.316384 0.104067 -0.116903
O22   O     O_2   0.827522 0.452872 0.196482 -0.216550
O23   O     O_3   0.974911 0.545781 0.129559 -0.458784
H14   H     H_    0.935034 0.587194 0.069815 0.440872
Br9   Br    Br    0.105945 0.697460 0.321393 -0.256579
Br10  Br    Br    0.919273 0.730186 0.648987 -0.211305

loop_
_geom_bond_atom_site_label_1
_geom_bond_atom_site_label_2
_ccdc_geom_bond_type
S1    O9    D    
C18   C21   A    
S4    O18   D    
C19   C20   A    
C3    C6    S    
C7    C8    T    
C13   Br4   S    
C17   Br5   S    
Cu1   N2    S    
C18   C24   S    
C26   S3    S    
C3    C28   S    
C19   H4    S    
C18   N1    A    
C24   S4    S    
C23   O6    A    
C4    Br10  S    
C15   C16   S    
C22   H6    S    
C24   H7    S    
Cu2   O2    S    
S2    O13   D    
C28   Br8   S    
C25   O7    A    
C16   H2    S    
C21   N2    A    
Cu1   Cu2   S    
C16   C17   S    
Cu1   O3    S    
O17   H12   S    
C9    C10   A    
C19   N1    A    
C5    Br9   S    
C27   Br7   S    
C7    C30   S    
C21   C22   S    
C27   C30   S    
S4    O19   D    
C12   O4    A    
C22   Br6   S    
C25   C29   S    
Cu1   O1    S    
S3    O15   D    
O20   H13   S    
C12   O3    A    
C4    C5    S    
O11   H10   S    
S3    O16   D    
C14   C23   S    
S2    O14   S    
C25   O8    A    
Cu2   O8    S    
C26   Br1   S    
C1    O1    A    
O23   H14   S    
C27   H8    S    
C8    C12   S    
C2    C26   S    
C2    H1    S    
S5    O22   D    
C26   C30   S    
Cu1   O5    S    
S1    O10   D    
S4    O20   S    
C22   C24   S    
C16   S2    S    
Cu1   O7    S    
C3    C4    S    
C20   N2    A    
C11   S1    S    
S5    O23   S    
C5    C30   S    
C9    C17   S    
C5    H9    S    
C23   O5    A    
C4    Br3   S    
C1    C10   S    
S5    O21   D    
C2    Br2   S    
S3    O17   S    
O14   H11   S    
C2    C3    S    
C9    C15   A    
C20   H5    S    
C11   C13   A    
C1    O2    A    
Cu2   O4    S    
S2    O12   D    
C28   S5    S    
Cu2   O6    S    
C10   C11   A    
C6    C29   T    
S1    O11   S    
C27   C28   S    
Cu2   N1    S    
C14   C15   A    
C17   H3    S    
C13   C14   A    
