data_mof_unit_10076.cif
_audit_creation_date              2012-12-10T17:15:13-0500
_audit_creation_method            fapswitch 2.2
_symmetry_space_group_name_H-M    P1
_symmetry_Int_Tables_number       1
_space_group_crystal_system       triclinic
_cell_length_a                    15.872854
_cell_length_b                    12.996241
_cell_length_c                    11.766838
_cell_angle_alpha                 100.071185
_cell_angle_beta                  92.147324
_cell_angle_gamma                 91.99097
_cell_volume                      2386.16577255

loop_
_atom_site_label
_atom_site_type_symbol
_atom_type_description
_atom_site_fract_x
_atom_site_fract_y
_atom_site_fract_z
_atom_type_partial_charge
C1    C     C_R   0.501528 0.299273 0.477876 0.802520
C2    C     C_R   0.498461 0.700725 0.522125 0.802522
C3    C     C_R   0.539797 0.015333 0.357509 -0.180195
C4    C     C_R   0.460174 0.984661 0.642489 -0.180209
C5    C     C_R   0.536314 0.123431 0.362951 0.148173
C6    C     C_R   0.463638 0.876558 0.637034 0.148188
C7    C     C_R   0.481534 0.138111 0.556177 -0.281451
C8    C     C_R   0.518463 0.861888 0.443837 -0.281467
C9    C     C_R   0.485415 0.030839 0.549958 0.126544
C10   C     C_R   0.514574 0.969157 0.450053 0.126546
C11   C     C_R   0.425916 0.391268 0.026608 0.096764
C12   C     C_R   0.574081 0.608734 0.973393 0.096759
C13   C     C_R   0.430509 0.407477 0.147849 0.068826
C14   C     C_R   0.569488 0.592527 0.852152 0.068825
C15   C     C_R   0.537552 0.540348 0.154917 0.115977
C16   C     C_R   0.462449 0.459650 0.845082 0.115977
C17   C     C_R   0.528669 0.538015 0.032783 -0.017204
C18   C     C_R   0.471330 0.461985 0.967217 -0.017214
C19   C     C_R   0.340106 0.499921 0.501550 0.816308
C20   C     C_R   0.659894 0.500079 0.498450 0.816333
C21   C     C_3   0.968637 0.418075 0.544461 -0.322186
C22   C     C_3   0.031363 0.581926 0.455539 -0.322188
C23   C     C_3   0.024156 0.410922 0.437964 -0.015404
C24   C     C_3   0.975844 0.589079 0.562036 -0.015405
C25   C     C_1   0.250706 0.500085 0.504763 -0.096481
C26   C     C_1   0.749294 0.499916 0.495237 -0.096484
C27   C     C_3   0.028772 0.507596 0.609228 -0.024088
C28   C     C_3   0.971228 0.492405 0.390772 -0.024089
C29   C     C_3   0.083599 0.499410 0.503335 0.137620
C30   C     C_3   0.916401 0.500591 0.496665 0.137620
C31   C     C_1   0.175273 0.499942 0.505182 0.092731
C32   C     C_1   0.824727 0.500058 0.494818 0.092732
C33   C     C_R   0.493844 0.814558 0.536142 -0.052367
C34   C     C_R   0.506139 0.185436 0.463860 -0.052376
Cu1   Cu    Cu3+1 0.506200 0.507730 0.615930 0.955518
Cu2   Cu    Cu3+1 0.493800 0.492270 0.384070 0.955507
H1    H     H_    0.942761 0.350876 0.580790 0.158304
H2    H     H_    0.057239 0.649125 0.419210 0.158303
H3    H     H_    0.541156 0.815215 0.366502 0.141552
H4    H     H_    0.458852 0.184786 0.633520 0.141546
H5    H     H_    0.562596 0.966910 0.281141 0.136291
H6    H     H_    0.437363 0.033082 0.718849 0.136291
H7    H     H_    0.606091 0.642685 0.806395 0.147780
H8    H     H_    0.393903 0.357322 0.193606 0.147768
N1    N     N_R   0.515540 0.519350 0.790140 -0.236246
N2    N     N_R   0.484460 0.480650 0.209860 -0.236246
O1    O     O_R   0.504400 0.354460 0.582000 -0.611791
O2    O     O_R   0.495600 0.645540 0.418000 -0.611799
O3    O     O_R   0.493920 0.341410 0.386200 -0.585071
O4    O     O_R   0.506080 0.658590 0.613800 -0.585057
O5    O     O_R   0.384320 0.506520 0.597880 -0.559501
O6    O     O_R   0.615680 0.493480 0.402120 -0.559504
O7    O     O_R   0.373840 0.493460 0.402080 -0.579757
O8    O     O_R   0.626160 0.506540 0.597920 -0.579752
C35   C     C_2   0.048407 0.309593 0.367690 0.352719
H9    H     H_    0.999563 0.253765 0.326022 0.078096
O9    O     O_2   0.122458 0.289326 0.356851 -0.534127
C36   C     C_2   0.951592 0.690408 0.632310 0.352720
H10   H     H_    0.000437 0.746236 0.673978 0.078094
O10   O     O_2   0.877542 0.710675 0.643149 -0.534125
C37   C     C_2   0.941720 0.483988 0.266949 0.361831
H11   H     H_    0.987630 0.479118 0.200444 0.076011
O11   O     O_2   0.866630 0.482466 0.240239 -0.484711
C38   C     C_2   0.058280 0.516013 0.733051 0.361828
H12   H     H_    0.012370 0.520883 0.799556 0.076012
O12   O     O_2   0.133370 0.517535 0.759761 -0.484713
C39   C     C_3   0.432461 0.830504 0.737783 -0.792335
H13   H     H_    0.403873 0.890125 0.802767 0.217438
H14   H     H_    0.383249 0.767937 0.707179 0.242752
H15   H     H_    0.485808 0.798533 0.782342 0.242138
C40   C     C_3   0.567427 0.169476 0.262163 -0.792366
H16   H     H_    0.595957 0.109847 0.197131 0.217442
H17   H     H_    0.514050 0.201466 0.217684 0.242138
H18   H     H_    0.616661 0.232027 0.292712 0.242793
C41   C     C_2   0.388128 0.406334 0.779173 0.461274
H19   H     H_    0.394131 0.337402 0.714426 0.053181
O13   O     O_2   0.318213 0.440256 0.797490 -0.500433
C42   C     C_2   0.611874 0.593662 0.220825 0.461265
H20   H     H_    0.605873 0.662589 0.285580 0.053199
O14   O     O_2   0.681789 0.559744 0.202498 -0.500433
C43   C     C_3   0.378624 0.292411 0.966711 -0.870130
H21   H     H_    0.368819 0.236118 0.026534 0.224872
H22   H     H_    0.315216 0.310332 0.934674 0.278741
H23   H     H_    0.415471 0.251447 0.895342 0.209523
C44   C     C_3   0.621370 0.707593 0.033292 -0.870121
H24   H     H_    0.631167 0.763890 0.973471 0.224874
H25   H     H_    0.584525 0.748550 0.104666 0.209520
H26   H     H_    0.684781 0.689675 0.065321 0.278741

loop_
_geom_bond_atom_site_label_1
_geom_bond_atom_site_label_2
_ccdc_geom_bond_type
C25   C31   T    
C35   H9    S    
C11   C18   A    
C26   C32   T    
C22   C29   S    
C27   C29   S    
C16   C41   S    
Cu1   Cu2   S    
C24   C27   S    
Cu1   O1    S    
C43   H21   S    
C44   H24   S    
C11   C43   S    
C4    H6    S    
C12   C44   S    
C23   C29   S    
C13   N2    A    
C42   O14   D    
C15   C42   S    
C36   O10   D    
C22   H2    S    
C7    C9    A    
C37   O11   D    
Cu2   O7    S    
C2    O4    A    
C12   C17   A    
C7    H4    S    
Cu2   N2    S    
C8    H3    S    
C9    C10   A    
Cu2   O6    S    
C28   C37   S    
C19   O7    A    
C21   C27   S    
C22   C28   S    
Cu1   O8    S    
C43   H22   S    
C1    C34   S    
C14   N1    A    
C44   H25   S    
C39   H13   S    
C24   C36   S    
C20   O8    A    
C40   H17   S    
C42   H20   S    
C1    O1    A    
C2    O2    A    
C36   H10   S    
C39   H14   S    
C38   O12   D    
C41   H19   S    
C29   C31   S    
C5    C34   A    
Cu1   O4    S    
C17   C18   A    
C23   C28   S    
C41   O13   D    
C2    C33   S    
C16   C18   A    
C6    C39   S    
C12   C14   A    
C21   C23   S    
Cu1   O5    S    
C7    C34   A    
C22   C24   S    
C4    C6    A    
Cu1   N1    S    
C43   H23   S    
C44   H26   S    
C15   C17   A    
C3    H5    S    
C8    C10   A    
C3    C5    A    
C16   N1    A    
C40   H18   S    
C23   C35   S    
C21   C30   S    
C6    C33   A    
C39   H15   S    
C38   H12   S    
C35   O9    D    
C40   H16   S    
C5    C40   S    
C3    C10   A    
C30   C32   S    
C11   C13   A    
C20   C26   S    
C28   C30   S    
Cu2   O2    S    
C8    C33   A    
C37   H11   S    
C19   C25   S    
C24   C30   S    
C27   C38   S    
C19   O5    A    
C21   H1    S    
C20   O6    A    
C15   N2    A    
C4    C9    A    
C1    O3    A    
C13   H8    S    
Cu2   O3    S    
C14   H7    S    
