data_mof_unit_49805.cif
_audit_creation_date              2012-10-26T20:02:33-0400
_audit_creation_method            fapswitch 2.2
_symmetry_space_group_name_H-M    P1
_symmetry_Int_Tables_number       1
_space_group_crystal_system       triclinic
_cell_length_a                    18.81817
_cell_length_b                    18.663059
_cell_length_c                    12.483301
_cell_angle_alpha                 90.004782
_cell_angle_beta                  130.526776
_cell_angle_gamma                 90.048881
_cell_volume                      3332.43309128

loop_
_atom_site_label
_atom_site_type_symbol
_atom_type_description
_atom_site_fract_x
_atom_site_fract_y
_atom_site_fract_z
_atom_type_partial_charge
C1    C     C_R   0.613884 0.898931 0.654392 0.557713
C2    C     C_R   0.656548 0.721822 0.005888 0.051023
C3    C     C_R   0.155314 0.781128 0.000110 0.050516
C4    C     C_R   0.156572 0.221890 0.006007 0.051029
C5    C     C_R   0.577226 0.250095 0.875728 -0.137088
C6    C     C_R   0.578210 0.753807 0.883574 -0.131853
C7    C     C_R   0.077225 0.750073 0.875766 -0.137098
C8    C     C_R   0.078234 0.253899 0.883735 -0.131857
C9    C     C_R   0.586233 0.212228 0.789450 -0.118049
C10   C     C_R   0.585553 0.789837 0.793947 -0.120115
C11   C     C_R   0.086226 0.712217 0.789471 -0.118050
C12   C     C_R   0.614944 0.100418 0.655616 0.537250
C13   C     C_R   0.085543 0.289887 0.794039 -0.120110
C14   C     C_R   0.320044 0.810422 0.159592 -0.130875
C15   C     C_R   0.319739 0.188648 0.157795 -0.133151
C16   C     C_R   0.820050 0.310415 0.159605 -0.130868
C17   C     C_R   0.819754 0.688667 0.157831 -0.133136
C18   C     C_R   0.222025 0.853809 0.207437 -0.135546
C19   C     C_R   0.224822 0.149913 0.214427 -0.136961
C20   C     C_R   0.722014 0.353825 0.207405 -0.135549
C21   C     C_R   0.724767 0.649834 0.214286 -0.136941
C22   C     C_R   0.686452 0.155541 0.749731 -0.006270
C23   C     C_R   0.113870 0.398919 0.654373 0.557703
C24   C     C_R   0.683462 0.842514 0.746216 0.023016
C25   C     C_R   0.186437 0.655554 0.749711 -0.006268
C26   C     C_R   0.183405 0.342466 0.746139 0.023012
C27   C     C_R   0.689461 0.993343 0.298708 -0.146575
C28   C     C_R   0.189457 0.493285 0.298705 -0.146575
C29   C     C_R   0.340936 0.001532 0.624034 0.037313
C30   C     C_R   0.840936 0.501545 0.624034 0.037321
C31   C     C_R   0.305619 0.002110 0.693164 -0.160274
C32   C     C_R   0.805619 0.502126 0.693163 -0.160269
C33   C     C_R   0.383955 0.098868 0.342617 0.536095
C34   C     C_R   0.114941 0.600421 0.655612 0.537255
C35   C     C_R   0.383635 0.901347 0.342218 0.533608
C36   C     C_R   0.883952 0.598865 0.342612 0.536088
C37   C     C_R   0.883634 0.401348 0.342217 0.533605
C38   C     C_R   0.365836 0.001097 0.839807 -0.134516
C39   C     C_R   0.865835 0.501102 0.839806 -0.134508
C40   C     C_R   0.463563 0.999348 0.921630 -0.033198
C41   C     C_R   0.963562 0.499340 0.921629 -0.033196
C42   C     C_R   0.498677 0.998777 0.847328 0.212622
C43   C     C_R   0.998676 0.498765 0.847328 0.212612
C44   C     C_R   0.527219 0.998331 0.074609 -0.021295
C45   C     C_R   0.243562 0.777224 0.034960 0.035229
C46   C     C_R   0.027219 0.498314 0.074608 -0.021295
C47   C     C_R   0.624273 0.994595 0.151183 0.017305
C48   C     C_R   0.124270 0.494545 0.151180 0.017298
C49   C     C_R   0.657896 0.993093 0.082105 -0.154743
C50   C     C_R   0.157892 0.493027 0.082101 -0.154742
C51   C     C_R   0.600128 0.996841 0.936566 0.125853
C52   C     C_R   0.100127 0.496810 0.936564 0.125853
C53   C     C_R   0.500274 0.000902 0.157720 0.044778
C54   C     C_R   0.000274 0.500907 0.157720 0.044787
C55   C     C_R   0.658661 0.996223 0.372667 0.047035
C56   C     C_R   0.243147 0.222936 0.035276 0.034138
C57   C     C_R   0.158660 0.496195 0.372666 0.047049
C58   C     C_R   0.645719 0.318016 0.088184 -0.131914
C59   C     C_R   0.648655 0.686725 0.097282 -0.128550
C60   C     C_R   0.145729 0.817993 0.088228 -0.131907
C61   C     C_R   0.148715 0.186832 0.097470 -0.128553
C62   C     C_R   0.308695 0.851636 0.240601 -0.002418
C63   C     C_R   0.309726 0.149172 0.242081 -0.004358
C64   C     C_R   0.808693 0.351639 0.240597 -0.002412
C65   C     C_R   0.809711 0.649156 0.242053 -0.004345
C66   C     C_R   0.772840 0.156166 0.777856 0.090286
C67   C     C_R   0.743571 0.277220 0.034966 0.035231
C68   C     C_R   0.767052 0.839052 0.767568 0.093167
C69   C     C_R   0.272815 0.656200 0.777804 0.090285
C70   C     C_R   0.266931 0.338907 0.767332 0.093122
C71   C     C_R   0.344670 0.700789 0.881867 -0.087121
C72   C     C_R   0.338588 0.293284 0.869463 -0.131204
C73   C     C_R   0.844707 0.200740 0.881943 -0.087133
C74   C     C_R   0.838736 0.793463 0.869754 -0.131199
C75   C     C_R   0.335874 0.741385 0.965488 -0.155963
C76   C     C_R   0.331569 0.254491 0.956862 -0.144960
C77   C     C_R   0.835907 0.241345 0.965552 -0.155971
C78   C     C_R   0.743161 0.722934 0.035273 0.034147
C79   C     C_R   0.831676 0.754613 0.957060 -0.144963
C80   C     C_R   0.752428 0.240466 0.944368 0.022738
C81   C     C_R   0.750290 0.758103 0.941485 0.022857
C82   C     C_R   0.252410 0.740482 0.944342 0.022733
C83   C     C_R   0.250238 0.258061 0.941418 0.022857
C84   C     C_R   0.674427 0.202295 0.826998 -0.002721
C85   C     C_R   0.672496 0.797324 0.826437 -0.012167
C86   C     C_R   0.174413 0.702300 0.826989 -0.002724
C87   C     C_R   0.172457 0.297315 0.826422 -0.012164
C88   C     C_R   0.655313 0.281141 0.000085 0.050518
Cu1   Cu    Cu3+1 0.526340 0.000000 0.421010 0.934516
Cu2   Cu    Cu3+1 0.026340 0.500000 0.421010 0.934509
Cu3   Cu    Cu3+1 0.473640 0.000000 0.578990 0.937553
Cu4   Cu    Cu3+1 0.973640 0.500000 0.578990 0.937535
H1    H     H_    0.212201 0.886000 0.269130 0.117837
H2    H     H_    0.793212 0.502387 0.510074 0.117469
H3    H     H_    0.333889 0.001409 0.886727 0.106830
H4    H     H_    0.833889 0.501416 0.886726 0.106835
H5    H     H_    0.230759 0.003341 0.632472 0.104868
H6    H     H_    0.730759 0.503366 0.632472 0.104869
H7    H     H_    0.578467 0.321407 0.061928 0.100284
H8    H     H_    0.582748 0.685614 0.075427 0.102005
H9    H     H_    0.078485 0.821372 0.061998 0.100246
H10   H     H_    0.082840 0.185773 0.075706 0.101981
H11   H     H_    0.395490 0.773991 0.044015 0.105025
H12   H     H_    0.216049 0.119288 0.278859 0.118293
H13   H     H_    0.390614 0.221034 0.033471 0.107642
H14   H     H_    0.895533 0.273937 0.044101 0.105009
H15   H     H_    0.890744 0.721187 0.033719 0.107639
H16   H     H_    0.522537 0.192169 0.691383 0.145706
H17   H     H_    0.521414 0.810265 0.697213 0.148309
H18   H     H_    0.022528 0.692153 0.691412 0.145729
H19   H     H_    0.021395 0.310323 0.697329 0.148356
H20   H     H_    0.708076 0.994946 0.486503 0.141441
H21   H     H_    0.208074 0.494912 0.486502 0.141420
H22   H     H_    0.764018 0.990365 0.356607 0.094120
H23   H     H_    0.712184 0.386024 0.269084 0.117831
H24   H     H_    0.264013 0.490284 0.356602 0.094117
H25   H     H_    0.695289 0.046011 0.936063 0.213528
H26   H     H_    0.696687 0.956210 0.930032 0.212708
H27   H     H_    0.195281 0.546019 0.936092 0.213529
H28   H     H_    0.196693 0.456221 0.930005 0.212708
H29   H     H_    0.508658 0.255188 0.844559 0.098954
H30   H     H_    0.510696 0.750791 0.856513 0.108543
H31   H     H_    0.008664 0.755152 0.844621 0.098995
H32   H     H_    0.010744 0.250932 0.856758 0.108524
H33   H     H_    0.389630 0.806881 0.195303 0.117683
H34   H     H_    0.715970 0.619177 0.278661 0.118268
H35   H     H_    0.388268 0.190178 0.189330 0.117254
H36   H     H_    0.889640 0.306868 0.195334 0.117676
H37   H     H_    0.888305 0.690236 0.189446 0.117221
H38   H     H_    0.746693 0.123876 0.599743 0.251260
H39   H     H_    0.782197 0.057160 0.720045 0.245481
H40   H     H_    0.840298 0.915033 0.759858 0.215607
H41   H     H_    0.794636 0.849945 0.636590 0.226168
H42   H     H_    0.246651 0.623912 0.599677 0.251269
H43   H     H_    0.282198 0.557200 0.720004 0.245469
H44   H     H_    0.340230 0.414704 0.759366 0.215613
H45   H     H_    0.733139 0.990939 0.143677 0.103646
H46   H     H_    0.294232 0.349644 0.636017 0.226229
H47   H     H_    0.409813 0.702118 0.901648 0.124644
H48   H     H_    0.401983 0.289778 0.884569 0.102462
H49   H     H_    0.909861 0.202050 0.901753 0.124654
H50   H     H_    0.902182 0.790030 0.884979 0.102432
H51   H     H_    0.233134 0.490854 0.143671 0.103648
H52   H     H_    0.427945 0.003519 0.110586 0.118644
H53   H     H_    0.927946 0.503546 0.110587 0.118652
H54   H     H_    0.293211 0.002366 0.510074 0.117468
N1    N     N_R   0.566260 0.000000 0.302220 -0.235302
N2    N     N_3   0.280916 0.383047 0.688449 -0.624406
N3    N     N_R   0.066260 0.500000 0.302220 -0.235304
N4    N     N_R   0.434410 0.000000 0.697680 -0.221311
N5    N     N_R   0.934410 0.500000 0.697680 -0.221317
N6    N     N_3   0.652128 0.000646 0.890748 -0.527206
N7    N     N_3   0.152127 0.500652 0.890750 -0.527204
N8    N     N_3   0.791787 0.110565 0.706663 -0.646291
N9    N     N_3   0.781089 0.883282 0.688835 -0.624387
N10   N     N_3   0.291762 0.610609 0.706601 -0.646295
O1    O     O_R   0.608610 0.924520 0.551740 -0.458587
O2    O     O_R   0.435880 0.924530 0.314850 -0.504076
O3    O     O_R   0.935880 0.575470 0.314850 -0.505065
O4    O     O_R   0.935880 0.424530 0.314850 -0.504067
O5    O     O_R   0.391380 0.075460 0.448260 -0.513575
O6    O     O_R   0.391380 0.924540 0.448260 -0.513187
O7    O     O_R   0.891380 0.575460 0.448260 -0.513569
O8    O     O_R   0.891380 0.424540 0.448260 -0.513194
O9    O     O_R   0.608610 0.075480 0.551740 -0.506793
O10   O     O_R   0.108610 0.424520 0.551740 -0.458566
O11   O     O_R   0.108610 0.575480 0.551740 -0.506805
O12   O     O_R   0.564110 0.924510 0.685150 -0.483373
O13   O     O_R   0.564110 0.075490 0.685150 -0.469947
O14   O     O_R   0.064110 0.424510 0.685150 -0.483405
O15   O     O_R   0.064110 0.575490 0.685150 -0.469936
O16   O     O_R   0.435880 0.075470 0.314850 -0.505073

loop_
_geom_bond_atom_site_label_1
_geom_bond_atom_site_label_2
_ccdc_geom_bond_type
C83   C87   A    
C10   C85   A    
C8    C13   A    
C49   H45   S    
Cu2   O11   S    
C45   C82   A    
C80   C84   A    
C68   N9    S    
C4    C56   A    
Cu1   O2    S    
C39   C41   A    
C73   H49   S    
C28   C57   A    
C9    H16   S    
C7    C11   A    
C67   C88   A    
C76   H13   S    
C14   H33   S    
C37   O4    A    
C29   C31   A    
C77   H14   S    
C21   C59   A    
C3    C7    A    
C55   H20   S    
C27   C55   A    
C43   C52   A    
C32   C39   A    
C11   C86   A    
C68   C74   A    
C14   C62   A    
C5    H29   S    
C53   N1    A    
H40   N9    S    
C10   H17   S    
C23   C26   S    
Cu2   O3    S    
C69   C71   A    
C22   C66   A    
H46   N2    S    
C28   H24   S    
C36   O3    A    
C29   N4    A    
C5    C88   A    
C55   N1    A    
C44   C53   A    
H42   N10   S    
Cu4   O14   S    
C26   C87   A    
C49   C51   A    
C57   N3    A    
C38   H3    S    
C36   O7    A    
C50   C52   A    
C41   C46   A    
Cu3   O6    S    
H28   N7    S    
Cu1   Cu3   S    
C24   C85   A    
C44   C47   A    
C4    C8    A    
C42   C51   A    
C3    C60   A    
Cu4   O8    S    
C40   C42   A    
C74   H50   S    
H27   N7    S    
C15   H35   S    
Cu2   O10   S    
C11   H18   S    
C75   H11   S    
C59   H8    S    
C41   C43   A    
C13   C87   A    
C2    C6    A    
Cu2   N3    S    
C76   C83   A    
H25   N6    S    
C54   N3    A    
C46   C48   A    
C71   C75   A    
C35   O6    A    
Cu3   O13   S    
C12   O13   A    
C17   H37   S    
C69   N10   S    
Cu3   O12   S    
C47   C49   A    
C19   C63   A    
C12   O9    A    
C79   C81   A    
C2    C59   A    
C8    H32   S    
C71   H47   S    
C1    O12   A    
C52   N7    S    
C82   C86   A    
C66   C73   A    
C4    C61   A    
C3    C45   A    
H43   N10   S    
C22   C84   A    
C20   C64   A    
C33   O5    A    
C5    C9    A    
C2    C78   A    
C30   C32   A    
C20   H23   S    
C23   O10   A    
C19   H12   S    
Cu2   Cu4   S    
C40   C44   A    
C33   C63   S    
C46   C54   A    
Cu4   N5    S    
C79   H15   S    
C72   C76   A    
H38   N8    S    
C16   C67   A    
H26   N6    S    
C16   H36   S    
Cu1   O9    S    
H44   N2    S    
C54   H53   S    
Cu4   O7    S    
C18   C60   A    
C51   N6    S    
C74   C79   A    
C37   O8    A    
C26   C70   A    
C12   C22   S    
C25   C69   A    
C6    H30   S    
C20   C58   A    
C60   H9    S    
C29   H54   S    
C37   C64   S    
C43   N5    A    
C50   H51   S    
C56   C83   A    
C66   N8    S    
C77   C80   A    
C27   C47   A    
Cu1   N1    S    
C28   C48   A    
C73   C77   A    
C21   C65   A    
H41   N9    S    
H39   N8    S    
C18   C62   A    
C67   C80   A    
Cu1   O16   S    
C7    H31   S    
C58   H7    S    
C58   C88   A    
C6    C10   A    
Cu3   N4    S    
C57   H21   S    
C75   C82   A    
Cu1   O1    S    
C14   C45   A    
C16   C64   A    
C25   C34   S    
C17   C65   A    
C31   C38   A    
C53   H52   S    
C17   C78   A    
C15   C56   A    
C36   C65   S    
C1    O1    A    
C61   H10   S    
C35   O2    A    
C30   H2    S    
C38   C40   A    
C78   C81   A    
C30   N5    A    
C23   O14   A    
C19   C61   A    
C48   C50   A    
C25   C86   A    
C32   H6    S    
C35   C62   S    
C31   H5    S    
Cu2   O4    S    
C42   N4    A    
C39   H4    S    
C24   C68   A    
C9    C84   A    
C27   H22   S    
C72   H48   S    
C70   N2    S    
C1    C24   S    
C13   H19   S    
C18   H1    S    
C15   C63   A    
Cu3   O5    S    
C70   C72   A    
Cu4   O15   S    
C21   H34   S    
C33   O16   A    
C81   C85   A    
C34   O15   A    
C34   O11   A    
