data_mof_unit_33532.cif
_audit_creation_date              2012-10-26T20:00:11-0400
_audit_creation_method            fapswitch 2.2
_symmetry_space_group_name_H-M    P1
_symmetry_Int_Tables_number       1
_space_group_crystal_system       triclinic
_cell_length_a                    23.46336
_cell_length_b                    10.897205
_cell_length_c                    9.872761
_cell_angle_alpha                 92.988342
_cell_angle_beta                  91.80085
_cell_angle_gamma                 93.268932
_cell_volume                      2515.28453532

loop_
_atom_site_label
_atom_site_type_symbol
_atom_type_description
_atom_site_fract_x
_atom_site_fract_y
_atom_site_fract_z
_atom_type_partial_charge
C1    C     C_R   0.499664 0.266058 0.495856 0.538424
C2    C     C_R   0.123513 0.602643 0.556089 0.399759
C3    C     C_R   0.241738 0.601523 0.433085 -0.051667
C4    C     C_R   0.391635 0.503101 0.498538 0.542725
C5    C     C_R   0.301640 0.605181 0.436762 -0.017108
C6    C     C_R   0.329534 0.508058 0.495691 0.019454
C7    C     C_R   0.297585 0.413896 0.555153 -0.176929
C8    C     C_R   0.238288 0.413113 0.553371 -0.067292
C9    C     C_R   0.209997 0.506223 0.491502 0.217454
C10   C     C_R   0.760924 0.470025 0.632271 0.043641
C11   C     C_R   0.700914 0.472424 0.626606 -0.138385
C12   C     C_R   0.963562 0.300504 0.382183 -0.128401
C13   C     C_R   0.671497 0.498813 0.506390 -0.020036
C14   C     C_R   0.702191 0.522906 0.390336 -0.164410
C15   C     C_R   0.761370 0.521947 0.394500 -0.072678
C16   C     C_R   0.505931 0.735347 0.504287 0.550675
C17   C     C_R   0.790926 0.496250 0.514067 0.247731
C18   C     C_2   0.540982 0.939718 0.419646 0.017450
C19   C     C_2   0.520926 0.870065 0.521841 -0.000073
C20   C     C_2   0.546737 0.076168 0.439158 0.005330
C21   C     C_2   0.500511 0.133913 0.481236 -0.117135
C22   C     C_2   0.467863 0.422996 0.917897 0.153812
C23   C     C_R   0.022964 0.303130 0.376409 -0.126244
C24   C     C_2   0.461950 0.435620 0.072330 0.101515
C25   C     C_R   0.608800 0.500163 0.501883 0.531335
C26   C     C_R   0.883926 0.597403 0.568235 0.385863
C27   C     C_R   0.877091 0.398633 0.452523 0.387937
C28   C     C_R   0.936733 0.398930 0.445845 0.028395
C29   C     C_R   0.970218 0.500711 0.504170 -0.028677
C30   C     C_R   0.943735 0.600696 0.566615 0.027906
C31   C     C_3   0.557967 0.885223 0.282589 -0.257833
C32   C     C_3   0.613496 0.819207 0.296541 -0.411187
C33   C     C_3   0.522516 0.922434 0.669717 -0.281521
C34   C     C_R   0.056792 0.403778 0.435160 0.030243
C35   C     C_3   0.579026 0.899861 0.742622 -0.432297
C36   C     C_3   0.602914 0.145661 0.408383 -0.252786
C37   C     C_3   0.647262 0.139247 0.523355 -0.433596
C38   C     C_3   0.434134 0.313302 0.845293 -0.215129
C39   C     C_3   0.464765 0.194131 0.859917 -0.436896
C40   C     C_3   0.521077 0.619347 0.905517 -0.117670
C41   C     C_3   0.586407 0.627421 0.917860 -0.414392
C42   C     C_3   0.411152 0.365782 0.131686 -0.189966
C43   C     C_3   0.355910 0.433507 0.113807 -0.302912
C44   C     C_3   0.304431 0.358548 0.163136 -0.430455
C45   C     C_R   0.030326 0.502724 0.499620 -0.029199
C46   C     C_3   0.334161 0.717418 0.387125 -0.280654
C47   C     C_3   0.355527 0.805066 0.505939 -0.421741
C48   C     C_3   0.794174 0.438842 0.759864 -0.238990
C49   C     C_3   0.758050 0.407877 0.882267 -0.331140
C50   C     C_3   0.795713 0.378801 0.004060 -0.432227
C51   C     C_R   0.063819 0.603660 0.559623 0.029962
C52   C     C_R   0.036964 0.702560 0.622359 -0.125369
C53   C     C_R   0.977530 0.701377 0.625202 -0.127208
C54   C     C_R   0.116605 0.408141 0.431239 0.397854
Cu1   Cu    Cu3+1 0.500010 0.500020 0.638630 0.884599
Cu2   Cu    Cu3+1 0.499990 0.499980 0.361370 0.870616
H1    H     H_    0.938776 0.221345 0.336289 0.165576
H2    H     H_    0.219502 0.674477 0.387797 0.137391
H3    H     H_    0.318686 0.340270 0.602239 0.099906
H4    H     H_    0.214215 0.340170 0.600622 0.143033
H5    H     H_    0.648992 0.885526 0.333209 0.147633
H6    H     H_    0.609474 0.745118 0.368939 0.177754
H7    H     H_    0.624687 0.777840 0.196852 0.124582
H8    H     H_    0.523266 0.824756 0.232186 0.167068
H9    H     H_    0.564776 0.958601 0.209935 0.119575
H10   H     H_    0.573658 0.905443 0.854080 0.124327
H11   H     H_    0.594180 0.808633 0.711359 0.165056
H12   H     H_    0.676458 0.452548 0.714522 0.124083
H13   H     H_    0.612257 0.970840 0.718829 0.146795
H14   H     H_    0.516878 0.021487 0.682580 0.141419
H15   H     H_    0.486482 0.879853 0.724632 0.136688
H16   H     H_    0.630310 0.175173 0.620537 0.150852
H17   H     H_    0.659291 0.042952 0.532492 0.156177
H18   H     H_    0.686259 0.196427 0.501421 0.162571
H19   H     H_    0.620704 0.108046 0.313337 0.136762
H20   H     H_    0.597376 0.243934 0.391638 0.176774
H21   H     H_    0.467255 0.168508 0.967020 0.127999
H22   H     H_    0.441059 0.118119 0.798941 0.118579
H23   H     H_    0.680550 0.543552 0.296421 0.123973
H24   H     H_    0.509136 0.204579 0.824792 0.177358
H25   H     H_    0.390130 0.301159 0.880728 0.090556
H26   H     H_    0.423283 0.326739 0.739273 0.204258
H27   H     H_    0.603190 0.546709 0.966325 0.124093
H28   H     H_    0.605184 0.631570 0.817042 0.176320
H29   H     H_    0.601254 0.712644 0.977632 0.098537
H30   H     H_    0.507591 0.692368 0.842088 0.172661
H31   H     H_    0.501058 0.650520 0.999829 0.099922
H32   H     H_    0.296268 0.272813 0.097884 0.154211
H33   H     H_    0.312014 0.333781 0.269507 0.166397
H34   H     H_    0.784620 0.541535 0.304304 0.119611
H35   H     H_    0.266023 0.413380 0.158218 0.171472
H36   H     H_    0.360023 0.524124 0.170244 0.183283
H37   H     H_    0.347913 0.451658 0.005422 0.149464
H38   H     H_    0.404670 0.270959 0.087033 0.094132
H39   H     H_    0.419397 0.342297 0.236253 0.210398
H40   H     H_    0.318840 0.838136 0.563099 0.168430
H41   H     H_    0.384191 0.758580 0.575856 0.167443
H42   H     H_    0.379738 0.885703 0.467145 0.123993
H43   H     H_    0.370826 0.691099 0.326267 0.168895
H44   H     H_    0.306219 0.768113 0.319260 0.134109
H45   H     H_    0.461093 0.081678 0.501379 0.058376
H46   H     H_    0.821057 0.298241 0.978487 0.170057
H47   H     H_    0.825180 0.459348 0.035606 0.160878
H48   H     H_    0.768478 0.356819 0.090584 0.162916
H49   H     H_    0.732825 0.487609 0.912415 0.159767
H50   H     H_    0.728430 0.326400 0.855080 0.161300
H51   H     H_    0.819891 0.358861 0.733717 0.162167
H52   H     H_    0.824231 0.518325 0.791426 0.184454
H53   H     H_    0.042259 0.225832 0.326330 0.166700
H54   H     H_    0.539552 0.511814 0.117397 0.219438
H55   H     H_    0.061744 0.781363 0.669071 0.166853
H56   H     H_    0.958204 0.779292 0.673944 0.166096
N1    N     N_R   0.852070 0.496705 0.513404 -0.403974
N2    N     N_R   0.148720 0.506052 0.492153 -0.395933
N3    N     N_2   0.499380 0.498660 0.846910 -0.224337
N4    N     N_2   0.499370 0.498630 0.153040 -0.368903
O1    O     O_R   0.500010 0.321960 0.617040 -0.506602
O2    O     O_R   0.582130 0.500060 0.617050 -0.499946
O3    O     O_R   0.582110 0.500020 0.382900 -0.512630
O4    O     O_2   0.857715 0.694106 0.623486 -0.509257
O5    O     O_2   0.844285 0.301422 0.398526 -0.514976
O6    O     O_2   0.142476 0.315638 0.366394 -0.511788
O7    O     O_2   0.156126 0.696683 0.617643 -0.508362
O8    O     O_R   0.499990 0.321920 0.382900 -0.512031
O9    O     O_R   0.417890 0.499980 0.617100 -0.513837
O10   O     O_R   0.417870 0.499940 0.382950 -0.514928
O11   O     O_R   0.500010 0.678080 0.617100 -0.516164
O12   O     O_R   0.499990 0.678040 0.382960 -0.495932

loop_
_geom_bond_atom_site_label_1
_geom_bond_atom_site_label_2
_ccdc_geom_bond_type
C46   H43   S    
C1    C21   S    
C24   C42   S    
C37   H18   S    
C25   O2    A    
C27   O5    S    
C17   N1    S    
C7    C8    A    
C48   H52   S    
C2    O7    S    
C52   C53   A    
C50   H48   S    
C12   C23   A    
C47   H42   S    
C4    O9    A    
C12   C28   A    
C9    N2    S    
Cu2   O8    S    
C40   H31   S    
C28   C29   A    
C26   O4    S    
C32   H5    S    
C38   C39   S    
C40   N3    S    
C45   C51   A    
C10   C17   A    
C41   H27   S    
C11   C13   A    
C15   C17   A    
C18   C19   D    
C40   H30   S    
C46   H44   S    
C36   H20   S    
C2    C51   A    
C33   C35   S    
Cu1   O9    S    
C8    C9    A    
C47   H40   S    
Cu2   O10   S    
C21   H45   S    
C54   O6    S    
C50   H47   S    
C13   C14   A    
C38   H26   S    
C13   C25   S    
C25   O3    A    
C7    H3    S    
C23   H53   S    
C30   C53   A    
C42   H39   S    
C39   H22   S    
C4    C6    S    
C19   C33   S    
C49   H49   S    
C52   H55   S    
C41   H28   S    
C51   C52   A    
C29   C45   A    
C24   N4    D    
C20   C36   S    
C43   C44   S    
C22   N3    D    
C29   C30   A    
C3    C9    A    
C36   H19   S    
C31   C32   S    
C35   H11   S    
C23   C34   A    
Cu1   Cu2   S    
Cu2   N4    S    
C34   C45   A    
C1    O1    A    
C14   H23   S    
C16   O12   A    
C49   H50   S    
C44   H35   S    
C33   H14   S    
C12   H1    S    
C27   N1    A    
C53   H56   S    
C48   C49   S    
Cu1   O11   S    
C50   H46   S    
C38   H25   S    
C10   C48   S    
Cu2   O3    S    
C22   C24   S    
C42   C43   S    
H54   N4    S    
C11   H12   S    
Cu1   O1    S    
C31   H9    S    
C37   H17   S    
C46   C47   S    
C36   C37   S    
C42   H38   S    
C31   H8    S    
C32   H7    S    
C3    C5    A    
C47   H41   S    
C26   C30   A    
C6    C7    A    
C41   H29   S    
C5    C46   S    
C43   H36   S    
C35   H10   S    
C4    O10   A    
C39   H24   S    
C1    O8    A    
C32   H6    S    
C8    H4    S    
C15   H34   S    
C2    N2    A    
C34   C54   A    
C5    C6    A    
Cu1   N3    S    
C16   C19   S    
C54   N2    A    
C43   H37   S    
C18   C20   S    
Cu2   O12   S    
C16   O11   A    
C26   N1    A    
C10   C11   A    
C33   H15   S    
C48   H51   S    
C3    H2    S    
C20   C21   D    
C35   H13   S    
C39   H21   S    
C49   C50   S    
C37   H16   S    
C27   C28   A    
C14   C15   A    
C40   C41   S    
C18   C31   S    
C44   H32   S    
C44   H33   S    
Cu1   O2    S    
C22   C38   S    
