data_mof_unit_32249.cif
_audit_creation_date              2012-12-10T16:50:01-0500
_audit_creation_method            fapswitch 2.2
_symmetry_space_group_name_H-M    P1
_symmetry_Int_Tables_number       1
_space_group_crystal_system       triclinic
_cell_length_a                    7.821226
_cell_length_b                    8.563506
_cell_length_c                    10.631982
_cell_angle_alpha                 91.473408
_cell_angle_beta                  84.515712
_cell_angle_gamma                 93.881081
_cell_volume                      707.081439351

loop_
_atom_site_label
_atom_site_type_symbol
_atom_type_description
_atom_site_fract_x
_atom_site_fract_y
_atom_site_fract_z
_atom_type_partial_charge
C1    C     C_R   0.545773 0.794603 0.496615 0.971723
C2    C     C_R   0.454217 0.205368 0.502738 0.981042
C3    C     C_R   0.501534 0.508027 0.259677 0.873097
C4    C     C_R   0.164684 0.469546 0.912471 0.435141
C5    C     C_R   0.045272 0.573024 0.965143 -0.356135
C6    C     C_R   0.085486 0.671318 0.066910 0.478682
C7    C     C_R   0.236817 0.652115 0.123721 -0.252517
C8    C     C_R   0.357359 0.549239 0.068244 -0.034690
C9    C     C_R   0.332961 0.484943 0.949767 -0.012303
C10   C     C_R   0.480883 0.446641 0.872131 -0.053838
C11   C     C_R   0.625828 0.407355 0.926113 -0.182296
C12   C     C_R   0.632859 0.428903 0.054186 -0.131146
C13   C     C_R   0.501446 0.505102 0.125177 -0.026643
C14   C     C_2   0.569676 0.958310 0.494051 -0.342597
C15   C     C_2   0.430304 0.041633 0.504454 -0.323682
C16   C     C_R   0.494917 0.479600 0.738848 0.898803
H1    H     H_    0.733290 0.363679 0.868588 0.230685
H2    H     H_    0.690978 0.878082 0.095011 0.380990
H3    H     H_    0.986728 0.619172 0.594718 0.204184
H4    H     H_    0.922316 0.575949 0.928019 0.206765
H5    H     H_    0.262281 0.721594 0.207204 0.194553
H6    H     H_    0.743038 0.390365 0.096437 0.204648
H7    H     H_    0.701201 0.009680 0.483758 0.206346
H8    H     H_    0.298777 0.990267 0.514661 0.200520
H9    H     H_    0.013369 0.381220 0.404994 0.204002
H10   H     H_    0.912077 0.099812 0.890912 0.403817
N1    N     N_2   0.950330 0.457950 0.466250 -0.126789
N2    N     N_2   0.049670 0.542050 0.533750 -0.121662
O1    O     O_R   0.389250 0.738570 0.508280 -0.629158
O2    O     O_2   0.238949 0.195564 0.792743 -0.305182
O3    O     O_3   0.955933 0.191567 0.939779 -0.535797
O4    O     O_2   0.884560 0.769953 0.263845 -0.318785
O5    O     O_2   0.037359 0.969168 0.127258 -0.251385
O6    O     O_3   0.772402 0.811666 0.044912 -0.580197
O7    O     O_R   0.678390 0.711630 0.486650 -0.584890
O8    O     O_R   0.355400 0.513470 0.694050 -0.596815
O9    O     O_R   0.644540 0.486530 0.672420 -0.619196
O10   O     O_R   0.321610 0.288370 0.513350 -0.579814
O11   O     O_R   0.610750 0.261430 0.491720 -0.620789
O12   O     O_R   0.355460 0.513470 0.327580 -0.643073
O13   O     O_R   0.644600 0.486530 0.305950 -0.595005
O14   O     O_2   0.998457 0.330843 0.724568 -0.338470
S1    S     S_3+6 0.091860 0.294307 0.835836 0.018046
S2    S     S_3+6 0.943431 0.810159 0.129432 0.010720
Zn1   Zn    Zn3+2 0.306930 0.517990 0.514440 1.026146
Zn2   Zn    Zn3+2 0.693070 0.482010 0.485560 1.032938

loop_
_geom_bond_atom_site_label_1
_geom_bond_atom_site_label_2
_ccdc_geom_bond_type
C14   H7    S    
C8    C9    A    
O13   Zn2   S    
C6    C7    A    
C2    C15   S    
C4    S1    S    
H9    N1    S    
C9    C10   A    
C2    O10   A    
C3    C13   S    
C16   O9    A    
C11   C12   A    
C1    O1    A    
O4    S2    D    
C7    C8    A    
C5    H4    S    
C6    S2    S    
C16   O8    A    
H3    N2    S    
H2    O6    S    
O12   Zn1   S    
O3    S1    S    
O11   Zn2   S    
N1    Zn2   S    
C15   H8    S    
O9    Zn2   S    
C3    O12   A    
C5    C6    A    
N2    Zn1   S    
O2    S1    D    
C10   C11   A    
C8    C13   A    
C12   H6    S    
O8    Zn1   S    
O6    S2    S    
C12   C13   A    
C1    O7    A    
O14   S1    D    
N1    N2    D    
C14   C15   D    
C3    O13   A    
O10   Zn1   S    
C10   C16   S    
C1    C14   S    
C4    C9    A    
C7    H5    S    
O5    S2    D    
H10   O3    S    
C2    O11   A    
C11   H1    S    
O1    Zn1   S    
C4    C5    A    
O7    Zn2   S    
