data_mof_unit_33424.cif
_audit_creation_date              2012-12-11T14:23:15-0500
_audit_creation_method            fapswitch 2.2
_symmetry_space_group_name_H-M    P1
_symmetry_Int_Tables_number       1
_space_group_crystal_system       triclinic
_cell_length_a                    11.019486
_cell_length_b                    11.051454
_cell_length_c                    18.716352
_cell_angle_alpha                 90.299386
_cell_angle_beta                  89.687073
_cell_angle_gamma                 59.587229
_cell_volume                      1965.55871875

loop_
_atom_site_label
_atom_site_type_symbol
_atom_type_description
_atom_site_fract_x
_atom_site_fract_y
_atom_site_fract_z
_atom_type_partial_charge
C1    C     C_R   0.241262 0.643828 0.611445 0.536115
C2    C     C_R   0.568623 0.162627 0.712680 -0.163317
C3    C     C_R   0.574824 0.162476 0.785037 -0.152902
C4    C     C_R   0.653717 0.622382 0.600747 0.548506
C5    C     C_R   0.926002 0.131861 0.812200 -0.095805
C6    C     C_R   0.040882 0.109021 0.770509 -0.137885
C7    C     C_R   0.038286 0.096729 0.696708 -0.134088
C8    C     C_R   0.919359 0.110641 0.663782 -0.086200
C9    C     C_R   0.674662 0.161014 0.671547 -0.007890
C10   C     C_R   0.202893 0.653996 0.839690 0.006620
C11   C     C_R   0.213267 0.537400 0.802481 0.029812
C12   C     C_3   0.668561 0.555026 0.800712 -0.249263
C13   C     C_R   0.199508 0.544713 0.726692 0.005678
C14   C     C_R   0.227073 0.749583 0.728821 -0.155337
C15   C     C_R   0.223301 0.751374 0.802454 -0.160166
C16   C     C_R   0.630867 0.224030 0.601118 0.530814
C17   C     C_R   0.232808 0.415663 0.838211 0.100467
C18   C     C_R   0.215097 0.316357 0.801051 -0.127863
C19   C     C_R   0.183585 0.332670 0.728775 -0.180276
C20   C     C_R   0.176110 0.444936 0.691748 -0.112963
C21   C     C_R   0.209765 0.651473 0.689144 -0.004074
C22   C     C_R   0.707414 0.692389 0.181332 -0.006915
C23   C     C_3   0.699726 0.674563 0.812020 0.047099
C24   C     C_R   0.792313 0.557731 0.212553 0.050231
C25   C     C_R   0.734630 0.519632 0.268105 0.027007
C26   C     C_R   0.555529 0.762650 0.285521 -0.133356
C27   C     C_R   0.588681 0.793699 0.218627 -0.159558
C28   C     C_R   0.226380 0.648351 0.398944 0.537534
C29   C     C_R   0.923945 0.452492 0.184712 -0.086934
C30   C     C_R   0.964712 0.312928 0.191070 -0.132567
C31   C     C_R   0.892703 0.275741 0.237446 -0.121075
C32   C     C_R   0.781245 0.377078 0.277863 -0.088359
C33   C     C_R   0.630728 0.624931 0.311258 -0.001796
C34   C     C_3   0.669607 0.647983 0.676169 0.057789
C35   C     C_R   0.685665 0.070369 0.190535 -0.010105
C36   C     C_R   0.559024 0.112868 0.229363 0.019869
C37   C     C_R   0.568620 0.095305 0.303869 0.050250
C38   C     C_R   0.798856 0.063214 0.303773 -0.178526
C39   C     C_R   0.808783 0.029955 0.230408 -0.163750
C40   C     C_R   0.617283 0.592052 0.385373 0.551870
C41   C     C_R   0.422729 0.177997 0.200004 -0.114674
C42   C     C_R   0.307711 0.207892 0.243500 -0.158658
C43   C     C_R   0.325871 0.164573 0.314066 -0.118246
C44   C     C_R   0.459287 0.093630 0.341702 -0.078090
C45   C     C_3   0.818625 0.622377 0.689796 -0.246145
C46   C     C_R   0.671381 0.112435 0.339162 -0.004029
C47   C     C_R   0.187413 0.650691 0.174356 -0.000142
C48   C     C_R   0.225745 0.738854 0.208645 0.031499
C49   C     C_R   0.193009 0.766733 0.281494 0.031040
C50   C     C_R   0.180953 0.553643 0.288663 -0.142242
C51   C     C_R   0.179096 0.549402 0.214323 -0.152405
C52   C     C_R   0.624827 0.213421 0.400729 0.523004
C53   C     C_R   0.270826 0.818026 0.169707 -0.064275
C54   C     C_R   0.248387 0.944092 0.197560 -0.121028
C55   C     C_R   0.189026 0.986096 0.265280 -0.159764
C56   C     C_3   0.647091 0.541577 0.720760 -0.213978
C57   C     C_R   0.166151 0.897544 0.308022 -0.106899
C58   C     C_R   0.183941 0.664782 0.323618 -0.004003
C59   C     C_R   0.703402 0.100295 0.895383 0.566007
C60   C     C_R   0.724025 0.688292 0.888083 0.553050
C61   C     C_R   0.123096 0.702911 0.907348 0.563539
C62   C     C_R   0.699224 0.046462 0.111997 0.543540
C63   C     C_R   0.731959 0.715066 0.106454 0.536088
C64   C     C_3   0.574928 0.813047 0.781964 -0.231742
C65   C     C_R   0.103786 0.703365 0.108997 0.532413
C66   C     C_3   0.560890 0.799091 0.701155 -0.243079
C67   C     C_R   0.692741 0.147463 0.821029 -0.002154
C68   C     C_3   0.835206 0.641671 0.769622 -0.221476
C69   C     C_R   0.806431 0.139250 0.780491 0.012792
C70   C     C_R   0.800017 0.137666 0.704520 0.016663
Cr1   Cr    Cr6+3 0.392940 0.397950 0.502230 0.998875
Cr2   Cr    Cr6+3 0.398400 0.708500 0.501260 0.992929
Cr3   Cr    Cr6+3 0.708640 0.393530 0.496460 0.992643
Cr4   Cr    Cr6+3 0.937880 0.938320 0.007620 1.008467
Cr5   Cr    Cr6+3 0.625560 0.937220 0.994510 1.017434
Cr6   Cr    Cr6+3 0.938080 0.625010 0.001190 1.022328
H1    H     H_    0.592813 0.901986 0.791776 0.143339
H2    H     H_    0.924088 0.094666 0.606563 0.130416
H3    H     H_    0.243784 0.826849 0.702895 0.140201
H4    H     H_    0.474927 0.838024 0.809465 0.117290
H5    H     H_    0.226002 0.836262 0.830121 0.138342
H6    H     H_    0.231019 0.223579 0.828224 0.117737
H7    H     H_    0.169021 0.255871 0.700453 0.114474
H8    H     H_    0.146411 0.454162 0.636374 0.140333
H9    H     H_    0.470010 0.844744 0.316307 0.158584
H10   H     H_    0.988161 0.475277 0.150766 0.152664
H11   H     H_    0.522572 0.895856 0.196024 0.145198
H12   H     H_    0.722303 0.431997 0.703240 0.154556
H13   H     H_    0.051905 0.233769 0.159814 0.107875
H14   H     H_    0.928568 0.167824 0.242941 0.127656
H15   H     H_    0.451947 0.824272 0.689686 0.129711
H16   H     H_    0.725507 0.345718 0.312601 0.150622
H17   H     H_    0.885968 0.058697 0.331908 0.111307
H18   H     H_    0.399256 0.217937 0.146472 0.170548
H19   H     H_    0.909990 0.985313 0.203757 0.158419
H20   H     H_    0.204283 0.265288 0.222684 0.103169
H21   H     H_    0.236751 0.190935 0.348652 0.103486
H22   H     H_    0.472069 0.060433 0.396917 0.127389
H23   H     H_    0.927052 0.544110 0.789778 0.163573
H24   H     H_    0.179060 0.471232 0.318709 0.151332
H25   H     H_    0.308802 0.789923 0.115147 0.137596
H26   H     H_    0.169799 0.469321 0.187311 0.114525
H27   H     H_    0.578804 0.876350 0.672040 0.115410
H28   H     H_    0.269467 0.012032 0.165028 0.114535
H29   H     H_    0.153307 0.089963 0.284166 0.116992
H30   H     H_    0.117743 0.937949 0.359636 0.134072
H31   H     H_    0.858133 0.728173 0.777140 0.122987
H32   H     H_    0.837592 0.696159 0.657990 0.111571
H33   H     H_    0.757507 0.454271 0.820391 0.138838
H34   H     H_    0.898563 0.513776 0.673216 0.143871
H35   H     H_    0.572409 0.576960 0.831226 0.127050
H36   H     H_    0.539134 0.560000 0.712195 0.131576
H37   H     H_    0.474080 0.173045 0.689384 0.154567
H38   H     H_    0.932314 0.146672 0.868702 0.147702
H39   H     H_    0.487790 0.164450 0.812529 0.166336
H40   H     H_    0.134139 0.096507 0.795843 0.095712
H41   H     H_    0.129684 0.074090 0.664766 0.097120
I1    I     I_    0.317592 0.355800 0.943373 -0.365916
O1    O     O_R   0.507340 0.255690 0.581430 -0.525955
O2    O     O_R   0.837290 0.593240 0.915240 -0.511891
O3    O     O_R   0.065320 0.635310 0.931580 -0.476428
O4    O     O_R   0.280360 0.527380 0.578910 -0.505618
O5    O     O_R   0.068470 0.828620 0.091850 -0.536345
O6    O     O_R   0.799150 0.057200 0.079350 -0.483994
O7    O     O_R   0.585220 0.080180 0.076770 -0.516950
O8    O     O_R   0.627170 0.809480 0.067050 -0.508302
O9    O     O_R   0.816200 0.596410 0.076500 -0.513003
O10   O     O_R   0.045770 0.638240 0.081070 -0.524269
O11   O     O_3   0.833840 0.833520 0.001110 -0.291397
O12   O     O_R   0.524510 0.695820 0.424050 -0.506521
O13   O     O_R   0.260600 0.739610 0.584580 -0.530152
O14   O     O_R   0.532370 0.695050 0.573830 -0.507680
O15   O     O_R   0.744850 0.503430 0.576380 -0.524922
O16   O     O_R   0.699080 0.276500 0.571950 -0.515051
O17   O     O_R   0.498860 0.256520 0.419860 -0.517860
O18   O     O_R   0.272490 0.528150 0.429140 -0.496455
O19   O     O_R   0.252110 0.740440 0.423010 -0.536059
O20   O     O_R   0.736370 0.504260 0.414810 -0.511832
O21   O     O_R   0.691220 0.277270 0.422180 -0.532641
O22   O     O_3   0.499990 0.499990 0.499980 -0.257317
O23   O     O_R   0.089570 0.825450 0.930590 -0.526968
O24   O     O_R   0.818700 0.054260 0.929860 -0.505504
O25   O     O_R   0.606310 0.077010 0.915520 -0.501255
O26   O     O_R   0.646730 0.806540 0.917560 -0.506371

loop_
_geom_bond_atom_site_label_1
_geom_bond_atom_site_label_2
_ccdc_geom_bond_type
Cr4   O6    S    
C34   C56   S    
C5    H38   S    
C64   H1    S    
C7    H41   S    
Cr1   O4    S    
C19   C20   A    
C16   O16   A    
C34   C66   S    
C62   O6    A    
C7    C8    A    
C4    O14   A    
C32   H16   S    
C53   C54   A    
C51   H26   S    
C1    C21   S    
C12   C23   S    
C26   C27   A    
Cr6   O2    S    
C55   H29   S    
C5    C6    A    
Cr6   O3    S    
C14   C21   A    
C54   H28   S    
C36   C37   A    
C9    C16   S    
C10   C15   A    
Cr1   O17   S    
C30   C31   A    
C2    H37   S    
C56   H12   S    
Cr3   O20   S    
C46   C52   S    
C52   O21   A    
C49   C57   A    
C61   O3    A    
C18   C19   A    
C41   C42   A    
C24   C29   A    
C5    C69   A    
C59   C67   S    
C22   C63   S    
C1    O4    A    
C44   H22   S    
C41   H18   S    
C59   O24   A    
C53   H25   S    
C40   O20   A    
C47   C48   A    
C60   O2    A    
C68   H31   S    
C45   H32   S    
C25   C32   A    
Cr4   O5    S    
Cr4   O24   S    
C59   O25   A    
C8    H2    S    
C64   H4    S    
C36   C41   A    
C48   C53   A    
C30   H13   S    
C19   H7    S    
C12   H33   S    
Cr2   O14   S    
Cr2   O19   S    
C23   C60   S    
C4    C34   S    
C33   C40   S    
C50   C58   A    
C65   O10   A    
C9    C70   A    
C15   H5    S    
Cr5   O26   S    
C16   O1    A    
Cr1   O18   S    
C45   H34   S    
C47   C51   A    
Cr3   O21   S    
C50   C51   A    
C49   C58   A    
C67   C69   A    
C35   C36   A    
C64   C66   S    
C23   C68   S    
C35   C39   A    
C43   C44   A    
C29   C30   A    
Cr6   O11   S    
C26   C33   A    
C31   C32   A    
C31   H14   S    
C6    H40   S    
C45   C68   S    
C17   C18   A    
C13   C21   A    
C34   C45   S    
C14   H3    S    
C24   C25   A    
C27   H11   S    
C39   H19   S    
C29   H10   S    
C12   C56   S    
C66   H15   S    
Cr5   O25   S    
C17   I1    S    
C61   O23   A    
C23   C64   S    
Cr4   O23   S    
Cr3   O15   S    
C22   C27   A    
C55   C57   A    
Cr6   O10   S    
C22   C24   A    
C10   C61   S    
C42   C43   A    
Cr2   O13   S    
C52   O17   A    
C40   O12   A    
C54   C55   A    
C11   C17   A    
Cr1   O22   S    
C13   C20   A    
C28   O18   A    
C50   H24   S    
C66   H27   S    
C3    C67   A    
C28   O19   A    
C43   H21   S    
C1    O13   A    
C62   O7    A    
Cr2   O12   S    
C6    C7    A    
Cr3   O22   S    
C28   C58   S    
C8    C70   A    
Cr1   O1    S    
C42   H20   S    
Cr5   O8    S    
C37   C44   A    
C20   H8    S    
C2    C3    A    
C68   H23   S    
C3    H39   S    
C60   O26   A    
C11   C13   A    
C38   C39   A    
C26   H9    S    
C48   C49   A    
C38   H17   S    
C18   H6    S    
C47   C65   S    
C57   H30   S    
C35   C62   S    
C65   O5    A    
C69   C70   A    
C38   C46   A    
C63   O8    A    
C10   C11   A    
Cr2   O22   S    
Cr3   O16   S    
Cr4   O11   S    
Cr6   O9    S    
C14   C15   A    
Cr5   O7    S    
C37   C46   A    
C2    C9    A    
C56   H36   S    
C12   H35   S    
C63   O9    A    
Cr5   O11   S    
C25   C33   A    
C4    O15   A    
