data_mof_unit_66219.cif
_audit_creation_date              2012-12-11T17:37:29-0500
_audit_creation_method            fapswitch 2.2
_symmetry_space_group_name_H-M    P1
_symmetry_Int_Tables_number       1
_space_group_crystal_system       triclinic
_cell_length_a                    23.76216
_cell_length_b                    6.913665
_cell_length_c                    21.987154
_cell_angle_alpha                 89.999986
_cell_angle_beta                  101.832356
_cell_angle_gamma                 90.0
_cell_volume                      3535.37769606

loop_
_atom_site_label
_atom_site_type_symbol
_atom_type_description
_atom_site_fract_x
_atom_site_fract_y
_atom_site_fract_z
_atom_type_partial_charge
O1    O     O_R   0.301920 0.607900 0.199160 -0.497842
O2    O     O_R   0.698080 0.392100 0.800840 -0.497842
O3    O     O_R   0.198080 0.107900 0.300840 -0.497841
O4    O     O_R   0.801920 0.892100 0.699160 -0.497841
O5    O     O_R   0.190790 0.275820 0.184850 -0.526315
O6    O     O_R   0.809210 0.724180 0.815150 -0.526315
O7    O     O_R   0.309210 0.775820 0.315150 -0.526314
O8    O     O_R   0.690790 0.224180 0.684850 -0.526314
C1    C     C_R   0.168724 0.447182 0.166667 0.725237
C2    C     C_R   0.831276 0.552817 0.833333 0.725236
C3    C     C_R   0.331276 0.947182 0.333333 0.725239
C4    C     C_R   0.668724 0.052818 0.666667 0.725240
O9    O     O_R   0.301050 0.278040 0.191980 -0.537704
O10   O     O_R   0.698950 0.721960 0.808020 -0.537704
O11   O     O_R   0.198950 0.778040 0.308020 -0.537704
O12   O     O_R   0.801050 0.221960 0.691980 -0.537704
O13   O     O_R   0.309130 0.110040 0.308020 -0.525922
O14   O     O_R   0.690870 0.889960 0.691980 -0.525922
O15   O     O_R   0.190870 0.610040 0.191980 -0.525923
O16   O     O_R   0.809130 0.389960 0.808020 -0.525923
C5    C     C_R   0.319340 0.447504 0.178706 0.734534
C6    C     C_R   0.680660 0.552496 0.821294 0.734535
C7    C     C_R   0.180660 0.947504 0.321294 0.734535
C8    C     C_R   0.819340 0.052496 0.678706 0.734534
O17   O     O_3   0.252520 0.442130 0.288070 -0.352970
O18   O     O_3   0.747480 0.557870 0.711930 -0.352970
O19   O     O_3   0.247480 0.942130 0.211930 -0.352972
O20   O     O_3   0.752520 0.057870 0.788070 -0.352971
V1    V     V_3+5 0.249530 0.166380 0.242940 1.519497
V2    V     V_3+5 0.750470 0.833620 0.757060 1.519497
V3    V     V_3+5 0.250470 0.666380 0.257060 1.519498
V4    V     V_3+5 0.749530 0.333620 0.742940 1.519498
C9    C     C_R   0.914783 0.194073 0.565564 -0.127825
C10   C     C_R   0.085217 0.805927 0.434436 -0.127825
C11   C     C_R   0.585219 0.694070 0.934438 -0.127826
C12   C     C_R   0.414781 0.305930 0.065562 -0.127826
H1    H     H_    0.924414 0.323017 0.541612 0.131522
H2    H     H_    0.075586 0.676983 0.458388 0.131522
H3    H     H_    0.575589 0.823013 0.958391 0.131523
H4    H     H_    0.424411 0.176987 0.041608 0.131523
C13   C     C_R   0.875110 0.204950 0.604817 -0.223173
C14   C     C_R   0.124890 0.795050 0.395183 -0.223172
C15   C     C_R   0.624891 0.704948 0.895185 -0.223170
C16   C     C_R   0.375109 0.295052 0.104815 -0.223170
H5    H     H_    0.854855 0.342542 0.609915 0.206301
H6    H     H_    0.145145 0.657458 0.390085 0.206301
H7    H     H_    0.645149 0.842538 0.890089 0.206292
H8    H     H_    0.354851 0.157462 0.109911 0.206292
C17   C     C_R   0.861516 0.040068 0.636705 -0.185153
C18   C     C_R   0.138484 0.959932 0.363295 -0.185154
C19   C     C_R   0.638483 0.540068 0.863294 -0.185152
C20   C     C_R   0.361517 0.459932 0.136706 -0.185153
C21   C     C_R   0.889119 0.863608 0.628139 0.605339
C22   C     C_R   0.110881 0.136392 0.371861 0.605339
C23   C     C_R   0.610879 0.363610 0.871858 0.605340
C24   C     C_R   0.389121 0.636390 0.128141 0.605340
C25   C     C_R   0.928583 0.853685 0.588769 -0.208279
C26   C     C_R   0.071417 0.146314 0.411230 -0.208279
C27   C     C_R   0.571415 0.353687 0.911228 -0.208280
C28   C     C_R   0.428585 0.646312 0.088772 -0.208279
H9    H     H_    0.949147 0.716871 0.583043 0.136435
H10   H     H_    0.050853 0.283129 0.416957 0.136435
H11   H     H_    0.550849 0.216875 0.916953 0.136437
H12   H     H_    0.449151 0.783125 0.083046 0.136437
C29   C     C_R   0.941685 0.018276 0.557306 0.036315
C30   C     C_R   0.058315 0.981724 0.442694 0.036315
C31   C     C_R   0.558315 0.518276 0.942694 0.036314
C32   C     C_R   0.441685 0.481724 0.057306 0.036314
C33   C     C_1   0.982796 0.005817 0.516853 -0.019016
C34   C     C_1   0.017204 0.994183 0.483147 -0.019016
C35   C     C_1   0.517204 0.505817 0.983147 -0.019015
C36   C     C_1   0.482796 0.494183 0.016853 -0.019015
C37   C     C_1   0.616633 0.040794 0.614564 -0.203631
C38   C     C_1   0.383367 0.959206 0.385436 -0.203630
C39   C     C_1   0.883367 0.540794 0.885436 -0.203632
C40   C     C_1   0.116633 0.459206 0.114564 -0.203632
C41   C     C_1   0.573272 0.026816 0.571794 0.009520
C42   C     C_1   0.426728 0.973184 0.428206 0.009520
C43   C     C_1   0.926728 0.526816 0.928206 0.009519
C44   C     C_1   0.073272 0.473184 0.071793 0.009519
C45   C     C_1   0.521732 0.008107 0.521271 0.006548
C46   C     C_1   0.478268 0.991893 0.478729 0.006548
C47   C     C_1   0.978267 0.508107 0.978729 0.006547
C48   C     C_1   0.021732 0.491893 0.021271 0.006547
F1    F     F_    0.878855 0.700331 0.658360 -0.703419
F2    F     F_    0.121145 0.299669 0.341640 -0.703419
F3    F     F_    0.621141 0.200335 0.841636 -0.703416
F4    F     F_    0.378859 0.799665 0.158364 -0.703416

loop_
_geom_bond_atom_site_label_1
_geom_bond_atom_site_label_2
_ccdc_geom_bond_type
C26   H10   S    
O1    C5    A    
C23   C27   A    
O19   V1    S    
O13   V1    S    
O3    C7    A    
C10   C14   A    
C44   C48   S    
O15   V3    S    
C10   C30   A    
C45   C46   T    
C9    C29   A    
O7    C3    A    
C18   C22   A    
O9    V1    S    
C22   C26   A    
O4    C8    A    
C29   C33   S    
C24   F4    S    
O1    V3    S    
O2    V4    S    
C14   H6    S    
O3    V1    S    
C27   C31   A    
C1    O15   A    
C2    O16   A    
O2    C6    A    
O14   V2    S    
C1    C40   S    
C11   C31   A    
C11   C15   A    
C19   C23   A    
C32   C36   S    
C16   C20   A    
O11   C7    A    
O12   C8    A    
C4    C37   S    
O10   V2    S    
C13   C17   A    
C26   C30   A    
O5    V1    S    
O17   V1    S    
O7    V3    S    
O19   V3    S    
O8    V4    S    
C12   H4    S    
C22   F2    S    
C21   C25   A    
O18   V4    S    
C7    C18   S    
C9    H1    S    
C24   C28   A    
C11   H3    S    
O5    C1    A    
C2    C39   S    
C42   C46   S    
C47   C48   T    
O20   V4    S    
O8    C4    A    
O9    C5    A    
C25   H9    S    
C14   C18   A    
O6    V2    S    
O18   V2    S    
C12   C16   A    
O16   V4    S    
C8    C17   S    
C3    O13   A    
C13   H5    S    
C10   H2    S    
O17   V3    S    
C40   C44   T    
C25   C29   A    
C3    C38   S    
O6    C2    A    
C12   C32   A    
O11   V3    S    
O12   V4    S    
C27   H11   S    
C28   H12   S    
C9    C13   A    
O10   C6    A    
O20   V2    S    
C35   C36   T    
C43   C47   S    
C15   C19   A    
C30   C34   S    
C39   C43   T    
C17   C21   A    
C31   C35   S    
C23   F3    S    
C33   C34   T    
C16   H8    S    
C28   C32   A    
C41   C45   S    
C38   C42   T    
C4    O14   A    
C37   C41   T    
C21   F1    S    
C15   H7    S    
C5    C20   S    
O4    V2    S    
C20   C24   A    
C6    C19   S    
