data_mof_unit_53597.cif
_audit_creation_date              2012-12-10T16:35:57-0500
_audit_creation_method            fapswitch 2.2
_symmetry_space_group_name_H-M    P1
_symmetry_Int_Tables_number       1
_space_group_crystal_system       triclinic
_cell_length_a                    14.038517
_cell_length_b                    16.564295
_cell_length_c                    13.120018
_cell_angle_alpha                 89.887343
_cell_angle_beta                  107.293781
_cell_angle_gamma                 89.923096
_cell_volume                      2912.97095713

loop_
_atom_site_label
_atom_site_type_symbol
_atom_type_description
_atom_site_fract_x
_atom_site_fract_y
_atom_site_fract_z
_atom_type_partial_charge
C1    C     C_R   0.313230 0.845379 0.475497 0.483889
C2    C     C_R   0.687326 0.843907 0.524803 0.520762
C3    C     C_R   0.188247 0.654675 0.522256 0.524536
C4    C     C_R   0.187323 0.343904 0.524809 0.520771
C5    C     C_R   0.546787 0.002049 0.786298 0.524502
C6    C     C_R   0.046790 0.502042 0.786297 0.524422
C7    C     C_R   0.453787 0.000015 0.215129 0.470684
C8    C     C_R   0.953779 0.500016 0.215130 0.470628
C9    C     C_2   0.433917 0.999914 0.098803 0.289780
C10   C     C_2   0.933891 0.499927 0.098805 0.290030
C11   C     C_2   0.505763 0.027234 0.059179 -0.106424
C12   C     C_R   0.312600 0.154290 0.474248 0.482303
C13   C     C_2   0.005792 0.527136 0.059193 -0.106198
C14   C     C_2   0.564080 0.009152 0.902333 -0.089077
C15   C     C_2   0.064098 0.509102 0.902333 -0.089291
C16   C     C_2   0.489701 0.030360 0.942829 0.265320
C17   C     C_2   0.989731 0.530289 0.942850 0.265264
C18   C     C_2   0.768837 0.212587 0.526316 -0.003765
C19   C     C_2   0.765379 0.781896 0.536293 -0.010442
C20   C     C_2   0.268834 0.712595 0.526331 -0.003766
C21   C     C_2   0.265369 0.281884 0.536318 -0.010479
C22   C     C_3   0.374129 0.130244 0.884644 0.007659
C23   C     C_R   0.813231 0.345378 0.475500 0.483903
C24   C     C_3   0.272269 0.150126 0.807473 -0.360916
C25   C     C_3   0.874520 0.630355 0.884362 0.007687
C26   C     C_3   0.772532 0.650281 0.807489 -0.360882
C27   C     C_3   0.265093 0.973485 0.065686 0.007214
C28   C     C_3   0.172844 0.947484 0.977468 -0.363274
C29   C     C_3   0.765027 0.473675 0.065758 0.007224
C30   C     C_3   0.672698 0.447819 0.977543 -0.363272
C31   C     C_3   0.379271 0.696796 0.586427 -0.270074
C32   C     C_3   0.406484 0.614071 0.638994 -0.420007
C33   C     C_3   0.370337 0.287025 0.616881 -0.274012
C34   C     C_R   0.812599 0.654289 0.474247 0.482308
C35   C     C_3   0.391813 0.356920 0.696271 -0.420422
C36   C     C_3   0.879278 0.196773 0.586382 -0.270070
C37   C     C_3   0.906490 0.114030 0.638893 -0.420020
C38   C     C_3   0.870365 0.787057 0.616813 -0.274016
C39   C     C_3   0.891879 0.856987 0.696149 -0.420465
C40   C     C_2   0.241776 0.782376 0.473017 -0.097519
C41   C     C_2   0.241784 0.218134 0.470344 -0.103791
C42   C     C_2   0.741777 0.282376 0.473022 -0.097514
C43   C     C_2   0.741781 0.718132 0.470346 -0.103776
C44   C     C_R   0.688248 0.154672 0.522252 0.524545
H1    H     H_    0.577026 0.047055 0.112475 0.042124
H2    H     H_    0.372312 0.145039 0.966805 0.127995
H3    H     H_    0.213443 0.115457 0.829131 0.148069
H4    H     H_    0.256680 0.215644 0.810982 0.088263
H5    H     H_    0.270459 0.134449 0.724704 0.183360
H6    H     H_    0.931177 0.668504 0.863062 0.104722
H7    H     H_    0.873127 0.645506 0.966566 0.127755
H8    H     H_    0.713761 0.615964 0.829729 0.148004
H9    H     H_    0.757242 0.715880 0.810655 0.088294
H10   H     H_    0.770279 0.634208 0.724712 0.183472
H11   H     H_    0.255613 0.038140 0.084199 0.114093
H12   H     H_    0.077101 0.546856 0.112499 0.041993
H13   H     H_    0.270498 0.935562 0.137271 0.139369
H14   H     H_    0.178993 0.882776 0.958232 0.161162
H15   H     H_    0.105334 0.955997 0.003874 0.084618
H16   H     H_    0.164995 0.984273 0.904571 0.165844
H17   H     H_    0.755669 0.538324 0.084390 0.114240
H18   H     H_    0.770414 0.435696 0.137290 0.139298
H19   H     H_    0.678726 0.383120 0.958187 0.161170
H20   H     H_    0.605232 0.456369 0.004017 0.084636
H21   H     H_    0.664867 0.484670 0.904700 0.165847
H22   H     H_    0.375129 0.606666 0.706797 0.179620
H23   H     H_    0.638221 0.996468 0.955479 0.049866
H24   H     H_    0.380347 0.565108 0.579557 0.165004
H25   H     H_    0.488923 0.609186 0.671577 0.117962
H26   H     H_    0.423364 0.703667 0.529243 0.163445
H27   H     H_    0.405288 0.743540 0.649233 0.146347
H28   H     H_    0.387601 0.415593 0.654096 0.173075
H29   H     H_    0.339679 0.355736 0.745470 0.170725
H30   H     H_    0.468794 0.350537 0.751117 0.116899
H31   H     H_    0.384998 0.230553 0.664934 0.141693
H32   H     H_    0.425911 0.289996 0.571766 0.156367
H33   H     H_    0.875166 0.106604 0.706716 0.179624
H34   H     H_    0.138238 0.496389 0.955463 0.049902
H35   H     H_    0.880318 0.065089 0.579430 0.164978
H36   H     H_    0.988931 0.109129 0.671437 0.117947
H37   H     H_    0.923357 0.203665 0.529188 0.163466
H38   H     H_    0.905311 0.243497 0.649213 0.146332
H39   H     H_    0.887622 0.915641 0.653921 0.173059
H40   H     H_    0.839794 0.855826 0.745405 0.170728
H41   H     H_    0.968883 0.850629 0.750948 0.116876
H42   H     H_    0.885037 0.730603 0.664903 0.141634
H43   H     H_    0.925912 0.789997 0.571664 0.156390
H44   H     H_    0.663939 0.297052 0.434106 0.108118
H45   H     H_    0.668556 0.711349 0.412703 0.111130
H46   H     H_    0.163940 0.797044 0.434074 0.108113
H47   H     H_    0.168578 0.211372 0.412660 0.111136
H48   H     H_    0.430822 0.168692 0.863880 0.104651
O1    O     O_3   0.500010 1.000000 0.500000 -0.432983
O2    O     O_R   0.103010 0.337110 0.452470 -0.547941
O3    O     O_R   0.316670 0.095240 0.537470 -0.548273
O4    O     O_R   0.316670 0.904760 0.537470 -0.533864
O5    O     O_R   0.816670 0.595240 0.537470 -0.548301
O6    O     O_R   0.816670 0.404760 0.537470 -0.533861
O7    O     O_R   0.703490 0.904800 0.585920 -0.549883
O8    O     O_R   0.703490 0.095200 0.585920 -0.546802
O9    O     O_R   0.203490 0.404800 0.585920 -0.549878
O10   O     O_R   0.203490 0.595200 0.585920 -0.546809
O11   O     O_R   0.458050 1.000000 0.725250 -0.473440
O12   O     O_3   0.000010 0.500000 0.500000 -0.432969
O13   O     O_R   0.958050 0.500000 0.725250 -0.473517
O14   O     O_R   0.461630 0.932310 0.264690 -0.535167
O15   O     O_R   0.461630 0.067690 0.264690 -0.565157
O16   O     O_R   0.961630 0.432310 0.264690 -0.535223
O17   O     O_R   0.961630 0.567690 0.264690 -0.565123
O18   O     O_R   0.618750 1.000000 0.745380 -0.559594
O19   O     O_R   0.118750 0.500000 0.745380 -0.559588
O20   O     O_3   0.394887 0.047598 0.875567 -0.475058
O21   O     O_3   0.894929 0.547601 0.875629 -0.474972
O22   O     O_3   0.350110 0.962467 0.030645 -0.517449
O23   O     O_R   0.376880 0.837120 0.424150 -0.544137
O24   O     O_3   0.849987 0.462608 0.030631 -0.517388
O25   O     O_R   0.376880 0.162880 0.424150 -0.537039
O26   O     O_R   0.876880 0.337120 0.424150 -0.544133
O27   O     O_R   0.876880 0.662880 0.424150 -0.537043
O28   O     O_R   0.603010 0.162890 0.452470 -0.547994
O29   O     O_R   0.603010 0.837110 0.452470 -0.547939
O30   O     O_R   0.103010 0.662890 0.452470 -0.547996
Zn1   Zn    Zn3+2 0.485630 0.096680 0.411850 0.916253
Zn2   Zn    Zn3+2 0.485630 0.903320 0.411850 0.923467
Zn3   Zn    Zn3+2 0.985630 0.596680 0.411850 0.916257
Zn4   Zn    Zn3+2 0.985630 0.403320 0.411850 0.923460
Zn5   Zn    Zn3+2 0.399590 0.000000 0.573760 0.950531
Zn6   Zn    Zn3+2 0.899590 0.500000 0.573760 0.950465
Zn7   Zn    Zn3+2 0.629190 0.000000 0.602520 0.907868
Zn8   Zn    Zn3+2 0.129190 0.500000 0.602520 0.907847

loop_
_geom_bond_atom_site_label_1
_geom_bond_atom_site_label_2
_ccdc_geom_bond_type
C5    O11   A    
C35   H30   S    
C30   H20   S    
C6    O19   A    
O1    Zn2   S    
O15   Zn1   S    
C23   O26   A    
O1    Zn5   S    
C17   O21   S    
C37   H35   S    
C43   H45   S    
C23   C42   S    
C38   H42   S    
C9    O22   S    
C36   C37   S    
C39   H40   S    
C26   H8    S    
C18   C42   D    
C38   C39   S    
C20   C40   D    
C27   H11   S    
C28   H15   S    
C15   H34   S    
C21   C33   S    
C5    O18   A    
C44   O28   A    
C26   H10   S    
C24   H5    S    
C34   O5    A    
O18   Zn7   S    
C15   C17   D    
C25   H6    S    
O29   Zn2   S    
O19   Zn8   S    
C1    C40   S    
C6    C15   S    
C33   H31   S    
C31   H26   S    
O12   Zn3   S    
C36   H38   S    
C14   H23   S    
C12   O3    A    
C14   C16   D    
O11   Zn5   S    
C3    O30   A    
C32   H24   S    
C13   H12   S    
O9    Zn8   S    
C31   H27   S    
O12   Zn8   S    
C30   H19   S    
O5    Zn6   S    
O1    Zn7   S    
C8    O16   A    
C19   C43   D    
O2    Zn4   S    
C37   H36   S    
C29   H17   S    
O7    Zn7   S    
C24   H4    S    
O10   Zn8   S    
C27   H13   S    
O8    Zn7   S    
C25   C26   S    
C37   H33   S    
O4    Zn5   S    
C25   H7    S    
C29   C30   S    
C19   C38   S    
C18   C44   S    
C11   C16   S    
C33   H32   S    
C31   C32   S    
O12   Zn6   S    
C36   H37   S    
C4    O9    A    
C7    O14   A    
C3    C20   S    
C9    C11   D    
C5    C14   S    
C28   H16   S    
C21   C41   D    
C25   O21   S    
O27   Zn3   S    
C3    O10   A    
O17   Zn3   S    
C22   H2    S    
C29   O24   S    
C35   H28   S    
C22   O20   S    
C22   C24   S    
C11   H1    S    
C42   H44   S    
C39   H41   S    
C26   H9    S    
C10   O24   S    
C16   O20   S    
C12   C41   S    
C32   H22   S    
C2    O29   A    
C34   O27   A    
C7    C9    S    
C29   H18   S    
C35   H29   S    
O23   Zn2   S    
O13   Zn6   S    
C41   H47   S    
C2    C19   S    
C24   H3    S    
C34   C43   S    
O1    Zn1   S    
C10   C13   D    
C2    O7    A    
O28   Zn1   S    
C32   H25   S    
C28   H14   S    
O26   Zn4   S    
C13   C17   S    
C38   H43   S    
O16   Zn4   S    
O30   Zn3   S    
O25   Zn1   S    
C39   H39   S    
C8    O17   A    
C4    C21   S    
C44   O8    A    
C4    O2    A    
C1    O4    A    
O6    Zn6   S    
C33   C35   S    
C6    O13   A    
C7    O15   A    
C30   H21   S    
C12   O25   A    
C27   O22   S    
O3    Zn5   S    
C23   O6    A    
O12   Zn4   S    
C8    C10   S    
O14   Zn2   S    
C27   C28   S    
C22   H48   S    
C1    O23   A    
C40   H46   S    
C18   C36   S    
C20   C31   S    
