data_mof_unit_51918.cif
_audit_creation_date              2012-12-11T14:21:20-0500
_audit_creation_method            fapswitch 2.2
_symmetry_space_group_name_H-M    P1
_symmetry_Int_Tables_number       1
_space_group_crystal_system       triclinic
_cell_length_a                    21.944185
_cell_length_b                    7.208687
_cell_length_c                    14.973145
_cell_angle_alpha                 90.499554
_cell_angle_beta                  107.154269
_cell_angle_gamma                 89.888335
_cell_volume                      2263.12814732

loop_
_atom_site_label
_atom_site_type_symbol
_atom_type_description
_atom_site_fract_x
_atom_site_fract_y
_atom_site_fract_z
_atom_type_partial_charge
O1    O     O_R   0.584770 0.505770 0.002090 -0.537427
O2    O     O_R   0.415230 0.005770 0.997910 -0.537311
O3    O     O_R   0.467060 0.173340 0.861950 -0.539449
O4    O     O_R   0.532940 0.673340 0.138050 -0.538449
C1    C     C_R   0.454169 0.343369 0.826101 0.677847
C2    C     C_R   0.545282 0.845029 0.173847 0.677160
O5    O     O_R   0.587510 0.175890 0.993210 -0.512836
O6    O     O_R   0.412490 0.675890 0.006790 -0.513187
O7    O     O_R   0.536540 0.008150 0.130100 -0.539854
O8    O     O_R   0.463460 0.508150 0.869900 -0.539651
C3    C     C_R   0.612850 0.343949 0.996267 0.759000
C4    C     C_R   0.387167 0.844193 0.003763 0.759633
O9    O     O_3   0.483140 0.340040 0.044760 -0.366529
O10   O     O_3   0.516860 0.840040 0.955240 -0.366136
V1    V     V_3+5 0.503130 0.064190 0.991700 1.526451
V2    V     V_3+5 0.496870 0.564190 0.008300 1.526455
C5    C     C_2   0.215470 0.730046 0.015085 -0.122988
C6    C     C_2   0.784593 0.230396 0.984113 -0.152181
C7    C     C_2   0.181683 0.888705 0.004368 -0.348259
C8    C     C_2   0.818890 0.388555 0.998766 -0.315955
H1    H     H_    0.191598 0.600715 0.020653 0.195882
H2    H     H_    0.808019 0.101879 0.974836 0.186005
H3    H     H_    0.204384 0.021182 0.002112 0.159128
H4    H     H_    0.796756 0.520710 0.004616 0.161653
C9    C     C_2   0.284886 0.715907 0.024609 0.299403
C10   C     C_2   0.715220 0.215650 0.974930 0.292814
C11   C     C_2   0.319117 0.855303 0.001701 -0.338348
C12   C     C_2   0.680904 0.355074 0.998560 -0.323899
H5    H     H_    0.296001 0.985984 0.977328 0.130130
H6    H     H_    0.703819 0.486374 0.023359 0.128223
C13   C     C_R   0.928161 0.882417 0.723530 -0.177141
C14   C     C_R   0.071716 0.389308 0.275988 -0.196425
C15   C     C_R   0.574474 0.857377 0.274870 -0.027948
C16   C     C_R   0.424592 0.346265 0.724899 -0.030710
C17   C     C_R   0.940423 0.908175 0.567416 0.227194
C18   C     C_R   0.057307 0.368220 0.430976 0.269759
C19   C     C_R   0.966891 0.918221 0.665534 0.217865
C20   C     C_R   0.031935 0.357109 0.332625 0.196789
C21   C     C_R   0.862736 0.846189 0.684784 0.121835
C22   C     C_R   0.137486 0.414396 0.315818 0.140288
C23   C     C_R   0.833800 0.868701 0.587453 0.002499
C24   C     C_R   0.165228 0.385614 0.412804 0.000223
C25   C     C_R   0.873926 0.876607 0.528616 -0.013576
C26   C     C_R   0.124564 0.386355 0.471087 -0.027440
C27   C     C_R   0.766441 0.884447 0.546275 0.099063
C28   C     C_R   0.232022 0.357751 0.453907 0.099979
C29   C     C_R   0.739203 0.858146 0.448065 0.055155
C30   C     C_R   0.259752 0.379331 0.552252 0.054555
C31   C     C_R   0.780993 0.833996 0.393112 -0.176419
C32   C     C_R   0.218416 0.412304 0.607201 -0.174777
C33   C     C_R   0.846627 0.850260 0.432071 -0.174346
C34   C     C_R   0.152398 0.408848 0.567926 -0.174174
C35   C     C_R   0.726624 0.946727 0.598943 -0.106076
C36   C     C_R   0.270368 0.289177 0.400376 -0.106240
C37   C     C_R   0.661089 0.959366 0.560011 -0.185956
C38   C     C_R   0.335496 0.265688 0.438756 -0.182763
C39   C     C_R   0.632916 0.918022 0.465811 0.121920
C40   C     C_R   0.364553 0.301292 0.533281 0.123938
C41   C     C_R   0.671426 0.867375 0.408025 0.075852
C42   C     C_R   0.327313 0.357730 0.592029 0.074376
C43   C     C_R   0.566566 0.935728 0.428001 -0.147163
C44   C     C_R   0.430359 0.271226 0.570303 -0.148421
C45   C     C_R   0.537646 0.907677 0.332848 -0.154197
C46   C     C_R   0.459948 0.290949 0.665677 -0.153771
C47   C     C_R   0.640455 0.834200 0.312006 -0.208311
C48   C     C_R   0.359178 0.383049 0.688513 -0.210788
H7    H     H_    0.875777 0.837405 0.385360 0.121041
H8    H     H_    0.123711 0.428841 0.614794 0.118861
H9    H     H_    0.666118 0.793494 0.263734 0.099843
H10   H     H_    0.334394 0.425263 0.737673 0.103558
H11   H     H_    0.486651 0.927482 0.304149 0.122840
H12   H     H_    0.510313 0.259998 0.693663 0.126355
H13   H     H_    0.632388 0.006688 0.603560 0.146404
H14   H     H_    0.363084 0.214111 0.394478 0.144096
H15   H     H_    0.764519 0.813675 0.318505 0.119918
H16   H     H_    0.235395 0.431118 0.681898 0.120376
H17   H     H_    0.746018 0.997540 0.669680 0.187218
H18   H     H_    0.249873 0.242683 0.329063 0.184166
H19   H     H_    0.537191 0.975960 0.471801 0.115347
H20   H     H_    0.458654 0.226623 0.525691 0.115102
O11   O     O_R   0.036450 0.233070 0.130130 -0.540308
O12   O     O_R   0.963550 0.733070 0.869870 -0.528747
O13   O     O_R   0.912470 0.560570 0.006790 -0.533532
O14   O     O_R   0.087530 0.060570 0.993210 -0.537950
C49   C     C_R   0.886876 0.392413 0.001676 0.760052
C50   C     C_R   0.113390 0.892425 0.999946 0.770524
O15   O     O_R   0.032920 0.562940 0.138050 -0.535466
O16   O     O_R   0.967080 0.062940 0.861950 -0.535159
O17   O     O_R   0.084790 0.730500 0.002090 -0.531968
O18   O     O_R   0.915210 0.230500 0.997910 -0.547408
C51   C     C_R   0.044709 0.395213 0.174296 0.786170
C52   C     C_R   0.955223 0.893462 0.825556 0.826386
O19   O     O_3   0.016820 0.396170 0.955260 -0.379848
O20   O     O_3   0.983180 0.896170 0.044740 -0.392507
V3    V     V_3+5 0.996880 0.672090 0.008300 1.491989
V4    V     V_3+5 0.003120 0.172090 0.991700 1.479737
N1    N     N_2   0.032116 0.968722 0.706491 -0.514686
H21   H     H_    0.050729 0.064269 0.670976 0.274769
C53   C     C_3   0.075736 0.820906 0.748564 -0.558065
H22   H     H_    0.107262 0.787090 0.704799 0.187589
H23   H     H_    0.050254 0.692922 0.758215 0.194490
H24   H     H_    0.106515 0.868735 0.817303 0.193058
N2    N     N_2   0.965792 0.320145 0.290806 -0.513493
H25   H     H_    0.942489 0.413187 0.240215 0.228036
C54   C     C_3   0.949327 0.128606 0.264962 -0.515869
H26   H     H_    0.904203 0.094445 0.280346 0.184609
H27   H     H_    0.987155 0.031815 0.304057 0.198343
H28   H     H_    0.941768 0.107751 0.188934 0.198560
Br1   Br    Br    0.818152 0.728356 0.763693 -0.545360
Br2   Br    Br    0.184668 0.529574 0.239678 -0.549168
Br3   Br    Br    0.321543 0.480514 0.072888 -0.529011
Br4   Br    Br    0.678443 0.980052 0.925014 -0.535866
N3    N     N_2   0.978817 0.954467 0.508562 -0.527414
H29   H     H_    0.957064 0.019434 0.446563 0.283396
C55   C     C_3   0.033227 0.840192 0.509080 -0.523196
H30   H     H_    0.027758 0.784896 0.437719 0.183973
H31   H     H_    0.038650 0.721982 0.557530 0.220363
H32   H     H_    0.077131 0.926118 0.530331 0.210145
N4    N     N_2   0.016539 0.340261 0.488879 -0.515240
H33   H     H_    0.034953 0.285784 0.554530 0.256792
C56   C     C_3   0.956135 0.436739 0.471148 -0.452817
H34   H     H_    0.953097 0.504803 0.536468 0.180128
H35   H     H_    0.916422 0.335533 0.448510 0.212943
H36   H     H_    0.950199 0.544290 0.416735 0.203930

loop_
_geom_bond_atom_site_label_1
_geom_bond_atom_site_label_2
_ccdc_geom_bond_type
C40   C44   A    
O16   V4    S    
O4    V2    S    
O15   C51   A    
C11   H5    S    
C35   C37   A    
C35   H17   S    
C6    C10   S    
C7    C50   S    
O2    C4    A    
C16   C48   A    
C2    O7    A    
C19   N1    S    
N1    H21   S    
C15   C47   A    
C29   C31   A    
O5    C3    A    
C54   H27   S    
C44   H20   S    
C17   C19   A    
O14   C50   A    
C24   C28   A    
C39   C41   A    
C14   C51   S    
C40   C42   A    
C55   H30   S    
O12   C52   A    
O14   V4    S    
C27   C29   A    
C43   C45   A    
C18   N4    S    
C56   H36   S    
C44   C46   A    
C8    H4    S    
C13   C21   A    
C31   C33   A    
O15   V3    S    
C32   C34   A    
C31   H15   S    
C14   C20   A    
C17   C25   A    
C34   H8    S    
C15   C45   A    
C26   C34   A    
C30   C32   A    
C42   C48   A    
O6    V2    S    
C8    C49   S    
C23   C25   A    
C24   C26   A    
N1    C53   S    
C30   C42   A    
C28   C30   A    
N4    C56   S    
C54   H28   S    
C36   C38   A    
C38   H14   S    
C4    C11   S    
O16   C52   A    
C21   C23   A    
O11   V4    S    
C22   Br2   S    
C55   H31   S    
C27   C35   A    
C5    H1    S    
C13   C19   A    
C37   H13   S    
O17   V3    S    
C7    H3    S    
C20   N2    S    
C32   H16   S    
C53   H22   S    
O6    C4    A    
C55   H32   S    
O13   V3    S    
C1    C16   S    
C28   C36   A    
C16   C46   A    
N2    C54   S    
O1    V2    S    
C33   H7    S    
C39   C43   A    
O2    V1    S    
C56   H34   S    
O4    C2    A    
O13   C49   A    
C45   H11   S    
O19   V4    S    
C37   C39   A    
C18   C26   A    
C18   C20   A    
C10   Br4   S    
O3    V1    S    
N3    H29   S    
O12   V3    S    
C53   H23   S    
C6    H2    S    
C22   C24   A    
O3    C1    A    
C50   O17   A    
N4    H33   S    
O18   V4    S    
C9    C11   D    
C54   H26   S    
C10   C12   D    
C2    C15   S    
C5    C9    S    
C49   O18   A    
C12   H6    S    
O7    V1    S    
C1    O8    A    
O8    V2    S    
C41   C47   A    
C25   C33   A    
C48   H10   S    
C3    C12   S    
C43   H19   S    
C47   H9    S    
O5    V1    S    
C5    C7    D    
C38   C40   A    
C17   N3    S    
C6    C8    D    
C14   C22   A    
O20   V3    S    
C56   H35   S    
C9    Br3   S    
C29   C41   A    
O11   C51   A    
C21   Br1   S    
C53   H24   S    
C13   C52   S    
O9    V2    S    
N2    H25   S    
C23   C27   A    
O10   V1    S    
O1    C3    A    
C36   H18   S    
C46   H12   S    
N3    C55   S    
