data_mof_unit_35899.cif
_audit_creation_date              2012-12-10T20:45:33-0500
_audit_creation_method            fapswitch 2.2
_symmetry_space_group_name_H-M    P1
_symmetry_Int_Tables_number       1
_space_group_crystal_system       triclinic
_cell_length_a                    10.799777
_cell_length_b                    10.879926
_cell_length_c                    9.932965
_cell_angle_alpha                 92.036528
_cell_angle_beta                  92.547473
_cell_angle_gamma                 89.614068
_cell_volume                      1165.22564751

loop_
_atom_site_label
_atom_site_type_symbol
_atom_type_description
_atom_site_fract_x
_atom_site_fract_y
_atom_site_fract_z
_atom_type_partial_charge
C1    C     C_R   0.495553 0.260424 0.497322 0.881920
C2    C     C_R   0.169081 0.945711 0.312513 -0.099150
C3    C     C_R   0.929200 0.578260 0.421095 -0.235052
C4    C     C_R   0.874684 0.499709 0.509344 -0.048560
C5    C     C_R   0.950075 0.427811 0.597346 0.031912
C6    C     C_R   0.074183 0.416280 0.572059 -0.209608
C7    C     C_R   0.128537 0.500009 0.490694 -0.038262
C8    C     C_R   0.056990 0.587911 0.420892 0.027827
C9    C     C_R   0.942131 0.495775 0.838943 0.235118
C10   C     C_R   0.918518 0.472674 0.972682 -0.257471
C11   C     C_R   0.890439 0.354124 0.011236 0.128590
C12   C     C_R   0.260574 0.502897 0.497044 0.865811
C13   C     C_R   0.893450 0.257038 0.915003 0.254870
C14   C     C_R   0.907143 0.281504 0.778392 -0.315014
C15   C     C_R   0.920850 0.402874 0.737779 0.058496
C16   C     C_R   0.476247 0.069078 0.614331 -0.008558
C17   C     C_R   0.483274 0.128642 0.492444 -0.103238
C18   C     C_R   0.482997 0.058092 0.369920 0.084079
C19   C     C_R   0.485716 0.930405 0.374188 -0.258874
C20   C     C_R   0.492234 0.872176 0.498282 -0.102095
C21   C     C_R   0.485785 0.942584 0.616718 0.017652
C22   C     C_3   0.578387 0.948989 0.732526 -0.038441
C23   C     C_R   0.500205 0.739985 0.500991 0.920211
C24   C     C_3   0.553950 0.086022 0.743242 -0.111782
C25   C     C_R   0.424870 0.421854 0.064326 0.137598
C26   C     C_R   0.578672 0.572050 0.080775 0.093415
C27   C     C_R   0.579163 0.571094 0.937226 0.139352
C28   C     C_R   0.426120 0.420491 0.921742 0.081375
C29   C     C_3   0.288571 0.415899 0.905651 -0.533607
C30   C     C_3   0.286338 0.424238 0.058503 0.243499
C31   C     C_R   0.740639 0.496867 0.503403 0.874717
C32   C     C_R   0.196752 0.904446 0.441667 -0.133149
C33   C     C_R   0.170078 0.783716 0.472838 -0.137628
C34   C     C_R   0.108289 0.705170 0.377000 0.123139
C35   C     C_R   0.075540 0.749822 0.249189 -0.153711
C36   C     C_R   0.109613 0.868078 0.215700 -0.091229
H1    H     H_    0.192352 0.038315 0.288556 0.177631
H2    H     H_    0.910857 0.205920 0.704751 0.178049
H3    H     H_    0.487097 0.877716 0.279640 0.177590
H4    H     H_    0.549489 0.899780 0.821733 0.173697
H5    H     H_    0.497409 0.113413 0.830642 0.154476
H6    H     H_    0.238532 0.966357 0.517865 0.150113
H7    H     H_    0.248661 0.497339 0.855300 0.233847
H8    H     H_    0.256349 0.326187 0.860494 0.211739
H9    H     H_    0.192063 0.753829 0.573865 0.155270
H10   H     H_    0.021181 0.694626 0.176677 0.130371
H11   H     H_    0.086686 0.900622 0.116035 0.192892
H12   H     H_    0.871794 0.642191 0.364367 0.157185
H13   H     H_    0.132285 0.356563 0.633781 0.154231
H14   H     H_    0.926750 0.546505 0.047559 0.145023
N1    N     N_R   0.499160 0.499140 0.142800 -0.123990
N2    N     N_R   0.499160 0.499180 0.857150 -0.125165
O1    O     O_R   0.500020 0.316790 0.614690 -0.636513
O2    O     O_R   0.500000 0.316760 0.385350 -0.581335
O3    O     O_R   0.316770 0.500030 0.614670 -0.628574
O4    O     O_R   0.316750 0.499990 0.385330 -0.578070
O5    O     O_R   0.500000 0.683240 0.614650 -0.588203
O6    O     O_R   0.499980 0.683210 0.385310 -0.614363
O7    O     O_R   0.683250 0.500010 0.614670 -0.583701
O8    O     O_R   0.683230 0.499970 0.385330 -0.621069
Zn1   Zn    Zn3+2 0.500010 0.500020 0.653130 0.977974
Zn2   Zn    Zn3+2 0.499990 0.499980 0.346870 0.992606
N3    N     N_3   0.867434 0.330187 0.149090 -0.400091
H15   H     H_    0.877340 0.410719 0.208851 0.200198
H16   H     H_    0.774552 0.304449 0.152559 0.198723
I1    I     I_    0.889093 0.073929 0.979325 -0.420062
N4    N     N_3   0.487821 0.114001 0.241759 -0.411335
H17   H     H_    0.570513 0.086743 0.198315 0.194638
H18   H     H_    0.414824 0.079136 0.179333 0.198604
N5    N     N_3   0.702489 0.915795 0.686478 -0.384288
H19   H     H_    0.723040 0.960746 0.598806 0.204967
H20   H     H_    0.768756 0.941315 0.761182 0.268867
N6    N     N_3   0.666368 0.159566 0.737164 -0.431307
H21   H     H_    0.691966 0.170649 0.638138 0.187369
H22   H     H_    0.650523 0.246180 0.782215 0.233551
N7    N     N_3   0.657200 0.652651 0.162653 -0.382917
H23   H     H_    0.749415 0.632717 0.142938 0.178997
H24   H     H_    0.637493 0.743401 0.137517 0.189849
I2    I     I_    0.702044 0.686199 0.852604 -0.368786
N8    N     N_3   0.236785 0.541099 0.110445 -0.396308
H25   H     H_    0.142808 0.542787 0.082519 0.201389
H26   H     H_    0.277364 0.614932 0.064225 0.183136
I3    I     I_    0.204920 0.270379 0.146574 -0.405869
I4    I     I_    0.028846 0.666853 0.802115 -0.445187

loop_
_geom_bond_atom_site_label_1
_geom_bond_atom_site_label_2
_ccdc_geom_bond_type
O6    Zn2   S    
C23   O6    A    
N3    H16   S    
C16   C21   A    
C33   H9    S    
N6    H21   S    
C35   C36   A    
C7    C8    A    
C25   C28   A    
C26   C27   A    
O8    Zn2   S    
C28   C29   S    
N7    H24   S    
C18   C19   A    
C27   I2    S    
N2    Zn1   S    
C5    C6    A    
C24   N6    S    
C3    H12   S    
C11   C13   A    
C36   H11   S    
C2    C32   A    
C34   C35   A    
C31   O7    A    
C30   I3    S    
C1    O1    A    
O1    Zn1   S    
C19   C20   A    
C16   C17   A    
C26   N7    S    
N5    H19   S    
C9    C10   A    
C30   N8    S    
C16   C24   S    
C13   C14   A    
C29   H7    S    
C24   H5    S    
N6    H22   S    
N1    Zn2   S    
C17   C18   A    
C13   I1    S    
C7    C12   S    
O7    Zn1   S    
N4    H17   S    
C12   O3    A    
N7    H23   S    
N8    H26   S    
C3    C8    A    
N8    H25   S    
O2    Zn2   S    
C18   N4    S    
N4    H18   S    
C31   O8    A    
C1    O2    A    
C25   N1    A    
C29   C30   S    
C14   H2    S    
C20   C23   S    
C22   H4    S    
C33   C34   A    
C8    C34   S    
C12   O4    A    
C19   H3    S    
C29   H8    S    
C22   C24   S    
C3    C4    A    
C10   H14   S    
C27   N2    A    
C2    C36   A    
C25   C30   S    
C23   O5    A    
C4    C5    A    
O5    Zn1   S    
C6    C7    A    
C35   H10   S    
C1    C17   S    
C32   C33   A    
C9    C15   A    
C26   N1    A    
C28   N2    A    
C2    H1    S    
O3    Zn1   S    
O4    Zn2   S    
C6    H13   S    
C5    C15   S    
C4    C31   S    
C10   C11   A    
C9    I4    S    
N3    H15   S    
C20   C21   A    
C32   H6    S    
C14   C15   A    
N5    H20   S    
C21   C22   S    
C11   N3    S    
C22   N5    S    
