data_mof_unit_42999.cif
_audit_creation_date              2012-12-10T17:19:24-0500
_audit_creation_method            fapswitch 2.2
_symmetry_space_group_name_H-M    P1
_symmetry_Int_Tables_number       1
_space_group_crystal_system       triclinic
_cell_length_a                    15.081871
_cell_length_b                    10.865363
_cell_length_c                    9.590868
_cell_angle_alpha                 91.826304
_cell_angle_beta                  89.838915
_cell_angle_gamma                 93.218201
_cell_volume                      1568.37912809

loop_
_atom_site_label
_atom_site_type_symbol
_atom_type_description
_atom_site_fract_x
_atom_site_fract_y
_atom_site_fract_z
_atom_type_partial_charge
C1    C     C_R   0.505745 0.263333 0.498074 0.803929
C2    C     C_R   0.907460 0.508656 0.369306 -0.000992
C3    C     C_R   0.952029 0.474534 0.749003 -0.175084
C4    C     C_R   0.044395 0.476188 0.749861 -0.201142
C5    C     C_R   0.091935 0.488649 0.625007 0.113224
C6    C     C_R   0.046362 0.498969 0.497807 0.064382
C7    C     C_R   0.093999 0.511547 0.372114 0.020830
C8    C     C_R   0.048796 0.522421 0.246406 -0.215412
C9    C     C_R   0.956213 0.518672 0.242801 0.394287
C10   C     C_R   0.184399 0.490745 0.625190 -0.241018
C11   C     C_R   0.231831 0.501133 0.499837 -0.070680
C12   C     C_R   0.328723 0.500242 0.500108 0.824891
C13   C     C_R   0.186412 0.512007 0.373773 -0.222875
C14   C     C_R   0.599372 0.139373 0.715575 -0.209112
C15   C     C_R   0.611468 0.091497 0.845963 -0.232309
C16   C     C_R   0.572296 0.974698 0.877290 0.577892
C17   C     C_R   0.531423 0.903134 0.768390 -0.234811
C18   C     C_R   0.525755 0.946977 0.631028 0.029115
C19   C     C_R   0.547679 0.073014 0.613142 0.102067
C20   C     C_R   0.514666 0.130424 0.495600 -0.101590
C21   C     C_R   0.478214 0.059210 0.384126 -0.222543
C22   C     C_R   0.473029 0.931980 0.389600 -0.198522
C23   C     C_R   0.498059 0.738222 0.503327 0.779077
C24   C     C_R   0.496615 0.873594 0.511351 -0.092968
C25   C     C_R   0.626643 0.652619 0.148133 -0.157639
C26   C     C_R   0.694331 0.716824 0.078039 -0.276186
C27   C     C_R   0.694096 0.718048 0.933132 0.454881
C28   C     C_R   0.626087 0.652625 0.860535 -0.137448
C29   C     C_R   0.561935 0.575185 0.927652 0.015050
C30   C     C_R   0.561954 0.575246 0.076897 0.207365
C31   C     C_R   0.442167 0.426233 0.072253 -0.190085
C32   C     C_R   0.440665 0.426411 0.922281 0.605909
C33   C     C_R   0.671292 0.500568 0.499811 0.779017
C34   C     C_R   0.814789 0.512657 0.373125 -0.246502
C35   C     C_R   0.768172 0.500066 0.499025 -0.060396
C36   C     C_R   0.814011 0.486476 0.623711 -0.210268
C37   C     C_R   0.906220 0.486030 0.623658 0.118223
C38   C     C_R   0.953276 0.497574 0.496683 0.016301
Cu1   Cu    Cu3+1 0.499990 0.499990 0.640660 0.973435
Cu2   Cu    Cu3+1 0.500010 0.500010 0.359340 0.932766
H1    H     H_    0.777973 0.527547 0.279309 0.165578
H2    H     H_    0.629469 0.230109 0.696660 0.163484
H3    H     H_    0.647823 0.149736 0.922100 0.128964
H4    H     H_    0.498961 0.817222 0.797731 0.183341
H5    H     H_    0.448283 0.879100 0.298759 0.189435
H6    H     H_    0.397362 0.365259 0.129323 0.148079
H7    H     H_    0.627771 0.668480 0.257936 0.205931
H8    H     H_    0.744393 0.771066 0.137506 0.141900
H9    H     H_    0.624749 0.668956 0.751963 0.211639
H10   H     H_    0.778058 0.476841 0.721217 0.155036
H11   H     H_    0.916246 0.464509 0.846294 0.185352
H12   H     H_    0.078623 0.467683 0.848027 0.146393
H13   H     H_    0.219253 0.483860 0.722938 0.163832
H14   H     H_    0.222848 0.520847 0.276627 0.152506
H15   H     H_    0.085467 0.531355 0.149480 0.156436
H16   H     H_    0.453157 0.101898 0.292710 0.168205
N1    N     N_R   0.500860 0.501210 0.147910 -0.211830
N2    N     N_R   0.500890 0.501290 0.852040 -0.234137
O1    O     O_R   0.499990 0.319640 0.618810 -0.531149
O2    O     O_R   0.500000 0.319660 0.381240 -0.589475
O3    O     O_R   0.370250 0.499960 0.618800 -0.538767
O4    O     O_R   0.370260 0.499980 0.381230 -0.589770
O5    O     O_R   0.500000 0.680340 0.618760 -0.616387
O6    O     O_R   0.500010 0.680360 0.381190 -0.591478
O7    O     O_R   0.629740 0.500020 0.618770 -0.614941
O8    O     O_R   0.629750 0.500040 0.381200 -0.605870
O9    O     O_3   0.568942 0.925315 0.010087 -0.589802
C39   C     C_3   0.621987 0.993040 0.109928 -0.337121
H17   H     H_    0.594741 0.084225 0.134283 0.170291
H18   H     H_    0.692517 0.002622 0.075717 0.160432
H19   H     H_    0.620995 0.941469 0.207816 0.202634
O10   O     O_3   0.756594 0.787226 0.859384 -0.735773
H20   H     H_    0.799394 0.829207 0.926012 0.326482
O11   O     O_3   0.384279 0.346704 0.842264 -0.534390
C40   C     C_3   0.302540 0.317040 0.908545 -0.381188
H21   H     H_    0.254565 0.279842 0.828246 0.200980
H22   H     H_    0.273718 0.399479 0.959087 0.137423
H23   H     H_    0.310036 0.243119 0.984307 0.168912
O12   O     O_3   0.916780 0.525889 0.114041 -0.754204
H24   H     H_    0.861374 0.472672 0.112427 0.307951

loop_
_geom_bond_atom_site_label_1
_geom_bond_atom_site_label_2
_ccdc_geom_bond_type
C8    C9    A    
Cu2   O2    S    
C35   C36   A    
C32   N2    A    
C33   O7    A    
C7    C8    A    
C26   C27   A    
C29   C30   A    
C4    H12   S    
C18   C24   A    
C28   C29   A    
C34   C35   A    
C1    O1    A    
C32   O11   S    
C5    C6    A    
C15   C16   A    
C30   N1    A    
Cu2   O4    S    
C18   C19   A    
C9    O12   S    
C10   H13   S    
C39   H17   S    
C19   C20   A    
C16   C17   A    
C31   H6    S    
C23   C24   S    
C6    C38   A    
C25   H7    S    
C26   H8    S    
C14   H2    S    
C2    C34   A    
C23   O5    A    
Cu2   O8    S    
C21   C22   A    
Cu1   O7    S    
C34   H1    S    
C8    H15   S    
C33   O8    A    
Cu1   O3    S    
O11   C40   S    
O9    C39   S    
C1    O2    A    
Cu1   Cu2   S    
C3    H11   S    
O10   H20   S    
C25   C26   A    
Cu1   N2    S    
C40   H21   S    
C37   C38   A    
C12   O4    A    
C28   H9    S    
C2    C38   A    
C31   C32   A    
Cu1   O1    S    
C17   C18   A    
C16   O9    S    
C20   C21   A    
C40   H22   S    
C23   O6    A    
C22   C24   A    
C3    C4    A    
C36   H10   S    
C13   H14   S    
C25   C30   A    
C36   C37   A    
C1    C20   S    
Cu2   N1    S    
C14   C19   A    
C4    C5    A    
C21   H16   S    
C11   C12   S    
C6    C7    A    
Cu1   O5    S    
Cu2   O6    S    
C31   N1    A    
C17   H4    S    
C15   H3    S    
C5    C10   A    
C12   O3    A    
C11   C13   A    
C39   H19   S    
C33   C35   S    
C40   H23   S    
C10   C11   A    
O12   H24   S    
C7    C13   A    
C22   H5    S    
C29   N2    A    
C3    C37   A    
C39   H18   S    
C27   C28   A    
C14   C15   A    
C2    C9    A    
C27   O10   S    
