data_mof_unit_49597.cif
_audit_creation_date              2012-10-26T21:04:54-0400
_audit_creation_method            fapswitch 2.2
_symmetry_space_group_name_H-M    P1
_symmetry_Int_Tables_number       1
_space_group_crystal_system       triclinic
_cell_length_a                    11.696872
_cell_length_b                    12.355146
_cell_length_c                    13.174881
_cell_angle_alpha                 116.633897
_cell_angle_beta                  77.698463
_cell_angle_gamma                 101.392497
_cell_volume                      1651.49390241

loop_
_atom_site_label
_atom_site_type_symbol
_atom_type_description
_atom_site_fract_x
_atom_site_fract_y
_atom_site_fract_z
_atom_type_partial_charge
C1    C     C_R   0.504565 0.854817 0.287055 0.535375
C2    C     C_R   0.355628 0.475480 0.176104 0.043668
C3    C     C_R   0.380577 0.600172 0.205426 -0.126742
C4    C     C_R   0.715775 0.999743 0.499676 0.555208
C5    C     C_R   0.490986 0.352146 0.869692 -0.128378
C6    C     C_R   0.398268 0.183740 0.915476 -0.139267
C7    C     C_R   0.495363 0.771886 0.165080 -0.002538
C8    C     C_R   0.688330 0.351766 0.332463 -0.126995
C9    C     C_R   0.342376 0.760006 0.645777 0.065352
C10   C     C_R   0.306284 0.663299 0.676880 -0.140587
C11   C     C_R   0.364206 0.559041 0.621101 -0.125411
C12   C     C_R   0.460382 0.227152 0.835614 0.000743
C13   C     C_R   0.459663 0.550559 0.533252 0.013690
C14   C     C_R   0.493531 0.652491 0.504526 0.188718
C15   C     C_R   0.523875 0.446193 0.473878 0.002337
C16   C     C_R   0.483219 0.145080 0.713602 0.542515
C17   C     C_R   0.620180 0.447943 0.388700 0.032703
C18   C     C_R   0.650638 0.546986 0.361232 -0.154688
C19   C     C_R   0.589017 0.647038 0.418096 -0.089811
C20   C     C_R   0.498243 0.340070 0.495193 0.024898
C21   C     C_R   0.662351 0.252506 0.359444 0.211189
C22   C     C_R   0.284225 0.000138 0.500146 0.540674
C23   C     C_R   0.538053 0.817095 0.081945 -0.122583
C24   C     C_1   0.837541 0.999559 0.499493 0.010234
C25   C     C_1   0.940100 0.999603 0.499450 -0.016462
C26   C     C_1   0.059974 0.999808 0.499592 -0.026146
C27   C     C_1   0.162501 0.000004 0.499832 -0.011210
C28   C     C_R   0.365116 0.265095 0.028086 -0.104338
C29   C     C_2   0.294768 0.437240 0.268016 0.560324
C30   C     C_2   0.745363 0.160504 0.305132 0.619207
C31   C     C_R   0.548434 0.738842 0.966137 -0.137810
C32   C     C_R   0.521420 0.613793 0.931286 -0.112006
C33   C     C_R   0.476774 0.564367 0.012475 0.029595
C34   C     C_R   0.451349 0.646032 0.129058 -0.002551
C35   C     C_R   0.453452 0.436771 0.980991 0.008282
C36   C     C_R   0.392596 0.392104 0.063133 0.029201
Cu1   Cu    Cu3+1 0.526510 0.098270 0.475420 0.995002
Cu2   Cu    Cu3+1 0.473490 0.901730 0.524580 0.928531
H1    H     H_    0.372134 0.087070 0.890231 0.127961
H2    H     H_    0.544970 0.381345 0.807304 0.125763
H3    H     H_    0.563822 0.913278 0.106061 0.191588
H4    H     H_    0.531895 0.558899 0.839936 0.104821
H5    H     H_    0.580513 0.775098 0.902813 0.129751
H6    H     H_    0.341195 0.660681 0.288953 0.181195
H7    H     H_    0.290198 0.333025 0.351149 0.345038
H8    H     H_    0.791070 0.004291 0.172250 0.329845
H9    H     H_    0.724383 0.548045 0.295756 0.118465
H10   H     H_    0.763886 0.355142 0.269252 0.113793
H11   H     H_    0.425310 0.330733 0.557360 0.121094
H12   H     H_    0.296660 0.840388 0.689460 0.127988
H13   H     H_    0.333090 0.487026 0.648725 0.100763
H14   H     H_    0.233175 0.669224 0.744495 0.111711
H15   H     H_    0.620828 0.718897 0.392120 0.183171
H16   H     H_    0.313761 0.227017 0.085388 0.170286
N1    N     N_R   0.566700 0.246290 0.438210 -0.259752
N2    N     N_R   0.434010 0.754320 0.561170 -0.236578
O1    O     O_R   0.533340 0.972510 0.318140 -0.465101
O2    O     O_R   0.337563 0.348967 0.284213 -0.708707
O3    O     O_2   0.836226 0.178634 0.345073 -0.510186
O4    O     O_R   0.726333 0.059419 0.202463 -0.719113
O5    O     O_R   0.488570 0.806530 0.359650 -0.538989
O6    O     O_R   0.685190 0.083000 0.479260 -0.455362
O7    O     O_R   0.640410 0.917020 0.520770 -0.523682
O8    O     O_R   0.511430 0.193470 0.640350 -0.515756
O9    O     O_R   0.466660 0.027490 0.681860 -0.508438
O10   O     O_R   0.359590 0.082980 0.479230 -0.501347
O11   O     O_R   0.314810 0.917000 0.520740 -0.500784
O12   O     O_2   0.210455 0.487297 0.333154 -0.509361

loop_
_geom_bond_atom_site_label_1
_geom_bond_atom_site_label_2
_ccdc_geom_bond_type
Cu1   O6    S    
C14   N2    A    
C24   C25   T    
C8    H10   S    
Cu1   Cu2   S    
C8    C21   A    
C1    O1    A    
C29   O12   D    
C9    C10   A    
C8    C17   A    
C23   H3    S    
Cu2   O9    S    
Cu2   O5    S    
C10   H14   S    
C32   C33   A    
C19   H15   S    
C33   C34   A    
Cu2   N2    S    
C9    N2    A    
C1    C7    S    
C13   C14   A    
Cu2   O11   S    
C11   C13   A    
C4    O7    A    
C26   C27   T    
C20   H11   S    
C31   H5    S    
C2    C29   S    
C7    C23   A    
C5    C35   A    
C33   C35   A    
C17   C18   A    
C2    C3    A    
C22   C27   S    
C13   C15   A    
Cu1   O10   S    
C6    C12   A    
C15   C20   A    
C4    C24   S    
C7    C34   A    
Cu1   O1    S    
C3    H6    S    
C23   C31   A    
C20   N1    A    
C10   C11   A    
H7    O2    S    
Cu1   N1    S    
C4    O6    A    
Cu1   O8    S    
C11   H13   S    
C29   O2    S    
C28   C36   A    
C5    C12   A    
C15   C17   A    
C18   C19   A    
C21   C30   S    
C5    H2    S    
C2    C36   A    
C21   N1    A    
C30   O3    D    
C28   H16   S    
C6    H1    S    
C22   O10   A    
C32   H4    S    
C16   O9    A    
C16   O8    A    
C3    C34   A    
H8    O4    S    
C25   C26   S    
Cu2   O7    S    
C14   C19   A    
C31   C32   A    
C6    C28   A    
C9    H12   S    
C12   C16   S    
C1    O5    A    
C22   O11   A    
C18   H9    S    
C35   C36   A    
C30   O4    S    
