data_mof_unit_7204.cif
_audit_creation_date              2012-12-10T18:56:31-0500
_audit_creation_method            fapswitch 2.2
_symmetry_space_group_name_H-M    P1
_symmetry_Int_Tables_number       1
_space_group_crystal_system       triclinic
_cell_length_a                    10.714744
_cell_length_b                    9.823071
_cell_length_c                    19.401855
_cell_angle_alpha                 90.075171
_cell_angle_beta                  89.917387
_cell_angle_gamma                 90.121491
_cell_volume                      2042.06958561

loop_
_atom_site_label
_atom_site_type_symbol
_atom_type_description
_atom_site_fract_x
_atom_site_fract_y
_atom_site_fract_z
_atom_type_partial_charge
C1    C     C_R   0.872611 0.500058 0.500696 0.005055
C2    C     C_R   0.127376 0.499947 0.500356 0.007113
C3    C     C_R   0.611354 0.524800 0.965489 -0.156652
C4    C     C_R   0.397190 0.444672 0.037223 -0.157876
C5    C     C_R   0.610897 0.527243 0.036828 -0.157042
C6    C     C_R   0.396249 0.446689 0.965877 -0.155649
C7    C     C_R   0.503880 0.486923 0.073200 0.155527
C8    C     C_R   0.503422 0.486538 0.929510 0.157765
C9    C     C_R   0.259817 0.499946 0.500107 0.978746
C10   C     C_R   0.740176 0.500061 0.500392 0.980374
C11   C     C_R   0.500274 0.499862 0.366277 1.063811
C12   C     C_R   0.499398 0.499902 0.634383 1.011562
C13   C     C_R   0.063565 0.375856 0.498349 -0.192975
C14   C     C_R   0.936415 0.624173 0.502320 -0.183010
C15   C     C_R   0.935876 0.375899 0.498598 -0.140185
C16   C     C_R   0.064114 0.624122 0.502189 -0.139957
C17   C     C_R   0.431196 0.395493 0.745859 0.415718
C18   C     C_R   0.392495 0.533363 0.255325 0.404058
C19   C     C_R   0.611659 0.460860 0.256743 0.403412
C20   C     C_R   0.566766 0.598010 0.747746 0.423496
C21   C     C_R   0.438272 0.390239 0.817284 -0.215770
C22   C     C_R   0.395413 0.531646 0.183742 -0.214990
C23   C     C_R   0.610069 0.454217 0.185241 -0.215076
C24   C     C_R   0.563399 0.594861 0.819311 -0.216394
C25   C     C_R   0.502037 0.490261 0.854151 -0.047009
C26   C     C_R   0.503032 0.490647 0.148553 -0.043984
C27   C     C_R   0.599121 0.072285 0.525848 0.006538
C28   C     C_R   0.400888 0.927768 0.474130 -0.042444
C29   C     C_R   0.400975 0.071708 0.474021 -0.032191
C30   C     C_R   0.599364 0.928383 0.525531 0.021943
C31   C     C_R   0.498512 0.498568 0.709880 -0.332780
C32   C     C_R   0.501698 0.499022 0.291922 -0.310690
H1    H     H_    0.678205 0.126950 0.546754 0.128389
H2    H     H_    0.321657 0.873163 0.453403 0.166339
H3    H     H_    0.321925 0.125953 0.453101 0.143527
H4    H     H_    0.678869 0.874270 0.545917 0.142068
H5    H     H_    0.111834 0.279112 0.496414 0.162946
H6    H     H_    0.888148 0.720956 0.503548 0.159800
H7    H     H_    0.887225 0.279145 0.496901 0.169962
H8    H     H_    0.112773 0.720896 0.503476 0.166505
H9    H     H_    0.392662 0.307963 0.844577 0.195416
H10   H     H_    0.313356 0.561925 0.155230 0.194631
H11   H     H_    0.692624 0.420714 0.157954 0.194884
H12   H     H_    0.609870 0.674273 0.848311 0.195879
H13   H     H_    0.696020 0.553427 0.938581 0.159553
H14   H     H_    0.314261 0.410497 0.064119 0.159591
H15   H     H_    0.693811 0.562306 0.063351 0.159683
H16   H     H_    0.311135 0.418691 0.939342 0.159396
N1    N     N_R   0.500000 0.857200 0.500000 -0.094821
N2    N     N_R   0.500000 0.142800 0.500000 -0.084725
O1    O     O_R   0.316770 0.614620 0.500000 -0.636444
O2    O     O_R   0.683230 0.385380 0.500000 -0.636902
O3    O     O_R   0.683230 0.614620 0.500000 -0.623832
O4    O     O_R   0.316770 0.385380 0.500000 -0.624552
O5    O     O_R   0.500030 0.614710 0.398180 -0.582268
O6    O     O_R   0.499970 0.385290 0.601820 -0.568890
O7    O     O_R   0.499970 0.614710 0.601820 -0.559337
O8    O     O_R   0.500030 0.385290 0.398180 -0.585899
Zn1   Zn    Zn3+2 0.500000 0.653120 0.500000 1.058270
Zn2   Zn    Zn3+2 0.500000 0.346880 0.500000 1.057464
S1    S     S_3+6 0.331595 0.274581 0.705311 0.052043
O9    O     O_2   0.409172 0.165312 0.672042 -0.251929
O10   O     O_2   0.246079 0.209909 0.757414 -0.278714
O11   O     O_3   0.244423 0.352276 0.645254 -0.574581
H17   H     H_    0.190320 0.279505 0.626274 0.378125
S2    S     S_3+6 0.249098 0.569785 0.297258 0.025345
O12   O     O_2   0.264890 0.688359 0.345450 -0.310877
O13   O     O_2   0.149588 0.603186 0.245399 -0.268225
O14   O     O_3   0.205234 0.431814 0.342458 -0.579176
H18   H     H_    0.114024 0.441830 0.349031 0.391528
S3    S     S_3+6 0.754140 0.428571 0.300202 0.027922
O15   O     O_2   0.738259 0.311849 0.349422 -0.292223
O16   O     O_2   0.855734 0.394409 0.249511 -0.272130
O17   O     O_3   0.794784 0.569213 0.344317 -0.573054
H19   H     H_    0.886222 0.562058 0.350762 0.389760
S4    S     S_3+6 0.662075 0.725195 0.709286 0.038429
O18   O     O_2   0.580250 0.834749 0.679950 -0.261781
O19   O     O_2   0.747641 0.787613 0.762019 -0.282981
O20   O     O_3   0.749099 0.656000 0.646274 -0.585135
H20   H     H_    0.807637 0.729065 0.632243 0.370579

loop_
_geom_bond_atom_site_label_1
_geom_bond_atom_site_label_2
_ccdc_geom_bond_type
S2    O13   D    
O5    Zn1   S    
C19   S3    S    
C9    O1    A    
S4    O20   S    
C10   O2    A    
O3    Zn1   S    
O4    Zn2   S    
C27   H1    S    
C5    H15   S    
C7    C26   S    
C6    H16   S    
C28   C29   A    
S4    O19   D    
C4    H14   S    
O7    Zn1   S    
S2    O14   S    
O8    Zn2   S    
C23   H11   S    
C20   S4    S    
C23   C26   A    
S1    O10   D    
C2    C13   A    
O2    Zn2   S    
C17   S1    S    
C20   C24   A    
C1    C15   A    
C11   O8    A    
C2    C16   A    
C13   H5    S    
C27   N2    A    
S2    O12   D    
C28   H2    S    
C27   C30   A    
C8    C25   S    
O14   H18   S    
C4    C7    A    
C19   C32   A    
C29   N2    A    
O17   H19   S    
S4    O18   D    
C10   O3    A    
C4    C6    A    
C3    C8    A    
C5    C7    A    
C6    C8    A    
C3    H13   S    
C17   C21   A    
O6    Zn2   S    
S1    O11   S    
C19   C23   A    
C14   H6    S    
C28   N1    A    
C24   C25   A    
C15   H7    S    
C12   O6    A    
C16   H8    S    
C21   H9    S    
C12   O7    A    
C30   N1    A    
C11   C32   S    
C13   C15   A    
C12   C31   S    
C17   C31   A    
C14   C16   A    
C18   C32   A    
C11   O5    A    
S3    O16   D    
C21   C25   A    
C18   C22   A    
C1    C10   S    
C3    C5    A    
S3    O17   S    
C9    O4    A    
C18   S2    S    
C29   H3    S    
N1    Zn1   S    
C30   H4    S    
N2    Zn2   S    
O11   H17   S    
S3    O15   D    
C22   H10   S    
C24   H12   S    
S1    O9    D    
O20   H20   S    
O1    Zn1   S    
C22   C26   A    
C1    C14   A    
C2    C9    S    
C20   C31   A    
