data_mof_unit_30381.cif
_audit_creation_date              2012-12-11T16:15:11-0500
_audit_creation_method            fapswitch 2.2
_symmetry_space_group_name_H-M    P1
_symmetry_Int_Tables_number       1
_space_group_crystal_system       triclinic
_cell_length_a                    8.234334
_cell_length_b                    15.261258
_cell_length_c                    17.404198
_cell_angle_alpha                 97.357266
_cell_angle_beta                  96.337541
_cell_angle_gamma                 98.892685
_cell_volume                      2124.04273639

loop_
_atom_site_label
_atom_site_type_symbol
_atom_type_description
_atom_site_fract_x
_atom_site_fract_y
_atom_site_fract_z
_atom_type_partial_charge
Ba1   Ba    Ba6+2 0.159600 0.544390 0.464780 1.636542
Ba2   Ba    Ba6+2 0.650580 0.455600 0.535150 1.632697
C1    C     C_3   0.404968 0.758110 0.179075 -0.392230
C2    C     C_R   0.894622 0.801486 0.531069 0.007126
C3    C     C_R   0.065823 0.242399 0.529640 -0.256892
C4    C     C_3   0.890344 0.771094 0.220543 0.383620
C5    C     C_R   0.150279 0.187507 0.570655 -0.000104
C6    C     C_R   0.069552 0.103405 0.578661 -0.176381
C7    C     C_R   0.930997 0.058147 0.525823 0.013593
C8    C     C_R   0.849095 0.113793 0.478959 -0.011066
C9    C     C_R   0.873083 0.961085 0.516471 0.019829
C10   C     C_R   0.714996 0.927030 0.469242 -0.021999
C11   C     C_R   0.636218 0.984766 0.426818 -0.115176
C12   C     C_3   0.422178 0.733754 0.261201 0.399378
C13   C     C_R   0.707203 0.073983 0.428031 -0.073949
C14   C     C_R   0.966847 0.895260 0.546236 -0.006527
C15   C     C_R   0.736037 0.774568 0.490179 -0.277316
C16   C     C_3   0.945152 0.820250 0.152535 -0.154409
C17   C     C_R   0.913292 0.208385 0.484616 0.036386
C18   C     C_R   0.604435 0.532020 0.280354 -0.263509
C19   C     C_R   0.440440 0.491019 0.255784 0.057309
C20   C     C_R   0.371163 0.489892 0.177851 -0.127360
C21   C     C_R   0.469896 0.524907 0.124095 -0.002464
C22   C     C_R   0.637232 0.562069 0.149121 -0.142958
C23   C     C_3   0.542168 0.730138 0.648616 0.330327
C24   C     C_R   0.703068 0.567458 0.227709 -0.004410
C25   C     C_R   0.409288 0.526324 0.837807 -0.125089
C26   C     C_R   0.356548 0.513490 0.757009 0.034897
C27   C     C_R   0.094035 0.429007 0.777351 0.002998
C28   C     C_3   0.849483 0.310416 0.283815 0.253919
C29   C     C_R   0.145926 0.441466 0.858128 -0.140436
C30   C     C_R   0.304553 0.489769 0.888687 0.005967
C31   C     C_1   0.358400 0.503541 0.972193 -0.011132
C32   C     C_1   0.406341 0.514180 0.041699 -0.016857
C33   C     C_R   0.201570 0.462903 0.727235 -0.265858
C34   C     C_3   0.568821 0.831723 0.669696 -0.421186
C35   C     C_3   0.810186 0.261562 0.197063 -0.054996
C36   C     C_3   0.987379 0.765272 0.722800 0.370109
C37   C     C_3   0.110708 0.846783 0.771111 -0.172197
C38   C     C_3   0.356894 0.257282 0.322859 0.339620
C39   C     C_3   0.383487 0.186100 0.257108 -0.360617
C40   C     C_3   0.772160 0.324787 0.136584 -0.236397
C41   C     C_3   0.588316 0.328001 0.120502 -0.455779
C42   C     C_3   0.939592 0.202519 0.173078 -0.200595
C43   C     C_3   0.076007 0.246571 0.129968 -0.363804
C44   C     C_3   0.918556 0.705078 0.781907 -0.202732
C45   C     C_3   0.846733 0.208408 0.702141 0.373213
C46   C     C_3   0.994881 0.620738 0.784974 -0.295004
C47   C     C_3   0.026829 0.928670 0.795841 -0.252229
C48   C     C_3   0.926454 0.917257 0.864049 -0.422742
C49   C     C_3   0.262792 0.216522 0.385244 -0.136774
C50   C     C_3   0.270795 0.118395 0.392424 -0.451704
C51   C     C_3   0.808290 0.857501 0.105673 -0.244513
C52   C     C_3   0.783634 0.950344 0.142485 -0.420297
C53   C     C_3   0.870181 0.832893 0.295188 -0.150588
C54   C     C_3   0.015541 0.909480 0.322178 -0.381794
C55   C     C_3   0.137802 0.919922 0.596004 -0.198789
C56   C     C_3   0.796089 0.116148 0.725300 -0.366036
C57   C     C_3   0.281711 0.966413 0.558655 -0.315132
C58   C     C_3   0.388747 0.274319 0.752245 0.372829
C59   C     C_3   0.425036 0.255537 0.835507 -0.360019
C60   C     C_R   0.642798 0.834539 0.461154 -0.025303
H1    H     H_    0.328548 0.673125 0.262059 0.102360
H2    H     H_    0.548748 0.718905 0.276057 -0.098012
H3    H     H_    0.445539 0.706963 0.137805 0.072320
H4    H     H_    0.654017 0.709303 0.626813 -0.039065
H5    H     H_    0.437855 0.710125 0.600699 0.100030
H6    H     H_    0.662880 0.854350 0.721542 0.120504
H7    H     H_    0.610210 0.864504 0.620376 0.055784
H8    H     H_    0.451753 0.853182 0.683272 0.114331
H9    H     H_    0.481693 0.824424 0.178486 0.113583
H10   H     H_    0.779438 0.209747 0.643447 0.088404
H11   H     H_    0.982078 0.219261 0.699983 -0.066829
H12   H     H_    0.885567 0.791173 0.691567 -0.053835
H13   H     H_    0.825532 0.063789 0.681599 0.061343
H14   H     H_    0.863510 0.112418 0.783154 0.105365
H15   H     H_    0.661019 0.102480 0.728143 0.154525
H16   H     H_    0.253426 0.273236 0.739472 -0.080644
H17   H     H_    0.457146 0.341784 0.748063 0.078211
H18   H     H_    0.382189 0.306191 0.876628 0.068061
H19   H     H_    0.560326 0.258684 0.851327 0.151198
H20   H     H_    0.359221 0.187931 0.841092 0.101767
H21   H     H_    0.682745 0.704044 0.481077 0.058710
H22   H     H_    0.521547 0.960324 0.388419 0.099851
H23   H     H_    0.211822 0.869394 0.738002 0.072144
H24   H     H_    0.123613 0.310990 0.529278 0.072994
H25   H     H_    0.116228 0.078910 0.629270 0.077760
H26   H     H_    0.649864 0.112129 0.388212 0.087281
H27   H     H_    0.529141 0.566358 0.860990 0.065720
H28   H     H_    0.716026 0.586469 0.107785 0.061135
H29   H     H_    0.767793 0.730123 0.197937 -0.049060
H30   H     H_    0.244018 0.458644 0.158192 0.088111
H31   H     H_    0.657903 0.532715 0.340117 0.073963
H32   H     H_    0.159669 0.455337 0.665159 0.074098
H33   H     H_    0.056416 0.872831 0.172055 0.101436
H34   H     H_    0.177939 0.827620 0.823691 0.096961
H35   H     H_    0.985583 0.769609 0.110165 0.076173
H36   H     H_    0.816378 0.378598 0.288514 0.022833
H37   H     H_    0.981214 0.315729 0.304973 0.093264
H38   H     H_    0.695700 0.211515 0.194306 0.117604
H39   H     H_    0.517625 0.260405 0.095728 0.125308
H40   H     H_    0.542929 0.352778 0.175208 0.121205
H41   H     H_    0.568680 0.372416 0.076074 0.144988
H42   H     H_    0.843769 0.393448 0.155927 0.131175
H43   H     H_    0.805534 0.300711 0.078660 0.130741
H44   H     H_    0.029855 0.246668 0.067691 0.098495
H45   H     H_    0.479656 0.295023 0.347332 0.096959
H46   H     H_    0.124481 0.316097 0.157974 0.157194
H47   H     H_    0.177883 0.207326 0.128790 0.117959
H48   H     H_    0.996195 0.177934 0.225301 0.116342
H49   H     H_    0.873103 0.142214 0.132799 0.093513
H50   H     H_    0.947475 0.584332 0.831477 0.106885
H51   H     H_    0.130950 0.639084 0.800557 0.096048
H52   H     H_    0.966333 0.578227 0.726774 0.163467
H53   H     H_    0.942192 0.740210 0.843106 0.064723
H54   H     H_    0.783234 0.686625 0.768312 0.130001
H55   H     H_    0.819205 0.861426 0.846904 0.129345
H56   H     H_    0.273789 0.761772 0.159460 0.134007
H57   H     H_    0.007301 0.903957 0.915391 0.129059
H58   H     H_    0.874680 0.979370 0.880879 0.126772
H59   H     H_    0.125031 0.989215 0.813857 0.120835
H60   H     H_    0.943779 0.942404 0.745645 0.110345
H61   H     H_    0.227730 0.073797 0.336460 0.110728
H62   H     H_    0.397201 0.110353 0.413766 0.166008
H63   H     H_    0.187826 0.095586 0.433972 0.118666
H64   H     H_    0.311088 0.258740 0.442094 0.112440
H65   H     H_    0.129259 0.220500 0.372464 0.051034
H66   H     H_    0.722112 0.947143 0.195744 0.132120
H67   H     H_    0.265983 0.140668 0.232230 0.098384
H68   H     H_    0.905030 0.996097 0.157194 0.124734
H69   H     H_    0.703759 0.978778 0.099992 0.121727
H70   H     H_    0.845626 0.864418 0.046751 0.115564
H71   H     H_    0.689378 0.809456 0.096120 0.112452
H72   H     H_    0.136074 0.886180 0.317281 0.195469
H73   H     H_    0.004496 0.963985 0.286140 0.097664
H74   H     H_    0.013135 0.937336 0.384051 0.122202
H75   H     H_    0.753646 0.860486 0.287290 0.065992
H76   H     H_    0.857909 0.791519 0.342959 0.084813
H77   H     H_    0.383305 0.926589 0.557335 0.126763
H78   H     H_    0.475145 0.145595 0.278382 0.102964
H79   H     H_    0.240956 0.978776 0.498818 0.141735
H80   H     H_    0.341924 0.029440 0.596208 0.127040
H81   H     H_    0.126029 0.955683 0.653591 0.056231
H82   H     H_    0.183059 0.861658 0.613859 0.127402
H83   H     H_    0.061978 0.415667 0.896888 0.071716
H84   H     H_    0.430535 0.218883 0.209485 0.095021
O1    O     O_2   0.167760 0.722240 0.545330 -0.453686
O2    O     O_2   0.758395 0.438305 0.768339 -0.489706
O3    O     O_3   0.806245 0.273724 0.757686 -0.591295
O4    O     O_3   0.895630 0.608830 0.542770 -0.461765
O5    O     O_3   0.421020 0.453750 0.407560 -0.490703
O6    O     O_2   0.649640 0.543870 0.686710 -0.459474
O7    O     O_3   0.508025 0.690651 0.715071 -0.649921
O8    O     O_2   0.482097 0.172262 0.553605 -0.499647
O9    O     O_3   0.441068 0.208819 0.700975 -0.593229
O10   O     O_3   0.383340 0.666720 0.405900 -0.478872
O11   O     O_2   0.287786 0.818613 0.446625 -0.475203
O12   O     O_3   0.260499 0.313998 0.290262 -0.664570
O13   O     O_3   0.068742 0.715253 0.668905 -0.614274
O14   O     O_3   0.394361 0.806284 0.313341 -0.607426
O15   O     O_2   0.160650 0.456070 0.313260 -0.451124
O16   O     O_3   0.956180 0.620960 0.366010 -0.455697
O17   O     O_2   0.030193 0.549872 0.230035 -0.496476
O18   O     O_3   0.010883 0.718040 0.239810 -0.590580
O19   O     O_2   0.642530 0.277700 0.454650 -0.469794
O20   O     O_3   0.914670 0.391160 0.457170 -0.484016
O21   O     O_3   0.426950 0.333280 0.594040 -0.471361
O22   O     O_3   0.755819 0.260109 0.330646 -0.679898
O23   O     O_3   0.389270 0.546240 0.592370 -0.471652
O24   O     O_3   0.854110 0.379030 0.633930 -0.478701
P1    P     P_3+3 0.994810 0.708030 0.567580 0.998293
P2    P     P_3+3 0.329370 0.428660 0.324010 0.948941
P3    P     P_3+3 0.921339 0.614760 0.264091 0.952148
P4    P     P_3+3 0.815490 0.291960 0.432360 0.947074
P5    P     P_3+3 0.879321 0.380001 0.735003 0.949225
P6    P     P_3+3 0.430033 0.782968 0.408965 0.936318
P7    P     P_3+3 0.475058 0.573713 0.690229 0.955857
P8    P     P_3+3 0.373729 0.222509 0.605069 0.931592

loop_
_geom_bond_atom_site_label_1
_geom_bond_atom_site_label_2
_ccdc_geom_bond_type
Ba2   O4    S    
C53   C54   S    
C58   H17   S    
C2    P1    S    
C48   H55   S    
C23   H5    S    
C4    C53   S    
C18   H31   S    
C56   H14   S    
C5    C6    A    
O16   P3    S    
C51   C52   S    
C42   C43   S    
O22   P4    S    
C52   H69   S    
C11   H22   S    
C58   H16   S    
C53   H76   S    
O13   P1    S    
C44   H53   S    
C48   H58   S    
C38   O12   S    
C22   C24   A    
C36   O13   S    
C59   H20   S    
C36   C37   S    
C50   H61   S    
C43   H47   S    
C55   C57   S    
C12   H1    S    
C59   H18   S    
C4    H29   S    
C57   H80   S    
O6    P7    D    
Ba1   Ba2   S    
Ba1   O23   S    
C35   C40   S    
C39   H78   S    
C56   H15   S    
C36   C44   S    
O15   P2    D    
C39   H84   S    
C45   O3    S    
C26   C33   A    
C34   H8    S    
C6    C7    A    
C21   C22   A    
C25   H27   S    
C16   H35   S    
C7    C8    A    
Ba2   O20   S    
C16   C51   S    
C43   H46   S    
Ba1   O15   S    
C19   C20   A    
C16   H33   S    
O14   P6    S    
C1    H3    S    
C27   P5    S    
C52   H68   S    
O23   P7    S    
C45   H10   S    
C54   H74   S    
O1    P1    D    
C56   H13   S    
C44   C46   S    
O24   P5    S    
C38   C49   S    
Ba2   O6    S    
C4    C16   S    
O7    P7    S    
O20   P4    S    
O2    P5    D    
C3    H24   S    
C55   H81   S    
C23   O7    S    
C48   H57   S    
O18   P3    S    
C51   H71   S    
C45   H11   S    
C3    C5    A    
Ba2   O23   S    
C24   P3    S    
O19   P4    D    
C52   H66   S    
C28   H37   S    
Ba1   P1    S    
O5    P2    S    
C49   C50   S    
C28   C35   S    
C40   H42   S    
C58   C59   S    
O3    P5    S    
C2    C15   A    
C2    C14   A    
Ba1   O10   S    
C1    H9    S    
C41   H39   S    
C1    H56   S    
C15   C60   A    
C10   C60   A    
C9    C14   A    
O4    P1    S    
C57   H77   S    
C8    C17   A    
C50   H63   S    
C21   C32   S    
C47   H59   S    
C34   H6    S    
C31   C32   T    
Ba1   O4    S    
C51   H70   S    
C10   C11   A    
C7    C9    A    
Ba2   O19   S    
C57   H79   S    
C1    C12   S    
Ba2   O24   S    
C38   H45   S    
C12   H2    S    
C38   C39   S    
C37   C47   S    
C4    O18   S    
Ba1   O16   S    
C11   C13   A    
Ba1   O1    S    
C40   C41   S    
C37   H23   S    
O17   P3    D    
C60   P6    S    
C54   H73   S    
C43   H44   S    
C46   H52   S    
C36   H12   S    
C33   H32   S    
Ba2   O5    S    
C28   H36   S    
O10   P6    S    
C55   H82   S    
C46   H50   S    
C25   C30   A    
C49   H64   S    
C29   C30   A    
C23   H4    S    
C22   H28   S    
O11   P6    D    
C54   H72   S    
C9    C10   A    
O9    P8    S    
C3    C17   A    
C26   P7    S    
C19   P2    S    
C27   C33   A    
Ba1   P2    S    
C53   H75   S    
C44   H54   S    
C8    C13   A    
C6    H25   S    
C49   H65   S    
C30   C31   S    
C35   C42   S    
O8    P8    D    
C17   P4    S    
C28   O22   S    
C27   C29   A    
C59   H19   S    
Ba2   P4    S    
C45   C56   S    
C39   H67   S    
C50   H62   S    
O12   P2    S    
C18   C24   A    
Ba1   O20   S    
C47   H60   S    
C41   H40   S    
Ba1   O5    S    
C14   C55   S    
C34   H7    S    
C40   H43   S    
C41   H41   S    
C37   H34   S    
C58   O9    S    
C23   C34   S    
C29   H83   S    
C42   H49   S    
O21   P8    S    
C18   C19   A    
C5    P8    S    
C47   C48   S    
C12   O14   S    
C25   C26   A    
C20   H30   S    
C20   C21   A    
C46   H51   S    
C15   H21   S    
Ba2   O21   S    
C35   H38   S    
C13   H26   S    
C42   H48   S    
