data_mof_unit_5145.cif
_audit_creation_date              2012-12-11T14:34:17-0500
_audit_creation_method            fapswitch 2.2
_symmetry_space_group_name_H-M    P1
_symmetry_Int_Tables_number       1
_space_group_crystal_system       triclinic
_cell_length_a                    13.857455
_cell_length_b                    13.984684
_cell_length_c                    27.338615
_cell_angle_alpha                 89.972729
_cell_angle_beta                  90.01066
_cell_angle_gamma                 119.62972
_cell_volume                      4605.23287963

loop_
_atom_site_label
_atom_site_type_symbol
_atom_type_description
_atom_site_fract_x
_atom_site_fract_y
_atom_site_fract_z
_atom_type_partial_charge
C1    C     C_R   0.234291 0.786787 0.568913 0.538402
C2    C     C_1   0.701896 0.860034 0.861104 0.039803
C3    C     C_1   0.118479 0.870971 0.854400 0.049619
C4    C     C_1   0.122392 0.245884 0.854017 0.048025
C5    C     C_1   0.623677 0.811435 0.659872 -0.011839
C6    C     C_1   0.181033 0.814067 0.657749 -0.014117
C7    C     C_1   0.182241 0.368061 0.657870 -0.011810
C8    C     C_1   0.597915 0.794345 0.617372 0.023761
C9    C     C_1   0.201505 0.803589 0.616075 0.025789
C10   C     C_1   0.195074 0.398632 0.616163 0.026116
C11   C     C_R   0.064923 0.150797 0.096089 0.596013
C12   C     C_R   0.212884 0.447354 0.568942 0.541577
C13   C     C_R   0.776216 0.883148 0.087907 0.580133
C14   C     C_R   0.116673 0.893359 0.087884 0.592438
C15   C     C_R   0.071440 0.163733 0.942927 0.532688
C16   C     C_R   0.779349 0.886967 0.950929 0.543270
C17   C     C_R   0.092043 0.927520 0.943068 0.527857
C18   C     C_R   0.618317 0.894788 0.360776 -0.131662
C19   C     C_R   0.097294 0.735891 0.362790 -0.133641
C20   C     C_R   0.263546 0.355879 0.364180 -0.133527
C21   C     C_R   0.642089 0.908790 0.310812 0.019973
C22   C     C_R   0.080991 0.747135 0.313042 0.019894
C23   C     C_R   0.552024 0.764855 0.569226 0.538084
C24   C     C_R   0.240099 0.304654 0.318170 0.019528
C25   C     C_R   0.675023 0.925083 0.209041 0.010554
C26   C     C_R   0.059619 0.762298 0.211504 -0.001400
C27   C     C_R   0.198900 0.223888 0.221487 -0.001349
C28   C     C_R   0.232935 0.788289 0.431632 0.547090
C29   C     C_R   0.211728 0.444436 0.431453 0.549193
C30   C     C_R   0.555201 0.766925 0.431683 0.547929
C31   C     C_R   0.653389 0.000329 0.233741 -0.108308
C32   C     C_R   0.973003 0.678314 0.238486 -0.106544
C33   C     C_R   0.300299 0.252077 0.244316 -0.105577
C34   C     C_3   0.644378 0.727852 0.792041 0.292129
C35   C     C_R   0.636482 0.991945 0.284335 -0.135964
C36   C     C_R   0.984323 0.669749 0.288883 -0.126408
C37   C     C_R   0.321061 0.292924 0.292201 -0.124783
C38   C     C_R   0.698489 0.935859 0.158856 -0.143222
C39   C     C_R   0.048798 0.773611 0.161327 -0.184900
C40   C     C_R   0.181101 0.193313 0.172022 -0.184857
C41   C     C_R   0.720306 0.859590 0.135373 0.001689
C42   C     C_R   0.136478 0.858867 0.135332 0.000216
C43   C     C_R   0.082421 0.173822 0.148803 -0.005465
C44   C     C_R   0.650595 0.738921 0.362294 -0.125945
C45   C     C_3   0.256666 0.930564 0.787714 0.301331
C46   C     C_R   0.273357 0.907130 0.359942 -0.122876
C47   C     C_R   0.076336 0.328444 0.368362 -0.124679
C48   C     C_R   0.670448 0.749227 0.312420 0.014875
C49   C     C_R   0.262129 0.915225 0.310171 0.014233
C50   C     C_R   0.052718 0.279876 0.322333 0.012868
C51   C     C_R   0.664467 0.833267 0.286294 0.068074
C52   C     C_R   0.166356 0.834378 0.286304 0.068154
C53   C     C_R   0.135472 0.270035 0.296522 0.067194
C54   C     C_R   0.688058 0.671586 0.287856 -0.152379
C55   C     C_R   0.348996 0.999103 0.283593 -0.152929
C56   C     C_3   0.062887 0.328119 0.788006 0.291163
C57   C     C_R   0.949816 0.247718 0.300498 -0.149710
C58   C     C_R   0.696607 0.675058 0.237299 -0.098105
C59   C     C_R   0.342629 0.001244 0.233043 -0.104245
C60   C     C_R   0.930919 0.211674 0.252261 -0.093473
C61   C     C_R   0.691880 0.758792 0.210990 0.029741
C62   C     C_R   0.247289 0.922093 0.208803 0.029658
C63   C     C_R   0.013551 0.204589 0.225564 0.035620
C64   C     C_3   0.563916 0.857210 0.737879 -0.307016
C65   C     C_3   0.127367 0.717942 0.738185 -0.303739
C66   C     C_3   0.278228 0.403442 0.737956 -0.297787
C67   C     C_3   0.625258 0.715119 0.735817 0.322002
C68   C     C_R   0.677569 0.839430 0.235445 0.002968
C69   C     C_R   0.157590 0.839548 0.235516 0.007754
C70   C     C_R   0.115349 0.231020 0.248087 0.008948
C71   C     C_R   0.705622 0.765335 0.160754 0.360760
C72   C     C_R   0.238448 0.927097 0.158480 0.357220
C73   C     C_R   0.997846 0.176376 0.176156 0.350015
C74   C     C_R   0.616185 0.805767 0.385791 -0.002772
C75   C     C_R   0.196320 0.813163 0.385576 -0.002185
C76   C     C_R   0.183148 0.372109 0.388406 -0.003737
C77   C     C_3   0.765080 0.915759 0.723770 -0.158834
C78   C     C_3   0.273073 0.918344 0.732426 0.319197
C79   C     C_3   0.072467 0.859234 0.715681 -0.156371
C80   C     C_3   0.126768 0.213347 0.715063 -0.159337
C81   C     C_3   0.784885 0.929151 0.779782 0.264723
C82   C     C_3   0.053444 0.871053 0.770560 0.257432
C83   C     C_3   0.115190 0.181893 0.769764 0.254895
C84   C     C_1   0.731434 0.871813 0.903177 0.042206
C85   C     C_1   0.106421 0.894827 0.895326 0.052751
C86   C     C_1   0.101918 0.210013 0.895005 0.049017
C87   C     C_3   0.644597 0.824897 0.712885 -0.019197
C88   C     C_3   0.163522 0.826936 0.709638 -0.022751
C89   C     C_3   0.079706 0.362165 0.733157 0.314545
C90   C     C_3   0.167059 0.337342 0.709644 -0.017395
C91   C     C_3   0.583447 0.869527 0.794078 -0.278326
C92   C     C_3   0.110701 0.732543 0.793482 -0.272779
C93   C     C_3   0.261631 0.373170 0.793195 -0.267395
C94   C     C_3   0.678666 0.846967 0.808221 0.036517
C95   C     C_3   0.134287 0.851496 0.802983 0.038327
C96   C     C_3   0.140187 0.281792 0.802696 0.039950
Cr1   Cr    Cr6+3 0.164410 0.584450 0.499910 1.040721
Cr2   Cr    Cr6+3 0.415550 0.579960 0.499910 1.039816
Cr3   Cr    Cr6+3 0.420040 0.835590 0.499910 1.037574
Cr4   Cr    Cr6+3 0.155170 0.075460 0.019960 1.092367
Cr5   Cr    Cr6+3 0.924540 0.079710 0.019960 1.088842
Cr6   Cr    Cr6+3 0.920290 0.844830 0.019960 1.086310
F1    F     F_    0.724463 0.701108 0.805766 -0.515688
F2    F     F_    0.695168 0.682565 0.714367 -0.547606
F3    F     F_    0.307838 0.017540 0.708387 -0.552240
F4    F     F_    0.979676 0.307389 0.708138 -0.555502
F5    F     F_    0.288361 0.038571 0.799013 -0.509126
F6    F     F_    0.952910 0.251327 0.797036 -0.509331
F7    F     F_    0.713865 0.683692 0.137342 -0.628601
F8    F     F_    0.326243 0.004917 0.132624 -0.629228
F9    F     F_    0.901753 0.156094 0.154053 -0.657472
F10   F     F_    0.815712 0.035932 0.793214 -0.586292
F11   F     F_    0.944668 0.795951 0.782681 -0.589567
F12   F     F_    0.189294 0.146018 0.780848 -0.593418
H1    H     H_    0.505734 0.810809 0.813408 0.088495
H2    H     H_    0.708521 0.612985 0.219003 0.171629
H3    H     H_    0.411653 0.065988 0.213152 0.171895
H4    H     H_    0.852945 0.193067 0.235449 0.171595
H5    H     H_    0.691930 0.606309 0.307588 0.102883
H6    H     H_    0.423281 0.061033 0.301759 0.099343
H7    H     H_    0.885651 0.254998 0.319998 0.106381
H8    H     H_    0.576229 0.936096 0.722394 0.187998
H9    H     H_    0.048592 0.650903 0.722681 0.192946
H10   H     H_    0.341908 0.385465 0.722553 0.195771
H11   H     H_    0.651043 0.671459 0.381700 0.132573
H12   H     H_    0.167567 0.715299 0.815788 0.092269
H13   H     H_    0.348882 0.968970 0.377401 0.135524
H14   H     H_    0.013020 0.338535 0.387141 0.134798
H15   H     H_    0.825085 0.894589 0.706758 0.145582
H16   H     H_    0.096981 0.938270 0.696534 0.144848
H17   H     H_    0.045243 0.163948 0.696505 0.141621
H18   H     H_    0.854614 0.914855 0.789370 0.198010
H19   H     H_    0.065041 0.953976 0.777328 0.192949
H20   H     H_    0.029839 0.113207 0.776823 0.178714
H21   H     H_    0.538325 0.649414 0.728598 0.081029
H22   H     H_    0.339464 0.896126 0.727972 0.082564
H23   H     H_    0.281010 0.447509 0.815184 0.089398
H24   H     H_    0.109299 0.451920 0.730436 0.080707
H25   H     H_    0.565878 0.669056 0.810869 0.078737
H26   H     H_    0.312168 0.909322 0.808887 0.077202
H27   H     H_    0.083209 0.401757 0.810727 0.084122
H28   H     H_    0.604027 0.953832 0.805571 0.224886
H29   H     H_    0.024489 0.671843 0.804614 0.231626
H30   H     H_    0.320759 0.345353 0.804786 0.232798
H31   H     H_    0.476342 0.793463 0.730402 0.096660
H32   H     H_    0.191408 0.692475 0.734128 0.097522
H33   H     H_    0.310213 0.493331 0.733662 0.095407
H34   H     H_    0.649837 0.065699 0.213979 0.130438
H35   H     H_    0.704282 0.005202 0.138667 0.192071
H36   H     H_    0.970644 0.720395 0.143180 0.169619
H37   H     H_    0.245423 0.188939 0.151230 0.169306
H38   H     H_    0.592900 0.947563 0.379041 0.127229
H39   H     H_    0.036656 0.664255 0.382766 0.123954
H40   H     H_    0.345787 0.388161 0.379749 0.126012
H41   H     H_    0.780705 0.995008 0.707342 0.188516
H42   H     H_    0.993803 0.795691 0.698555 0.189516
H43   H     H_    0.186367 0.192982 0.696993 0.188693
H44   H     H_    0.897307 0.618552 0.220519 0.124797
H45   H     H_    0.364943 0.246161 0.224573 0.126459
H46   H     H_    0.618475 0.050003 0.302689 0.097159
H47   H     H_    0.917822 0.602619 0.308893 0.102480
H48   H     H_    0.401454 0.318085 0.308425 0.104005
O1    O     O_R   0.137150 0.468200 0.553200 -0.492601
O2    O     O_R   0.140110 0.470540 0.446010 -0.519723
O3    O     O_R   0.529460 0.669570 0.446010 -0.520108
O4    O     O_R   0.330430 0.859890 0.446010 -0.522904
O5    O     O_R   0.176710 0.690910 0.450560 -0.500935
O6    O     O_R   0.309090 0.485800 0.450560 -0.501108
O7    O     O_R   0.514200 0.823290 0.450560 -0.503274
O8    O     O_3   0.333333 0.666667 0.499990 -0.275995
O9    O     O_R   0.176750 0.985260 0.074180 -0.448457
O10   O     O_R   0.014740 0.191490 0.074180 -0.413835
O11   O     O_R   0.808510 0.823250 0.074180 -0.432494
O12   O     O_R   0.531800 0.668950 0.553200 -0.493840
O13   O     O_R   0.146100 0.172630 0.068980 -0.490982
O14   O     O_R   0.827370 0.973470 0.068980 -0.506056
O15   O     O_R   0.026530 0.853900 0.068980 -0.505945
O16   O     O_3   1.000000 1.000000 0.020040 -0.323370
O17   O     O_R   0.148270 0.170520 0.969620 -0.488579
O18   O     O_R   0.829480 0.977750 0.969620 -0.517420
O19   O     O_R   0.022250 0.851730 0.969620 -0.480777
O20   O     O_R   0.331050 0.862850 0.553200 -0.491405
O21   O     O_R   0.179100 0.982980 0.967000 -0.484533
O22   O     O_R   0.017020 0.196120 0.967000 -0.470996
O23   O     O_R   0.803880 0.820900 0.967000 -0.491802
O24   O     O_R   0.173970 0.688730 0.549930 -0.500171
O25   O     O_R   0.311270 0.485240 0.549930 -0.499853
O26   O     O_R   0.514760 0.826030 0.549930 -0.497707

loop_
_geom_bond_atom_site_label_1
_geom_bond_atom_site_label_2
_ccdc_geom_bond_type
C25   C31   A    
C65   C92   S    
C26   C32   A    
C55   C59   A    
C64   H31   S    
C13   O14   A    
C18   C21   A    
C2    C84   T    
C83   F12   S    
Cr4   O16   S    
C6    C9    T    
C13   C41   S    
C47   H14   S    
C66   C90   S    
C29   C76   S    
C1    O24   A    
C27   C33   A    
Cr6   O11   S    
C13   O11   A    
C39   H36   S    
Cr2   O25   S    
C20   H40   S    
C60   C63   A    
C17   C85   S    
C32   C36   A    
C29   O6    A    
C47   C76   A    
C15   O17   A    
C16   O23   A    
C23   O26   A    
C30   C74   S    
C78   F3    S    
C26   C39   A    
C3    C85   T    
C34   H25   S    
C16   C84   S    
C8    C23   S    
C6    C88   S    
C20   C76   A    
Cr5   O10   S    
C7    C10   T    
Cr4   O21   S    
C92   H29   S    
C35   H46   S    
Cr3   O26   S    
C83   H20   S    
Cr5   O16   S    
C28   O5    A    
C79   H42   S    
C4    C96   S    
C43   C73   A    
Cr3   O20   S    
C40   C43   A    
C56   F6    S    
C20   C24   A    
C79   H16   S    
Cr1   O1    S    
C45   F5    S    
C89   F4    S    
C63   C70   A    
Cr2   O12   S    
C11   C43   S    
C45   C78   S    
C52   C69   A    
C47   C50   A    
C38   H35   S    
C28   O4    A    
C14   C42   S    
Cr3   O4    S    
C61   C71   A    
C58   C61   A    
C65   H9    S    
C11   O10   A    
C59   H3    S    
C80   H17   S    
C54   H5    S    
Cr4   O9    S    
C58   H2    S    
Cr6   O19   S    
C29   O2    A    
C25   C68   A    
C80   C83   S    
C18   H38   S    
C53   C70   A    
C10   C12   S    
C46   C75   A    
C67   F2    S    
C73   F9    S    
C39   C42   A    
C32   H44   S    
C55   H6    S    
C48   C51   A    
Cr1   O24   S    
C26   C69   A    
C72   F8    S    
C44   H11   S    
C50   C53   A    
Cr6   O23   S    
C46   H13   S    
C2    C94   S    
C19   C22   A    
C1    C9    S    
C30   O3    A    
C38   C41   A    
Cr4   O17   S    
C33   H45   S    
C23   O12   A    
C57   C60   A    
C63   C73   A    
C24   C53   A    
C49   C55   A    
C12   O25   A    
C92   C95   S    
C33   C37   A    
Cr1   O8    S    
C40   H37   S    
C5    C87   S    
C48   C54   A    
C30   O7    A    
C67   H21   S    
C17   O19   A    
C25   C38   A    
C79   C82   S    
C17   O21   A    
C46   C49   A    
C81   F10   S    
C77   C81   S    
C27   C40   A    
C49   C52   A    
C15   O22   A    
Cr4   O13   S    
C42   C72   A    
C24   C37   A    
C62   C72   A    
C77   H15   S    
C44   C74   A    
Cr5   O22   S    
C77   C87   S    
C66   H33   S    
C27   C70   A    
C79   C88   S    
C15   C86   S    
C21   C35   A    
C31   H34   S    
C56   C89   S    
C93   C96   S    
C66   C93   S    
C36   H47   S    
C19   H39   S    
C31   C35   A    
C56   H27   S    
C45   C95   S    
C21   C51   A    
C65   C88   S    
C22   C52   A    
C54   C58   A    
C78   C88   S    
C56   C96   S    
Cr6   O16   S    
C59   C62   A    
C82   C95   S    
C64   C87   S    
C50   C57   A    
C67   C87   S    
C34   C94   S    
C82   F11   S    
C14   O9    A    
C81   H18   S    
C92   H12   S    
C34   C67   S    
C5    C8    T    
C1    O20   A    
Cr3   O7    S    
C22   C36   A    
C11   O13   A    
C34   F1    S    
C41   C71   A    
Cr1   O2    S    
Cr3   O8    S    
C91   H28   S    
C82   H19   S    
C19   C75   A    
C89   C90   S    
Cr5   O18   S    
Cr1   O5    S    
C77   H41   S    
C12   O1    A    
C81   C94   S    
C7    C90   S    
C61   C68   A    
C80   H43   S    
C64   H8    S    
C83   C96   S    
C71   F7    S    
C93   H30   S    
C91   H1    S    
C66   H10   S    
C51   C68   A    
C45   H26   S    
C80   C90   S    
Cr2   O3    S    
C93   H23   S    
C57   H7    S    
Cr2   O8    S    
C44   C48   A    
C4    C86   T    
C62   C69   A    
C18   C74   A    
C89   H24   S    
Cr6   O15   S    
C14   O15   A    
Cr5   O14   S    
C3    C95   S    
C64   C91   S    
C65   H32   S    
C28   C75   S    
C78   H22   S    
C60   H4    S    
Cr2   O6    S    
C16   O18   A    
C37   H48   S    
C91   C94   S    
