data_mof_unit_49252.cif
_audit_creation_date              2012-12-11T15:59:42-0500
_audit_creation_method            fapswitch 2.2
_symmetry_space_group_name_H-M    P1
_symmetry_Int_Tables_number       1
_space_group_crystal_system       triclinic
_cell_length_a                    10.747732
_cell_length_b                    10.775896
_cell_length_c                    17.13127
_cell_angle_alpha                 100.180117
_cell_angle_beta                  99.913161
_cell_angle_gamma                 61.127315
_cell_volume                      1701.40196346

loop_
_atom_site_label
_atom_site_type_symbol
_atom_type_description
_atom_site_fract_x
_atom_site_fract_y
_atom_site_fract_z
_atom_type_partial_charge
C1    C     C_R   0.357988 0.764833 0.396651 0.550788
C2    C     C_R   0.864848 0.319506 0.336912 -0.008426
C3    C     C_R   0.331498 0.828986 0.157984 -0.021106
C4    C     C_R   0.368259 0.344075 0.358384 0.556453
C5    C     C_R   0.458711 0.800496 0.205728 -0.003209
C6    C     C_R   0.454433 0.817052 0.288974 -0.012039
C7    C     C_R   0.241178 0.779168 0.259139 -0.028231
C8    C     C_R   0.226819 0.811234 0.184385 -0.137061
C9    C     C_R   0.589230 0.751072 0.173271 0.289279
C10   C     C_R   0.707794 0.742704 0.224610 -0.103593
C11   C     C_R   0.696744 0.785843 0.305990 -0.150477
C12   C     C_R   0.844908 0.216525 0.200758 0.007752
C13   C     C_R   0.567819 0.833855 0.337958 0.031205
C14   C     C_R   0.344293 0.801468 0.316709 0.014569
C15   C     C_R   0.293762 0.269014 0.798187 -0.025542
C16   C     C_R   0.781908 0.373441 0.405964 0.545588
C17   C     C_R   0.421284 0.175453 0.762415 0.011151
C18   C     C_R   0.467727 0.229796 0.712512 -0.005237
C19   C     C_R   0.228769 0.436148 0.702486 -0.024999
C20   C     C_R   0.197282 0.395705 0.766265 -0.131568
C21   C     C_R   0.508136 0.032463 0.778804 -0.075081
C22   C     C_R   0.648185 0.953557 0.757811 0.022128
C23   C     C_R   0.862504 0.204665 0.283399 0.049708
C24   C     C_R   0.704721 0.020923 0.722335 0.025751
C25   C     C_R   0.614527 0.158934 0.701481 -0.084392
C26   C     C_R   0.365954 0.351364 0.674073 0.009112
C27   C     C_1   0.844169 0.331060 0.705852 -0.071304
C28   C     C_R   0.358315 0.769192 0.627526 0.550574
C29   C     C_1   0.890130 0.295145 0.772087 -0.065148
C30   C     C_1   0.339352 0.809403 0.709578 -0.063976
C31   C     C_1   0.312708 0.837202 0.777424 -0.077623
C32   C     C_R   0.907161 0.303880 0.093040 0.525961
C33   C     C_R   0.317293 0.297013 0.121015 0.553914
C34   C     C_R   0.905342 0.410009 0.311773 -0.152160
C35   C     C_R   0.293275 0.891563 0.084484 0.573357
C36   C     C_R   0.940791 0.274328 0.854307 0.538653
C37   C     C_R   0.277847 0.250142 0.877693 0.527196
C38   C     C_R   0.278618 0.884801 0.857153 0.518907
C39   C     C_R   0.400852 0.372780 0.599611 0.546108
C40   C     C_R   0.776746 0.379566 0.629303 0.535949
C41   C     C_1   0.340141 0.328491 0.275205 -0.055535
C42   C     C_1   0.328055 0.319495 0.204481 -0.047924
C43   C     C_R   0.877063 0.314984 0.174988 -0.014095
C44   C     C_3   0.550674 0.921443 0.418278 -0.333743
C45   C     C_R   0.916946 0.403429 0.232066 -0.148501
C46   C     C_3   0.115963 0.572647 0.670217 -0.364002
C47   C     C_3   0.735931 0.800898 0.775744 -0.388169
C48   C     C_3   0.857439 0.946122 0.703108 -0.392338
C49   C     C_3   0.930337 0.038158 0.392111 -0.361527
C50   C     C_3   0.166148 0.693877 0.266369 -0.356170
C51   C     C_3   0.577465 0.595885 0.063243 0.018009
C52   C     C_3   0.591839 0.561574 0.973931 -0.245968
C53   C     C_3   0.577404 0.427678 0.939836 -0.442236
C54   C     C_R   0.798468 0.127965 0.147331 -0.091946
C55   C     C_R   0.795726 0.014538 0.173523 -0.118128
C56   C     C_R   0.839725 0.987778 0.252615 -0.098283
C57   C     C_R   0.873040 0.080999 0.308649 0.038494
Cr1   Cr    Cr6+3 0.608100 0.610860 0.522250 0.997805
Cr2   Cr    Cr6+3 0.288890 0.599990 0.488420 0.976907
Cr3   Cr    Cr6+3 0.603040 0.289190 0.489390 0.979220
Cr4   Cr    Cr6+3 0.053960 0.052250 0.967380 0.996589
Cr5   Cr    Cr6+3 0.059890 0.373160 0.992710 0.997246
Cr6   Cr    Cr6+3 0.373370 0.061690 0.991710 1.026047
H1    H     H_    0.919757 0.491822 0.352992 0.138042
H2    H     H_    0.850589 0.892654 0.270366 0.093854
H3    H     H_    0.135696 0.813250 0.144676 0.160782
H4    H     H_    0.583504 0.004274 0.418165 0.150055
H5    H     H_    0.438050 0.977252 0.432447 0.137997
H6    H     H_    0.621546 0.853532 0.465657 0.141224
H7    H     H_    0.072663 0.550257 0.608821 0.161375
H8    H     H_    0.024295 0.628391 0.706645 0.099284
H9    H     H_    0.160831 0.646575 0.671891 0.168746
H10   H     H_    0.674697 0.765732 0.804356 0.133897
H11   H     H_    0.768696 0.730345 0.719472 0.155868
H12   H     H_    0.807545 0.708044 0.200563 0.112691
H13   H     H_    0.832309 0.788278 0.816746 0.127462
H14   H     H_    0.885268 0.017268 0.678524 0.132893
H15   H     H_    0.930883 0.909076 0.757730 0.161335
H16   H     H_    0.873736 0.854029 0.657601 0.116837
H17   H     H_    0.019564 0.930304 0.390558 0.139293
H18   H     H_    0.973883 0.106498 0.429123 0.130912
H19   H     H_    0.845982 0.038613 0.421776 0.138052
H20   H     H_    0.249887 0.590947 0.283270 0.171373
H21   H     H_    0.086007 0.743424 0.309337 0.143836
H22   H     H_    0.110254 0.670378 0.209313 0.097227
H23   H     H_    0.787735 0.786475 0.344383 0.089969
H24   H     H_    0.469418 0.615264 0.071000 0.112496
H25   H     H_    0.652357 0.503036 0.095047 0.135557
H26   H     H_    0.507663 0.652893 0.942690 0.168412
H27   H     H_    0.696598 0.547395 0.963107 0.225314
H28   H     H_    0.661306 0.334197 0.969501 0.172548
H29   H     H_    0.589412 0.406018 0.874990 0.160193
H30   H     H_    0.470643 0.442625 0.948327 0.163283
H31   H     H_    0.467601 0.982020 0.808456 0.151623
H32   H     H_    0.097668 0.464700 0.792268 0.142332
H33   H     H_    0.659009 0.210227 0.675562 0.151834
H34   H     H_    0.763720 0.145181 0.085342 0.131841
H35   H     H_    0.955552 0.469832 0.215129 0.138852
H36   H     H_    0.765105 0.943705 0.131712 0.133717
O1    O     O_R   0.749810 0.499790 0.438040 -0.519007
O2    O     O_R   0.411730 0.181020 0.091530 -0.501369
O3    O     O_R   0.365010 0.944360 0.063320 -0.445106
O4    O     O_R   0.477660 0.726260 0.439290 -0.497225
O5    O     O_R   0.159380 0.906670 0.876210 -0.517369
O6    O     O_R   0.930820 0.177420 0.886730 -0.492700
O7    O     O_R   0.910360 0.395420 0.895720 -0.535804
O8    O     O_R   0.186010 0.361730 0.919870 -0.509875
O9    O     O_R   0.400000 0.173010 0.914630 -0.518766
O10   O     O_R   0.354140 0.936940 0.899340 -0.535240
O11   O     O_3   0.162410 0.162370 0.983930 -0.286163
O12   O     O_R   0.298970 0.468800 0.557390 -0.503976
O13   O     O_R   0.260150 0.743000 0.412270 -0.540962
O14   O     O_R   0.297740 0.466550 0.394720 -0.513856
O15   O     O_R   0.488080 0.253500 0.386430 -0.510886
O16   O     O_R   0.722670 0.303800 0.421940 -0.497341
O17   O     O_R   0.751130 0.502220 0.613520 -0.515980
O18   O     O_R   0.478890 0.728510 0.601960 -0.493249
O19   O     O_R   0.261470 0.745430 0.587750 -0.534338
O20   O     O_3   0.603614 0.713871 0.092159 -0.558654
O21   O     O_R   0.489400 0.255930 0.561910 -0.527228
O22   O     O_R   0.723890 0.306050 0.584610 -0.535042
O23   O     O_3   0.500010 0.500010 0.500020 -0.253863
O24   O     O_R   0.171100 0.914680 0.053100 -0.538477
O25   O     O_R   0.941680 0.184840 0.050710 -0.506041
O26   O     O_R   0.922080 0.403420 0.072610 -0.514082
O27   O     O_R   0.196880 0.369150 0.083850 -0.503093

loop_
_geom_bond_atom_site_label_1
_geom_bond_atom_site_label_2
_ccdc_geom_bond_type
C49   H19   S    
C55   C56   A    
C8    H3    S    
C27   C29   T    
C41   C42   T    
C32   O25   A    
C52   H27   S    
C19   C20   A    
C18   C26   A    
Cr6   O2    S    
C35   O3    A    
C19   C46   S    
C50   H21   S    
C7    C8    A    
C40   O22   A    
C29   C36   S    
Cr3   O16   S    
Cr4   O25   S    
C33   O2    A    
C33   C42   S    
C48   H16   S    
C4    O15   A    
C47   H13   S    
C37   O8    A    
C12   C43   A    
C28   O18   A    
C1    O13   A    
C30   C31   T    
C26   C39   S    
C21   H31   S    
C11   H23   S    
C49   H18   S    
C39   O21   A    
C49   C57   S    
C56   C57   A    
C15   C17   A    
C48   H15   S    
C19   C26   A    
C15   C37   S    
C38   O5    A    
C50   H22   S    
Cr3   O15   S    
C7    C14   A    
Cr1   O4    S    
Cr5   O11   S    
C53   H28   S    
Cr2   O12   S    
C54   H34   S    
Cr4   O6    S    
C9    C10   A    
C1    O4    A    
C46   H9    S    
C2    C34   A    
Cr2   O23   S    
C39   O12   A    
C22   C47   S    
C21   C22   A    
Cr1   O17   S    
C7    C50   S    
C52   H26   S    
C18   C25   A    
C53   H29   S    
Cr6   O3    S    
Cr4   O11   S    
C50   H20   S    
C17   C18   A    
C15   C20   A    
Cr1   O23   S    
C36   O7    A    
C51   C52   S    
C24   C48   S    
C4    O14   A    
Cr4   O5    S    
Cr1   O1    S    
C24   C25   A    
C47   H10   S    
C37   O9    A    
C3    C8    A    
C51   H24   S    
Cr5   O27   S    
C16   O1    A    
Cr5   O8    S    
C53   H30   S    
Cr1   O18   S    
C17   C21   A    
C32   O26   A    
Cr6   O10   S    
C5    C9    A    
C6    C14   A    
C10   H12   S    
C51   O20   S    
C12   C23   A    
C3    C35   S    
C27   C40   S    
Cr2   O14   S    
C48   H14   S    
C34   H1    S    
Cr2   O13   S    
C44   H6    S    
C34   C45   A    
C38   O10   A    
Cr3   O23   S    
C43   C45   A    
C46   H8    S    
C20   H32   S    
Cr2   O19   S    
C9    O20   S    
C22   C24   A    
C44   H5    S    
C16   O16   A    
C2    C16   S    
C52   C53   S    
C23   C57   A    
C54   C55   A    
C36   O6    A    
C47   H11   S    
C3    C5    A    
C51   H25   S    
Cr5   O26   S    
C49   H17   S    
Cr5   O7    S    
C31   C38   S    
Cr4   O24   S    
Cr6   O11   S    
C28   C30   S    
C45   H35   S    
C28   O19   A    
C6    C13   A    
C11   C13   A    
C40   O17   A    
C35   O24   A    
C33   O27   A    
C32   C43   S    
Cr3   O21   S    
Cr3   O22   S    
C46   H7    S    
C10   C11   A    
C25   H33   S    
C4    C41   S    
C55   H36   S    
C2    C23   A    
C5    C6    A    
C44   H4    S    
C1    C14   S    
Cr6   O9    S    
C13   C44   S    
C12   C54   A    
C56   H2    S    
