data_mof_unit_19237.cif
_audit_creation_date              2013-03-05T15:42:49-0500
_audit_creation_method            fapswitch 2.2
_symmetry_space_group_name_H-M    P1
_symmetry_Int_Tables_number       1
_space_group_crystal_system       triclinic
_cell_length_a                    6.947962
_cell_length_b                    14.637715
_cell_length_c                    16.373109
_cell_angle_alpha                 90.507175
_cell_angle_beta                  90.224028
_cell_angle_gamma                 89.547
_cell_volume                      1665.05308104

loop_
_atom_site_label
_atom_site_type_symbol
_atom_site_description
_atom_site_fract_x
_atom_site_fract_y
_atom_site_fract_z
_atom_type_partial_charge
O1    O     O_R   0.494400 0.416610 0.413880 -0.562142
O2    O     O_R   0.823920 0.406790 0.585520 -0.562067
O3    O     O_R   0.994250 0.583390 0.586120 -0.559989
C1    C     C_R   0.656595 0.385285 0.613080 0.833955
O4    O     O_R   0.824110 0.405730 0.414490 -0.563649
O5    O     O_R   0.994440 0.582310 0.413870 -0.561139
C2    C     C_R   0.655051 0.383605 0.386405 0.839173
O6    O     O_R   0.494210 0.417690 0.586130 -0.544342
O7    O     O_3   0.660810 0.557940 0.500000 -0.276221
V1    V     V_3+5 0.935650 0.489250 0.500000 1.145353
O8    O     O_R   0.324160 0.593210 0.414480 -0.559682
C3    C     C_R   0.155284 0.615036 0.386529 0.854675
O9    O     O_R   0.323970 0.594270 0.585510 -0.559013
C4    C     C_R   0.154240 0.618705 0.611421 0.807371
V2    V     V_3+5 0.435660 0.510750 0.500000 1.151952
O10   O     O_3   0.160630 0.442060 0.500000 -0.272707
C5    C     C_R   0.149269 0.552788 0.773202 -0.085308
C6    C     C_R   0.155593 0.515184 0.849869 -0.066458
C7    C     C_R   0.172399 0.570866 0.917677 -0.019307
C8    C     C_R   0.183279 0.666772 0.910727 0.042733
C9    C     C_R   0.151985 0.708585 0.832051 0.007342
C10   C     C_R   0.147741 0.648513 0.762261 0.017152
C11   C     C_R   0.125314 0.805746 0.819055 -0.126881
C12   C     C_R   0.109554 0.838953 0.737557 0.010523
C13   C     C_R   0.122234 0.778120 0.669589 0.008201
C14   C     C_R   0.142663 0.683280 0.682053 -0.116597
C15   C     C_R   0.082550 0.933252 0.722052 -0.062894
C16   C     C_R   0.069688 0.966462 0.642707 -0.029892
C17   C     C_R   0.084150 0.906961 0.575409 0.071152
C18   C     C_R   0.110531 0.813508 0.589570 -0.077698
H1    H     H_    0.142352 0.505015 0.722503 0.093563
H2    H     H_    0.153617 0.441755 0.856599 0.171009
H3    H     H_    0.181386 0.536805 0.975803 0.095956
H4    H     H_    0.070862 0.983062 0.771008 0.127152
H5    H     H_    0.048698 0.039135 0.635042 0.111694
H6    H     H_    0.120467 0.768553 0.536814 0.036502
C19   C     C_2   0.985342 0.710959 0.284627 -0.147004
C20   C     C_2   0.150773 0.680858 0.318296 -0.284717
H7    H     H_    0.850469 0.686062 0.308933 0.146620
H8    H     H_    0.288271 0.701397 0.293727 0.119817
C21   C     C_2   0.970930 0.770165 0.210817 0.347654
C22   C     C_2   0.119174 0.822075 0.183783 -0.303511
H9    H     H_    0.255052 0.821220 0.216286 0.104671
C23   C     C_2   0.752011 0.243997 0.808012 0.248112
C24   C     C_2   0.604580 0.184459 0.819645 0.097470
C25   C     C_2   0.749748 0.316562 0.743941 -0.060711
C26   C     C_2   0.651090 0.311707 0.672998 -0.179288
H10   H     H_    0.839830 0.375850 0.754973 0.099787
H11   H     H_    0.567864 0.252311 0.656048 0.110932
C27   C     C_2   0.778618 0.208206 0.214301 -0.078891
C28   C     C_2   0.613614 0.181647 0.177581 -0.192361
H12   H     H_    0.914298 0.179102 0.193507 0.100476
H13   H     H_    0.476179 0.209945 0.196334 0.069176
C29   C     C_2   0.791472 0.276552 0.282302 -0.093020
C30   C     C_2   0.638566 0.315333 0.319647 -0.205491
H14   H     H_    0.935347 0.294911 0.302381 0.098368
H15   H     H_    0.493616 0.297528 0.301417 0.072844
O11   O     O_R   0.770210 0.079270 0.910680 -0.541974
O12   O     O_R   0.440150 0.091160 0.082270 -0.569820
O13   O     O_R   0.269970 0.914530 0.082860 -0.560863
C31   C     C_R   0.608618 0.113201 0.110529 0.845178
O14   O     O_R   0.440480 0.090100 0.911240 -0.500962
O15   O     O_R   0.270310 0.913460 0.910610 -0.564314
C32   C     C_R   0.607891 0.113573 0.884436 0.819933
O16   O     O_R   0.769870 0.080340 0.082930 -0.565017
O17   O     O_3   0.603660 0.938980 0.996790 -0.266486
V3    V     V_3+5 0.328750 0.007610 0.996740 1.225872
O18   O     O_R   0.940600 0.902510 0.911180 -0.555243
C33   C     C_R   0.111195 0.874822 0.887421 0.785086
O19   O     O_R   0.940270 0.903570 0.082200 -0.518313
C34   C     C_R   0.108422 0.885167 0.112953 0.831627
V4    V     V_3+5 0.828770 0.986010 0.996670 1.226589
O20   O     O_3   0.103730 0.054750 0.996710 -0.239862
C35   C     C_3   0.071834 0.938433 0.487406 -0.213929
C36   C     C_3   0.041567 0.041114 0.475644 -0.416880
H16   H     H_    0.903956 0.063859 0.503852 0.133206
H17   H     H_    0.163527 0.079854 0.502552 0.145474
H18   H     H_    0.034534 0.056170 0.409328 0.127171
H19   H     H_    0.206805 0.917945 0.455666 0.114680
H20   H     H_    0.951018 0.902204 0.456786 0.116231
N1    N     N_R   0.789562 0.769794 0.168655 0.097492
O21   O     O_R   0.631964 0.784995 0.209303 -0.422803
O22   O     O_R   0.778800 0.735998 0.095018 -0.389340
N2    N     N_R   0.910526 0.245513 0.864251 0.083145
O23   O     O_R   0.929041 0.313526 0.915247 -0.387184
O24   O     O_R   0.046194 0.184169 0.858954 -0.266062
N3    N     N_R   0.424339 0.196946 0.777649 0.082721
O25   O     O_R   0.340000 0.127336 0.743385 -0.379711
O26   O     O_R   0.335211 0.275495 0.780902 -0.344055
C37   C     C_3   0.239309 0.721298 0.986027 -0.225947
C38   C     C_3   0.320016 0.667079 0.058455 -0.364332
H21   H     H_    0.204282 0.628111 0.088777 0.128115
H22   H     H_    0.437923 0.620439 0.038402 0.161002
H23   H     H_    0.381432 0.714864 0.104149 0.199663
H24   H     H_    0.355825 0.768582 0.969024 0.153265
H25   H     H_    0.109563 0.758551 0.006523 0.126243

loop_
_geom_bond_atom_site_label_1
_geom_bond_atom_site_label_2
_geom_bond_distance
_ccdc_geom_bond_type
N3    O25   1.301181 A    
C21   C22   1.362374 D    
C11   C33   1.504729 S    
C7    C8    1.412094 A    
C28   C31   1.480213 S    
C12   C15   1.416566 A    
C2    C30   1.479191 S    
C1    O6    1.297681 A    
N1    O21   1.300261 A    
C37   H24   1.107222 S    
C26   H11   1.081545 S    
C17   C18   1.399982 A    
O14   V3    2.018308 S    
C16   C17   1.401884 A    
C24   N3    1.437484 S    
N2    O24   1.299314 A    
O5    C3    1.301896 A    
V2    O10   2.166304 S    
C6    C7    1.376602 A    
O14   C32   1.294837 A    
O12   V3    2.007993 S    
C29   C30   1.346917 D    
O8    V2    2.006081 S    
N2    O23   1.300502 A    
O17   V4    1.713843 S    
O15   C33   1.299621 A    
O13   V3    2.014624 S    
O18   C33   1.309087 A    
C27   H12   1.086127 S    
C11   C12   1.427681 A    
O19   C34   1.297651 A    
V3    O20   1.703932 S    
O7    V1    2.151066 S    
O17   V3    2.151094 S    
C35   H20   1.111874 S    
O9    C4    1.301220 A    
C3    C20   1.481784 S    
N1    O22   1.301257 A    
C23   C25   1.499435 S    
C27   C28   1.350719 D    
O15   V3    2.005695 S    
C15   H4    1.081628 S    
O11   C32   1.303747 A    
C29   H14   1.086133 S    
O12   C31   1.298984 A    
C35   C36   1.529753 S    
C12   C13   1.421652 A    
C16   H5    1.080929 S    
C7    H3    1.079650 S    
C38   H21   1.110781 S    
O4    C2    1.302002 A    
C17   C35   1.518493 S    
O13   C34   1.305012 A    
C13   C14   1.410918 A    
C8    C37   1.514060 S    
C28   H13   1.082342 S    
O2    C1    1.290997 A    
C36   H16   1.110860 S    
C19   C20   1.345560 D    
C38   H22   1.110989 S    
O9    V2    2.005038 S    
O18   V4    2.005011 S    
C21   N1    1.434487 S    
C5    C6    1.375522 A    
C27   C29   1.493117 S    
C4    C14   1.489138 S    
C36   H17   1.110852 S    
O3    C4    1.294677 A    
O1    V2    2.003719 S    
O6    V2    2.007612 S    
C35   H19   1.111777 S    
C30   H15   1.082461 S    
C5    H1    1.081816 S    
C6    H2    1.081643 S    
C22   H9    1.081970 S    
O2    V1    2.018272 S    
C23   C24   1.365160 D    
C13   C18   1.414913 A    
C25   C26   1.348039 D    
O1    C2    1.293532 A    
V4    O20   2.166214 S    
C23   N2    1.432992 S    
O5    V1    2.014552 S    
O8    C3    1.296419 A    
C37   H25   1.101794 S    
O16   V4    2.007434 S    
C24   C32   1.490434 S    
C5    C10   1.414128 A    
C18   H6    1.083320 S    
C9    C11   1.450243 A    
O7    V2    1.715041 S    
O4    V1    2.007879 S    
C19   H7    1.086380 S    
O3    V1    2.005710 S    
V1    O10   1.703970 S    
C38   H23   1.106347 S    
C20   H8    1.083772 S    
O11   V4    2.008006 S    
C37   C38   1.534607 S    
C22   C34   1.490152 S    
C19   C21   1.495926 S    
C36   H18   1.110658 S    
C25   H10   1.087402 S    
C31   O16   1.297078 A    
C8    C9    1.445997 A    
C10   C14   1.412805 A    
C15   C16   1.393420 A    
N3    O26   1.302388 A    
O19   V4    2.006019 S    
C9    C10   1.436027 A    
C1    C26   1.464077 S    
