data_mof_unit_21358.cif
_audit_creation_date              2012-12-10T20:27:59-0500
_audit_creation_method            fapswitch 2.2
_symmetry_space_group_name_H-M    P1
_symmetry_Int_Tables_number       1
_space_group_crystal_system       triclinic
_cell_length_a                    12.83706
_cell_length_b                    10.821384
_cell_length_c                    9.966228
_cell_angle_alpha                 88.274347
_cell_angle_beta                  99.597243
_cell_angle_gamma                 91.637364
_cell_volume                      1364.07058053

loop_
_atom_site_label
_atom_site_type_symbol
_atom_type_description
_atom_site_fract_x
_atom_site_fract_y
_atom_site_fract_z
_atom_type_partial_charge
C1    C     C_R   0.500189 0.261062 0.501521 0.899525
C2    C     C_R   0.525822 0.946188 0.380138 -0.008701
C3    C     C_R   0.501848 0.873420 0.492542 -0.244713
C4    C     C_R   0.297173 0.507091 0.470388 0.938955
C5    C     C_R   0.471188 0.934041 0.600421 0.037204
C6    C     C_3   0.498294 0.921809 0.751677 0.412426
C7    C     C_3   0.483943 0.062144 0.752199 -0.486092
C8    C     C_R   0.446308 0.409887 0.061759 0.153180
C9    C     C_R   0.569013 0.574349 0.082279 -0.038528
C10   C     C_R   0.567114 0.574264 0.938448 -0.115984
C11   C     C_R   0.445492 0.410788 0.919773 0.208497
C12   C     C_R   0.030255 0.523294 0.563628 0.001448
C13   C     C_3   0.330053 0.384649 0.888657 0.259860
C14   C     C_3   0.330971 0.383753 0.040961 -0.614850
C15   C     C_R   0.502875 0.740151 0.498217 0.850888
C16   C     C_R   0.701914 0.495766 0.529962 0.856278
C17   C     C_R   0.815138 0.487920 0.554727 -0.054818
C18   C     C_R   0.181567 0.516126 0.449555 -0.274952
C19   C     C_R   0.011156 0.440935 0.334262 0.379137
C20   C     C_R   0.116273 0.475359 0.330545 -0.141375
C21   C     C_R   0.134881 0.556843 0.557700 0.396768
C22   C     C_2   0.610913 0.881781 0.800262 0.373703
C23   C     C_R   0.969133 0.461788 0.452738 -0.017284
C24   C     C_2   0.648308 0.656724 0.162476 0.391062
C25   C     C_3   0.199658 0.251588 0.786167 0.121993
C26   C     C_3   0.176880 0.120965 0.735175 -0.834714
C27   C     C_3   0.894319 0.478040 0.137824 0.086906
C28   C     C_3   0.817178 0.415519 0.026382 -0.756606
C29   C     C_2   0.146586 0.496390 0.196607 0.420540
C30   C     C_3   0.194527 0.756622 0.590423 0.146012
C31   C     C_3   0.089912 0.823943 0.575318 -0.892289
C32   C     C_2   0.552273 0.896551 0.254902 0.373020
C33   C     C_3   0.424274 0.852096 0.939919 0.081050
C34   C     C_R   0.862921 0.437581 0.454506 -0.195169
C35   C     C_3   0.330370 0.779396 0.979785 -0.750710
C36   C     C_R   0.875591 0.541394 0.668998 -0.220123
C37   C     C_R   0.983821 0.556430 0.674978 -0.145111
C38   C     C_R   0.461652 0.058891 0.600467 0.016233
C39   C     C_R   0.498684 0.130240 0.500186 -0.120327
C40   C     C_R   0.526314 0.073721 0.387245 -0.196037
H1    H     H_    0.814565 0.390545 0.370775 0.195021
H2    H     H_    0.549442 0.128959 0.303895 0.205875
H3    H     H_    0.646333 0.813365 0.745893 0.058336
H4    H     H_    0.647310 0.673394 0.267622 0.141397
H5    H     H_    0.173334 0.317537 0.700183 0.145416
H6    H     H_    0.153609 0.265663 0.869673 0.148451
H7    H     H_    0.202523 0.052465 0.818556 0.260370
H8    H     H_    0.090793 0.107676 0.699040 0.222144
H9    H     H_    0.219941 0.105284 0.649540 0.255144
H10   H     H_    0.948892 0.538765 0.088413 0.159350
H11   H     H_    0.848801 0.536724 0.195794 0.179986
H12   H     H_    0.413219 0.088255 0.793709 0.254504
H13   H     H_    0.757708 0.359032 0.071866 0.257898
H14   H     H_    0.775862 0.486534 0.956133 0.212549
H15   H     H_    0.860314 0.355033 0.967351 0.258068
H16   H     H_    0.125262 0.428530 0.118045 0.076716
H17   H     H_    0.222722 0.754966 0.490643 0.137002
H18   H     H_    0.253248 0.812820 0.657166 0.233513
H19   H     H_    0.062945 0.827110 0.675366 0.264346
H20   H     H_    0.101019 0.920001 0.537109 0.232612
H21   H     H_    0.028407 0.777384 0.500946 0.265814
H22   H     H_    0.507792 0.819140 0.208596 0.064023
H23   H     H_    0.556755 0.117223 0.790504 0.215755
H24   H     H_    0.422203 0.948431 0.974997 0.164725
H25   H     H_    0.497587 0.807857 0.989813 0.188866
H26   H     H_    0.255418 0.820564 0.928317 0.257659
H27   H     H_    0.332254 0.681744 0.949245 0.264854
H28   H     H_    0.332849 0.781452 0.091517 0.228209
H29   H     H_    0.619534 0.634829 0.891247 0.181421
H30   H     H_    0.286191 0.462309 0.831042 0.139865
H31   H     H_    0.291854 0.464746 0.068984 0.221521
H32   H     H_    0.310045 0.293132 0.086255 0.224011
H33   H     H_    0.838731 0.578035 0.749016 0.160999
H34   H     H_    0.029505 0.601037 0.762324 0.188659
N1    N     N_R   0.499290 0.499140 0.142710 -0.145678
N2    N     N_R   0.499290 0.499180 0.857070 -0.152654
O1    O     O_R   0.500010 0.316790 0.614690 -0.597757
O2    O     O_2   0.716593 0.710922 0.109903 -0.555498
O3    O     O_3   0.309071 0.266719 0.832692 -0.601460
O4    O     O_3   0.950181 0.386219 0.222382 -0.621856
O5    O     O_2   0.185813 0.596148 0.168802 -0.599739
O6    O     O_3   0.188759 0.637243 0.652453 -0.625838
O7    O     O_2   0.621095 0.945661 0.199001 -0.508945
O8    O     O_3   0.418467 0.847764 0.798316 -0.626143
O9    O     O_R   0.500000 0.316760 0.385350 -0.628543
O10   O     O_R   0.346360 0.499990 0.595720 -0.585047
O11   O     O_R   0.346350 0.499960 0.366370 -0.584404
O12   O     O_R   0.500000 0.683240 0.614650 -0.596787
O13   O     O_R   0.499990 0.683210 0.385310 -0.663339
O14   O     O_R   0.653650 0.500040 0.633630 -0.629043
O15   O     O_R   0.653640 0.500010 0.404280 -0.658620
O16   O     O_2   0.663283 0.926011 0.901867 -0.507655
Zn1   Zn    Zn3+2 0.500010 0.500020 0.653130 0.984404
Zn2   Zn    Zn3+2 0.499990 0.499980 0.346870 0.943220

loop_
_geom_bond_atom_site_label_1
_geom_bond_atom_site_label_2
_ccdc_geom_bond_type
C37   H34   S    
C13   O3    S    
C16   O14   A    
C18   C21   A    
C1    O1    A    
C14   H31   S    
C31   H21   S    
C19   C20   A    
C33   H25   S    
C4    O11   A    
C12   C23   A    
C5    C6    S    
C36   C37   A    
C7    H12   S    
C11   N2    A    
C8    C11   A    
C30   C31   S    
C4    O10   A    
C13   H30   S    
C6    C22   S    
O11   Zn2   S    
C12   C37   A    
C2    C32   S    
C31   H19   S    
O13   Zn2   S    
C10   N2    A    
C16   C17   S    
C17   C36   A    
C9    C10   A    
C27   H10   S    
C26   H8    S    
C4    C18   S    
C40   H2    S    
C5    C38   A    
C34   H1    S    
C28   H15   S    
C27   H11   S    
C20   C29   S    
C1    O9    A    
C6    O8    S    
C27   O4    S    
C26   H9    S    
C39   C40   A    
C28   H14   S    
C35   H26   S    
C25   C26   S    
C12   C21   A    
C8    N1    A    
C30   H17   S    
C31   H20   S    
C30   O6    S    
C19   C23   A    
C29   O5    D    
O10   Zn1   S    
N2    Zn1   S    
C15   O13   A    
O9    Zn2   S    
C22   H3    S    
C35   H27   S    
C23   C34   A    
C7    H23   S    
C26   H7    S    
C24   O2    D    
C24   H4    S    
C17   C34   A    
C25   H5    S    
C3    C15   S    
O14   Zn1   S    
C32   O7    D    
O12   Zn1   S    
C8    C14   S    
C25   O3    S    
C14   H32   S    
C3    C5    A    
C28   H13   S    
C9    C24   S    
C6    C7    S    
C29   H16   S    
C2    C3    A    
C32   H22   S    
O15   Zn2   S    
C11   C13   S    
C38   C39   A    
C35   H28   S    
C33   H24   S    
C30   H18   S    
O1    Zn1   S    
C33   C35   S    
C7    C38   S    
C18   C20   A    
C19   O4    S    
C33   O8    S    
C36   H33   S    
C1    C39   S    
C10   H29   S    
C2    C40   A    
C21   O6    S    
C16   O15   A    
C27   C28   S    
C22   O16   D    
C9    N1    A    
C13   C14   S    
C25   H6    S    
N1    Zn2   S    
C15   O12   A    
