data_mof_unit_28833.cif
_audit_creation_date              2012-12-10T17:50:32-0500
_audit_creation_method            fapswitch 2.2
_symmetry_space_group_name_H-M    P1
_symmetry_Int_Tables_number       1
_space_group_crystal_system       triclinic
_cell_length_a                    15.729862
_cell_length_b                    10.72526
_cell_length_c                    9.891224
_cell_angle_alpha                 90.789309
_cell_angle_beta                  89.953688
_cell_angle_gamma                 91.593621
_cell_volume                      1667.91347791

loop_
_atom_site_label
_atom_site_type_symbol
_atom_type_description
_atom_site_fract_x
_atom_site_fract_y
_atom_site_fract_z
_atom_type_partial_charge
C1    C     C_R   0.507882 0.260885 0.499786 0.862459
C2    C     C_R   0.555362 0.069406 0.868252 0.075151
C3    C     C_R   0.511389 0.955619 0.878982 -0.207131
C4    C     C_R   0.337980 0.499510 0.500036 0.890633
C5    C     C_R   0.483998 0.891899 0.762377 -0.186098
C6    C     C_R   0.500159 0.941540 0.632073 0.101910
C7    C     C_R   0.528735 0.065658 0.624600 0.077395
C8    C     C_R   0.516942 0.128146 0.501088 -0.107375
C9    C     C_R   0.497831 0.062274 0.381915 -0.209184
C10   C     C_R   0.487350 0.935420 0.384738 -0.220119
C11   C     C_R   0.489376 0.873787 0.508160 -0.123591
C12   C     C_3   0.082971 0.499237 0.500436 0.174602
C13   C     C_R   0.391358 0.332708 0.138206 -0.156950
C14   C     C_R   0.338645 0.249005 0.066892 -0.207283
C15   C     C_R   0.338187 0.249379 0.927016 -0.186019
C16   C     C_R   0.494287 0.739992 0.502020 0.884758
C17   C     C_R   0.390519 0.333333 0.857699 -0.143068
C18   C     C_R   0.446322 0.417538 0.926567 0.161720
C19   C     C_R   0.446518 0.417408 0.071288 0.178784
C20   C     C_R   0.551064 0.579227 0.072671 -0.110461
C21   C     C_R   0.551074 0.579149 0.929420 -0.127997
C22   C     C_R   0.662030 0.500247 0.499973 0.909956
C23   C     C_3   0.974263 0.599507 0.567871 0.033096
C24   C     C_3   0.969682 0.395563 0.560155 -0.165014
C25   C     C_3   0.026232 0.398297 0.431691 -0.188146
C26   C     C_1   0.249092 0.498974 0.500214 -0.186416
C27   C     C_1   0.750930 0.499908 0.499850 -0.174487
C28   C     C_3   0.028143 0.496541 0.629138 -0.242418
C29   C     C_3   0.065777 0.719258 0.373323 -0.927392
C30   C     C_1   0.944286 0.709279 0.642134 0.155002
C31   C     C_1   0.587191 0.133422 0.987569 0.132398
C32   C     C_3   0.917101 0.499801 0.499954 0.120226
C33   C     C_3   0.030053 0.602459 0.440821 0.202269
C34   C     C_3   0.971961 0.502560 0.371295 -0.179108
C35   C     C_1   0.173825 0.498773 0.500397 -0.055620
C36   C     C_1   0.826204 0.499700 0.499815 -0.052097
C37   C     C_R   0.564780 0.123895 0.741609 -0.193622
H1    H     H_    0.049659 0.315456 0.376060 0.144500
H2    H     H_    0.592684 0.643880 0.876332 0.158156
H3    H     H_    0.942847 0.310493 0.608792 0.151484
H4    H     H_    0.947348 0.505494 0.266252 0.147938
H5    H     H_    0.052830 0.494520 0.734196 0.150022
H6    H     H_    0.489664 0.108619 0.286344 0.183809
H7    H     H_    0.600300 0.211575 0.735583 0.165582
H8    H     H_    0.012740 0.777493 0.339773 0.247434
H9    H     H_    0.106210 0.773595 0.446156 0.245701
H10   H     H_    0.104627 0.692578 0.284359 0.248295
H11   H     H_    0.499285 0.915134 0.977184 0.137930
H12   H     H_    0.447017 0.806981 0.777427 0.177803
H13   H     H_    0.476816 0.885844 0.289732 0.169910
H14   H     H_    0.592714 0.643973 0.127473 0.149938
H15   H     H_    0.386550 0.328697 0.245302 0.203155
H16   H     H_    0.297249 0.184356 0.120684 0.149849
H17   H     H_    0.296409 0.185041 0.871696 0.150716
H18   H     H_    0.384725 0.329861 0.750626 0.205835
N1    N     N_R   0.499210 0.498800 0.142780 -0.119654
N2    N     N_R   0.499180 0.498720 0.857170 -0.126675
N3    N     N_1   0.920628 0.795817 0.700617 -0.207445
N4    N     N_1   0.612730 0.185123 0.083304 -0.198056
O1    O     O_R   0.500000 0.316780 0.614690 -0.650788
O2    O     O_R   0.499990 0.316750 0.385360 -0.634541
O3    O     O_R   0.376780 0.500000 0.614650 -0.635718
O4    O     O_R   0.376770 0.499980 0.385310 -0.632155
O5    O     O_R   0.500010 0.683250 0.614640 -0.631268
O6    O     O_R   0.500000 0.683220 0.385310 -0.620305
O7    O     O_R   0.623230 0.500020 0.614690 -0.614298
O8    O     O_R   0.623220 0.500000 0.385350 -0.603402
Zn1   Zn    Zn3+2 0.500010 0.500020 0.653130 0.928513
Zn2   Zn    Zn3+2 0.499990 0.499980 0.346870 0.946970

loop_
_geom_bond_atom_site_label_1
_geom_bond_atom_site_label_2
_ccdc_geom_bond_type
C19   N1    A    
C8    C9    A    
C29   H9    S    
C4    C26   S    
C24   C32   S    
C21   N2    A    
C6    C7    A    
C29   C33   S    
C27   C36   T    
C1    C8    S    
C32   C36   S    
C9    C10   A    
C17   H18   S    
C18   N2    A    
O7    Zn1   S    
C2    C37   A    
O3    Zn1   S    
C12   C25   S    
C20   N1    A    
C23   C32   S    
C22   O7    A    
C37   H7    S    
C33   C34   S    
C7    C37   A    
C7    C8    A    
C10   H13   S    
C23   C28   S    
C24   C25   S    
C12   C35   S    
C4    O4    A    
C5    H12   S    
C34   H4    S    
C29   H10   S    
O6    Zn2   S    
C30   N3    T    
C28   H5    S    
C24   H3    S    
C12   C28   S    
C2    C3    A    
C20   H14   S    
C22   C27   S    
O5    Zn1   S    
C5    C6    A    
C25   H1    S    
C22   O8    A    
C9    H6    S    
C29   H8    S    
C10   C11   A    
C13   C19   A    
N2    Zn1   S    
C31   N4    T    
C13   H15   S    
C23   C30   S    
C4    O3    A    
C3    H11   S    
C6    C11   A    
C14   H16   S    
C20   C21   A    
O1    Zn1   S    
C24   C28   S    
C17   C18   A    
N1    Zn2   S    
C11   C16   S    
C1    O1    A    
O2    Zn2   S    
C26   C35   T    
C15   C17   A    
C14   C15   A    
C18   C19   A    
C16   O6    A    
C16   O5    A    
C3    C5    A    
C12   C33   S    
C13   C14   A    
C15   H17   S    
C21   H2    S    
C25   C34   S    
C23   C33   S    
O4    Zn2   S    
C32   C34   S    
C2    C31   S    
O8    Zn2   S    
C1    O2    A    
