data_mof_unit_46616.cif
_audit_creation_date              2012-12-11T15:42:51-0500
_audit_creation_method            fapswitch 2.2
_symmetry_space_group_name_H-M    P1
_symmetry_Int_Tables_number       1
_space_group_crystal_system       triclinic
_cell_length_a                    6.935788
_cell_length_b                    14.538632
_cell_length_c                    16.184113
_cell_angle_alpha                 90.515775
_cell_angle_beta                  90.040561
_cell_angle_gamma                 90.024553
_cell_volume                      1631.88860236

loop_
_atom_site_label
_atom_site_type_symbol
_atom_type_description
_atom_site_fract_x
_atom_site_fract_y
_atom_site_fract_z
_atom_type_partial_charge
O1    O     O_R   0.505810 0.583360 0.413880 -0.522011
O2    O     O_R   0.175870 0.595480 0.585520 -0.554143
O3    O     O_R   0.005540 0.416640 0.586120 -0.545032
C1    C     C_R   0.345155 0.616292 0.615595 0.738682
O4    O     O_R   0.176100 0.594390 0.414490 -0.548836
O5    O     O_R   0.005770 0.415540 0.413870 -0.521205
C2    C     C_R   0.345258 0.615372 0.384862 0.725785
O6    O     O_R   0.505580 0.584460 0.586130 -0.519784
O7    O     O_3   0.339190 0.441320 0.500000 -0.373429
V1    V     V_3+5 0.064350 0.510890 0.500000 1.389210
O8    O     O_R   0.676050 0.404520 0.414480 -0.549104
C3    C     C_R   0.845141 0.383245 0.384830 0.728457
O9    O     O_R   0.675830 0.405610 0.585510 -0.539034
C4    C     C_R   0.845598 0.381448 0.611676 0.660733
V2    V     V_3+5 0.564340 0.489110 0.500000 1.420938
O10   O     O_3   0.839370 0.558680 0.500000 -0.373867
C5    C     C_2   0.717735 0.213632 0.787099 0.326116
C6    C     C_2   0.881166 0.186349 0.826385 -0.296705
H1    H     H_    0.015931 0.221600 0.814190 0.146927
C7    C     C_2   0.719888 0.290927 0.727131 -0.218421
C8    C     C_2   0.861213 0.305011 0.671531 0.164289
H2    H     H_    0.592959 0.334716 0.725756 0.101725
C9    C     C_R   0.012970 0.255952 0.190160 -0.212729
H3    H     H_    0.123680 0.262176 0.143322 0.122459
C10   C     C_R   0.002747 0.322120 0.254040 0.290007
C11   C     C_R   0.857513 0.315613 0.315320 -0.077536
C12   C     C_R   0.723368 0.243362 0.309622 -0.237769
H4    H     H_    0.611450 0.236312 0.355754 0.128050
C13   C     C_R   0.732857 0.178821 0.244971 -0.153356
H5    H     H_    0.627404 0.123883 0.242509 0.122990
C14   C     C_R   0.879224 0.183802 0.185215 -0.077481
C15   C     C_R   0.227980 0.754773 0.694215 -0.244640
H6    H     H_    0.119250 0.765174 0.647149 0.136391
C16   C     C_R   0.238786 0.816925 0.760591 -0.185170
H7    H     H_    0.139039 0.874233 0.762486 0.139855
C17   C     C_R   0.378342 0.806938 0.822927 -0.167123
C18   C     C_R   0.504775 0.730196 0.819060 0.298570
C19   C     C_R   0.498620 0.669669 0.750118 0.263356
C20   C     C_R   0.358270 0.681374 0.687271 -0.142479
C21   C     C_R   0.223532 0.754272 0.309683 -0.239096
H8    H     H_    0.111528 0.762022 0.355796 0.126776
C22   C     C_R   0.232912 0.817805 0.245090 -0.150676
H9    H     H_    0.127286 0.872580 0.242770 0.122902
C23   C     C_R   0.379286 0.812108 0.185239 -0.077477
C24   C     C_R   0.513084 0.740048 0.190166 -0.212643
H10   H     H_    0.623851 0.733095 0.143334 0.124174
C25   C     C_R   0.502899 0.674843 0.253970 0.291251
C26   C     C_R   0.357715 0.682133 0.315365 -0.077126
O11   O     O_R   0.230120 0.912300 0.917180 -0.535225
O12   O     O_R   0.559740 0.902430 0.088770 -0.546098
O13   O     O_R   0.729930 0.081310 0.089370 -0.541292
C27   C     C_R   0.390653 0.880392 0.117449 0.682835
O14   O     O_R   0.559840 0.901330 0.917750 -0.533828
O15   O     O_R   0.730030 0.080210 0.917120 -0.508228
C28   C     C_R   0.390459 0.877655 0.890030 0.693232
O16   O     O_R   0.230020 0.913400 0.089430 -0.539846
O17   O     O_3   0.396460 0.055470 0.003290 -0.361383
V3    V     V_3+5 0.671360 0.985960 0.003250 1.445290
O18   O     O_R   0.059740 0.091300 0.917690 -0.548177
C29   C     C_R   0.890180 0.113899 0.890020 0.737255
O19   O     O_R   0.059640 0.092400 0.088720 -0.545171
C30   C     C_R   0.890584 0.114655 0.117419 0.687129
V4    V     V_3+5 0.171350 0.007820 0.003190 1.423709
O20   O     O_3   0.896380 0.938200 0.003220 -0.367096
N1    N     N_2   0.535671 0.173569 0.806308 -0.495929
H11   H     H_    0.424358 0.220590 0.807963 0.245100
C31   C     C_3   0.487633 0.094050 0.755995 -0.456550
H12   H     H_    0.349941 0.063872 0.777938 0.183284
H13   H     H_    0.601817 0.040751 0.760679 0.184173
H14   H     H_    0.470303 0.114294 0.690333 0.179857
O21   O     O_3   0.633130 0.710482 0.881793 -0.651994
H15   H     H_    0.582783 0.735814 0.934470 0.279602
N2    N     N_2   0.624609 0.592399 0.747428 -0.525822
H16   H     H_    0.620831 0.553725 0.800528 0.262093
C32   C     C_3   0.819756 0.613860 0.722649 -0.428088
H17   H     H_    0.891218 0.658097 0.769872 0.210353
H18   H     H_    0.820086 0.649703 0.662335 0.197422
H19   H     H_    0.903693 0.549254 0.716089 0.170121
N3    N     N_2   0.631582 0.598801 0.252960 -0.546526
H20   H     H_    0.630319 0.563512 0.197377 0.242045
C33   C     C_3   0.825428 0.621043 0.279002 -0.480012
H21   H     H_    0.895120 0.667138 0.233495 0.178913
H22   H     H_    0.911365 0.556973 0.283272 0.205200
H23   H     H_    0.823754 0.654942 0.340773 0.210545
O22   O     O_3   0.016201 0.245115 0.667921 -0.656769
H24   H     H_    0.098066 0.260963 0.619969 0.288997
N4    N     N_2   0.131432 0.398211 0.253280 -0.545789
H25   H     H_    0.129782 0.432756 0.197885 0.240909
C34   C     C_3   0.325474 0.376400 0.278961 -0.479798
H26   H     H_    0.394859 0.329668 0.233161 0.177189
H27   H     H_    0.324215 0.343380 0.340576 0.210885
H28   H     H_    0.411482 0.440555 0.283406 0.204709

loop_
_geom_bond_atom_site_label_1
_geom_bond_atom_site_label_2
_ccdc_geom_bond_type
N4    H25   S    
O11   V4    S    
C12   C13   A    
N2    H16   S    
C25   N3    S    
C1    O6    A    
C33   H21   S    
O15   C29   A    
C24   H10   S    
C11   C12   A    
C13   H5    S    
C4    C8    S    
C17   C18   A    
C16   H7    S    
O5    C3    A    
C19   C20   A    
C15   C20   A    
V2    O10   S    
C10   N4    S    
C5    C7    S    
C6    H1    S    
C24   C25   A    
O19   V4    S    
O8    V2    S    
N1    C31   S    
O12   C27   A    
C9    H3    S    
O1    V2    S    
C34   H27   S    
O7    V1    S    
C23   C27   S    
C21   C22   A    
O18   C29   A    
O9    C4    A    
N2    C32   S    
C14   C30   S    
O13   C30   A    
C22   C23   A    
C33   H22   S    
O17   V4    S    
O14   C28   A    
V3    O20   S    
C8    O22   S    
C31   H12   S    
O12   V3    S    
O4    C2    A    
C10   C11   A    
O11   C28   A    
N3    H20   S    
C3    C11   S    
C31   H13   S    
C9    C14   A    
O2    C1    A    
C32   H17   S    
C18   C19   A    
C25   C26   A    
C1    C20   S    
O8    C3    A    
C5    C6    D    
O16   V4    S    
O13   V3    S    
C34   H28   S    
C32   H18   S    
O22   H24   S    
O3    C4    A    
C6    C29   S    
C21   H8    S    
C7    H2    S    
O6    V2    S    
C18   O21   S    
C22   H9    S    
O2    V1    S    
C33   H23   S    
C23   C24   A    
N3    C33   S    
O15   V3    S    
C21   C26   A    
O1    C2    A    
C5    N1    S    
O5    V1    S    
O14   V3    S    
O18   V4    S    
C31   H14   S    
C15   H6    S    
O9    V2    S    
O7    V2    S    
O4    V1    S    
C13   C14   A    
O3    V1    S    
V1    O10   S    
C2    C26   S    
O17   V3    S    
C16   C17   A    
C9    C10   A    
O19   C30   A    
C32   H19   S    
V4    O20   S    
O21   H15   S    
C7    C8    D    
N1    H11   S    
C12   H4    S    
C17   C28   S    
N4    C34   S    
C34   H26   S    
C27   O16   A    
C15   C16   A    
C19   N2    S    
