data_mof_unit_28891.cif
_audit_creation_date              2012-10-26T20:58:16-0400
_audit_creation_method            fapswitch 2.2
_symmetry_space_group_name_H-M    P1
_symmetry_Int_Tables_number       1
_space_group_crystal_system       triclinic
_cell_length_a                    10.615624
_cell_length_b                    14.713294
_cell_length_c                    14.717793
_cell_angle_alpha                 64.984149
_cell_angle_beta                  103.450594
_cell_angle_gamma                 103.02005
_cell_volume                      2004.87669689

loop_
_atom_site_label
_atom_site_type_symbol
_atom_type_description
_atom_site_fract_x
_atom_site_fract_y
_atom_site_fract_z
_atom_type_partial_charge
C1    C     C_R   0.477342 0.119722 0.312174 0.546658
C2    C     C_R   0.464260 0.532596 0.945580 0.038857
C3    C     C_R   0.440197 0.491098 0.871160 -0.148108
C4    C     C_R   0.463720 0.506164 0.120447 -0.146075
C5    C     C_R   0.422796 0.387313 0.897442 -0.104629
C6    C     C_R   0.477692 0.609860 0.093845 -0.104707
C7    C     C_R   0.714862 0.283347 0.670684 -0.134140
C8    C     C_R   0.285777 0.717023 0.328780 -0.127603
C9    C     C_R   0.682099 0.202373 0.640175 0.056180
C10   C     C_R   0.318434 0.797914 0.359424 0.059389
C11   C     C_R   0.519392 0.285652 0.508352 0.043903
C12   C     C_R   0.520403 0.880307 0.687774 0.545696
C13   C     C_R   0.480259 0.714184 0.491831 0.041668
C14   C     C_R   0.548595 0.371237 0.535138 0.008007
C15   C     C_R   0.451145 0.628678 0.464918 0.006655
C16   C     C_R   0.259409 0.000170 0.499955 0.553653
C17   C     C_R   0.740601 0.999811 0.500079 0.554655
C18   C     C_R   0.648111 0.367607 0.619002 0.045528
C19   C     C_R   0.352050 0.632528 0.380754 0.046424
C20   C     C_R   0.482668 0.458982 0.483034 0.027707
C21   C     C_R   0.516919 0.540866 0.517104 0.025324
C22   C     C_R   0.615462 0.532035 0.602204 -0.140152
C23   C     C_R   0.470989 0.291251 0.177538 -0.152819
C24   C     C_R   0.384124 0.467817 0.397936 -0.142003
C25   C     C_R   0.679835 0.447479 0.651444 -0.117721
C26   C     C_R   0.320237 0.552617 0.348357 -0.124126
C27   C     C_3   0.009579 0.923559 0.476048 -0.108821
C28   C     C_3   0.990461 0.076402 0.524034 -0.107638
C29   C     C_3   0.932155 0.012450 0.407286 -0.119406
C30   C     C_3   0.067891 0.987511 0.592795 -0.117975
C31   C     C_3   0.877606 0.999971 0.500121 0.040151
C32   C     C_3   0.122427 0.999991 0.499956 0.040228
C33   C     C_3   0.952800 0.911196 0.568921 -0.126607
C34   C     C_R   0.507961 0.708608 0.822164 -0.148016
C35   C     C_3   0.047240 0.088766 0.431160 -0.126701
C36   C     C_R   0.460186 0.187141 0.204185 -0.050823
C37   C     C_R   0.520469 0.812822 0.795094 -0.049651
C38   C     C_R   0.419918 0.214594 0.026177 0.233776
C39   C     C_R   0.510022 0.783617 0.968193 0.233897
C40   C     C_R   0.433024 0.149004 0.128241 -0.086508
C41   C     C_R   0.522591 0.850166 0.868494 -0.087169
C42   C     C_R   0.453266 0.359263 0.075672 -0.001164
C43   C     C_R   0.487489 0.639169 0.920086 -0.000078
C44   C     C_R   0.431569 0.320188 0.999091 0.055214
C45   C     C_R   0.492075 0.677729 0.994758 0.055114
C46   C     C_R   0.461349 0.465360 0.048465 0.039702
Cl1   Cl    Cl    0.390653 0.160544 0.935276 -0.592720
Cl2   Cl    Cl    0.514220 0.836852 0.056322 -0.595017
Cu1   Cu    Cu3+1 0.465750 0.918270 0.475680 0.946075
Cu2   Cu    Cu3+1 0.534250 0.081730 0.524320 0.945728
H1    H     H_    0.873414 0.022566 0.331516 0.133475
H2    H     H_    0.353879 0.410293 0.367152 0.087004
H3    H     H_    0.019929 0.860899 0.456339 0.131266
H4    H     H_    0.980120 0.139062 0.543747 0.133000
H5    H     H_    0.910892 0.838607 0.625114 0.113624
H6    H     H_    0.089167 0.161349 0.374968 0.113518
H7    H     H_    0.404304 0.360528 0.836809 0.179289
H8    H     H_    0.477938 0.636072 0.152412 0.178794
H9    H     H_    0.516014 0.683512 0.765123 0.125393
H10   H     H_    0.497616 0.318020 0.238039 0.132185
H11   H     H_    0.532060 0.931010 0.848206 0.181324
H12   H     H_    0.126657 0.977388 0.668562 0.137444
H13   H     H_    0.424162 0.068288 0.148049 0.182860
H14   H     H_    0.429499 0.536667 0.790870 0.107200
H15   H     H_    0.450097 0.459718 0.197892 0.099374
H16   H     H_    0.755202 0.444429 0.716198 0.117824
H17   H     H_    0.245183 0.555812 0.283389 0.117048
H18   H     H_    0.556182 0.719079 0.552989 0.115437
H19   H     H_    0.443153 0.280581 0.447429 0.115477
H20   H     H_    0.268284 0.863600 0.318680 0.131996
H21   H     H_    0.732601 0.136857 0.680698 0.132923
H22   H     H_    0.791345 0.279781 0.734862 0.110797
H23   H     H_    0.209728 0.720821 0.264295 0.114712
H24   H     H_    0.645467 0.589422 0.633179 0.090439
N1    N     N_R   0.585750 0.204560 0.560800 -0.234524
N2    N     N_R   0.414250 0.795440 0.439200 -0.234822
O1    O     O_R   0.454850 0.022100 0.338110 -0.501701
O2    O     O_R   0.545150 0.977900 0.661890 -0.502542
O3    O     O_R   0.512700 0.160150 0.379180 -0.512156
O4    O     O_R   0.487300 0.839850 0.620820 -0.511632
O5    O     O_R   0.287930 0.931000 0.479440 -0.508800
O6    O     O_R   0.712070 0.069000 0.520560 -0.507747
O7    O     O_R   0.345780 0.069050 0.520520 -0.499440
O8    O     O_R   0.654220 0.930950 0.479480 -0.498855

loop_
_geom_bond_atom_site_label_1
_geom_bond_atom_site_label_2
_ccdc_geom_bond_type
C24   H2    S    
C38   C40   A    
C33   H5    S    
C6    C45   A    
C27   C29   S    
C34   C37   A    
C1    O1    A    
C6    H8    S    
C41   H11   S    
Cu2   O3    S    
C39   C41   A    
C4    C46   A    
C3    H14   S    
C27   C33   S    
C15   C19   A    
C23   C42   A    
C26   H17   S    
Cu1   O8    S    
C24   C26   A    
C40   H13   S    
C4    H15   S    
C11   C14   A    
C17   O6    A    
C42   C46   A    
Cu1   O5    S    
C12   C37   S    
C19   C26   A    
C14   C18   A    
C16   O5    A    
C10   N2    A    
C20   C24   A    
C28   C35   S    
C22   C25   A    
C12   O2    A    
C31   C33   S    
C39   C45   A    
C35   H6    S    
C21   C22   A    
C18   C25   A    
C42   C44   A    
Cu2   O2    S    
Cu2   O7    S    
C23   H10   S    
C8    C19   A    
C34   C43   A    
C32   C35   S    
C14   C20   A    
C36   C40   A    
C4    C6    A    
C7    H22   S    
C28   H4    S    
C16   O7    A    
C2    C46   A    
C38   C44   A    
C13   N2    A    
C2    C43   A    
C7    C18   A    
C11   H19   S    
Cu1   N2    S    
C43   C45   A    
C38   Cl1   S    
C10   H20   S    
C5    C44   A    
Cu1   Cu2   S    
C30   H12   S    
C13   C15   A    
C34   H9    S    
C17   C31   S    
C22   H24   S    
Cu2   O6    S    
C29   H1    S    
C7    C9    A    
C30   C33   S    
C27   C32   S    
C28   C31   S    
C25   H16   S    
C9    H21   S    
C3    C5    A    
C27   H3    S    
C16   C32   S    
C29   C35   S    
Cu1   O4    S    
C5    H7    S    
C17   O8    A    
C28   C30   S    
C2    C3    A    
C29   C31   S    
C11   N1    A    
Cu2   N1    S    
C30   C32   S    
C1    O3    A    
C12   O4    A    
C8    H23   S    
Cu1   O1    S    
C37   C41   A    
C15   C21   A    
C20   C21   A    
C8    C10   A    
C23   C36   A    
C9    N1    A    
C1    C36   S    
C39   Cl2   S    
C13   H18   S    
