data_mof_unit_35295.cif
_audit_creation_date              2012-12-10T17:10:23-0500
_audit_creation_method            fapswitch 2.2
_symmetry_space_group_name_H-M    P1
_symmetry_Int_Tables_number       1
_space_group_crystal_system       triclinic
_cell_length_a                    10.932772
_cell_length_b                    13.114914
_cell_length_c                    11.835959
_cell_angle_alpha                 104.043631
_cell_angle_beta                  92.759429
_cell_angle_gamma                 89.424295
_cell_volume                      1644.43318976

loop_
_atom_site_label
_atom_site_type_symbol
_atom_type_description
_atom_site_fract_x
_atom_site_fract_y
_atom_site_fract_z
_atom_type_partial_charge
C1    C     C_R   0.501769 0.298350 0.475295 0.967014
C2    C     C_R   0.498080 0.701635 0.524251 0.991980
C3    C     C_R   0.485941 0.816606 0.538613 -0.270636
C4    C     C_R   0.511341 0.182957 0.457991 -0.218809
C5    C     C_R   0.648691 0.035832 0.455591 -0.091905
C6    C     C_R   0.344359 0.957868 0.524170 -0.181859
C7    C     C_R   0.627013 0.134698 0.436888 0.341241
C8    C     C_R   0.367758 0.862013 0.550743 0.273583
C9    C     C_R   0.413410 0.123703 0.485223 0.263662
C10   C     C_R   0.582390 0.875150 0.507748 0.327903
C11   C     C_R   0.437313 0.019670 0.498582 -0.073903
C12   C     C_R   0.557091 0.977014 0.488689 -0.067719
C13   C     C_R   0.385347 0.402044 0.012413 0.275012
C14   C     C_R   0.613795 0.598482 0.988085 0.243160
C15   C     C_R   0.408252 0.399860 0.132314 0.379190
C16   C     C_R   0.590579 0.600628 0.868249 0.439619
C17   C     C_R   0.535962 0.549838 0.161993 0.038546
C18   C     C_R   0.464400 0.449938 0.838115 0.023944
C19   C     C_R   0.538350 0.537069 0.037992 -0.167194
C20   C     C_R   0.461200 0.463139 0.962278 -0.161824
C21   C     C_R   0.262493 0.511305 0.503389 0.914323
C22   C     C_R   0.737139 0.486894 0.496251 0.898004
C23   C     C_R   0.119517 0.556305 0.723662 -0.020187
C24   C     C_R   0.880030 0.440613 0.275914 -0.036740
C25   C     C_R   0.059173 0.547331 0.821794 -0.020464
C26   C     C_R   0.940582 0.448723 0.177618 -0.041796
C27   C     C_R   0.950386 0.491832 0.808277 -0.062668
C28   C     C_R   0.049065 0.504574 0.190930 -0.083576
C29   C     C_R   0.894103 0.458244 0.697981 -0.038805
C30   C     C_R   0.105235 0.538636 0.301164 -0.086008
C31   C     C_R   0.942795 0.484627 0.599533 0.083729
C32   C     C_R   0.056840 0.512267 0.399799 0.057817
C33   C     C_R   0.065106 0.520370 0.609545 0.068513
C34   C     C_R   0.934563 0.476538 0.389893 0.055736
C35   C     C_R   0.873029 0.475563 0.492841 -0.133295
C36   C     C_R   0.126594 0.521615 0.506585 -0.091921
Cu1   Cu    Cu3+1 0.509250 0.507730 0.615930 1.084008
Cu2   Cu    Cu3+1 0.490750 0.492270 0.384070 1.080087
H1    H     H_    0.090137 0.521136 0.115867 0.159725
H2    H     H_    0.909076 0.475356 0.883277 0.148377
H3    H     H_    0.207245 0.593807 0.741297 0.205725
H4    H     H_    0.791802 0.404272 0.258607 0.207391
H5    H     H_    0.740782 0.007040 0.445070 0.264207
H6    H     H_    0.250143 0.982066 0.522573 0.257657
N1    N     N_R   0.523180 0.519350 0.790130 -0.277176
N2    N     N_R   0.476820 0.480650 0.209870 -0.276072
O1    O     O_R   0.506570 0.354460 0.582000 -0.623040
O2    O     O_R   0.493430 0.645540 0.418000 -0.609044
O3    O     O_R   0.490940 0.341410 0.386200 -0.462419
O4    O     O_R   0.509060 0.658590 0.613800 -0.472341
O5    O     O_R   0.327470 0.506520 0.597900 -0.566342
O6    O     O_R   0.672530 0.493480 0.402100 -0.566750
O7    O     O_R   0.311840 0.493460 0.402100 -0.597965
O8    O     O_R   0.688160 0.506540 0.597900 -0.580590
S1    S     S_3+6 0.261806 0.329876 0.924879 0.011242
O9    O     O_2   0.215142 0.382170 0.832086 -0.319482
O10   O     O_2   0.308860 0.223122 0.866557 -0.257877
O11   O     O_3   0.143611 0.318095 0.006699 -0.540735
H7    H     H_    0.080841 0.277414 0.951184 0.393504
S2    S     S_3+6 0.738768 0.669314 0.075404 0.044789
O12   O     O_2   0.693934 0.775370 0.139447 -0.173636
O13   O     O_2   0.787172 0.612981 0.163956 -0.326916
O14   O     O_3   0.855012 0.683345 0.992250 -0.503501
H8    H     H_    0.920423 0.719616 0.047916 0.390701
H9    H     H_    0.101875 0.576323 0.907998 0.147093
H10   H     H_    0.897833 0.419498 0.091473 0.153231
H11   H     H_    0.812557 0.410934 0.691363 0.171643
H12   H     H_    0.186397 0.586286 0.307377 0.184049
S3    S     S_3+6 0.735480 0.824522 0.494595 0.066178
O15   O     O_2   0.776883 0.820506 0.374424 -0.200967
O16   O     O_2   0.818010 0.897930 0.582383 -0.215968
O17   O     O_3   0.751744 0.704261 0.516903 -0.520841
H13   H     H_    0.841424 0.694966 0.526033 0.387365
S4    S     S_3+6 0.260761 0.176800 0.499053 0.075681
O18   O     O_2   0.256453 0.292403 0.507317 -0.268353
O19   O     O_2   0.184451 0.121455 0.393405 -0.197548
O20   O     O_3   0.195947 0.157185 0.617959 -0.433553
H14   H     H_    0.264975 0.140587 0.667239 0.359429
S5    S     S_3+6 0.240656 0.802843 0.595243 0.013414
O21   O     O_2   0.170591 0.741329 0.489024 -0.296745
O22   O     O_2   0.280777 0.732257 0.671755 -0.319105
O23   O     O_3   0.147592 0.895677 0.669414 -0.421266
H15   H     H_    0.198850 0.934971 0.736962 0.368647
S6    S     S_3+6 0.753470 0.195290 0.393305 0.018898
O24   O     O_2   0.710855 0.262613 0.313953 -0.313211
O25   O     O_2   0.819463 0.260145 0.500161 -0.340622
O26   O     O_3   0.850286 0.104142 0.322074 -0.441238
H16   H     H_    0.920423 0.144705 0.305643 0.406227
H17   H     H_    0.418411 0.384901 0.778782 0.232207
H18   H     H_    0.583112 0.614248 0.221329 0.235478
S7    S     S_3+6 0.624441 0.723618 0.834171 0.115252
O27   O     O_2   0.686297 0.804690 0.930718 -0.167792
O28   O     O_2   0.706507 0.705066 0.733526 -0.226236
O29   O     O_3   0.491495 0.780210 0.806124 -0.489541
H19   H     H_    0.514589 0.849284 0.793361 0.374418
S8    S     S_3+6 0.372486 0.277226 0.167522 0.122596
O30   O     O_2   0.307945 0.196109 0.073033 -0.169439
O31   O     O_2   0.490677 0.225606 0.191751 -0.205874
O32   O     O_3   0.282368 0.297554 0.281478 -0.456252
H20   H     H_    0.200676 0.314004 0.250559 0.365553

loop_
_geom_bond_atom_site_label_1
_geom_bond_atom_site_label_2
_ccdc_geom_bond_type
C21   O7    A    
O26   H16   S    
C27   C29   A    
C24   H4    S    
C19   C20   A    
S6    O26   S    
C21   O5    A    
S1    O9    D    
C22   O8    A    
Cu2   O3    S    
O20   H14   S    
C21   C36   S    
C22   C35   S    
S4    O19   D    
S2    O14   S    
C32   C36   A    
S6    O25   D    
Cu1   O5    S    
Cu2   O6    S    
S8    O32   S    
C33   C36   A    
S2    O13   D    
C34   C35   A    
S3    O16   D    
C2    O4    A    
C29   H11   S    
C23   C33   A    
S4    O20   S    
S8    O31   D    
C8    S5    S    
C31   C33   A    
Cu1   O1    S    
Cu2   O2    S    
S7    O27   D    
C7    S6    S    
C5    H5    S    
C6    H6    S    
S3    O15   D    
C4    C7    A    
S4    O18   D    
C26   H10   S    
C25   H9    S    
S6    O24   D    
C5    C12   A    
C3    C8    A    
C6    C11   A    
C5    C7    A    
C1    O1    A    
C6    C8    A    
C28   H1    S    
C2    O2    A    
O11   H7    S    
C24   C34   A    
S5    O21   D    
S2    O12   D    
C32   C34   A    
S3    O17   S    
Cu1   Cu2   S    
S7    O28   D    
O32   H20   S    
C27   H2    S    
S8    O30   D    
C17   N2    A    
C9    C11   A    
C10   C12   A    
Cu1   O8    S    
S1    O10   D    
C14   C16   A    
C9    S4    S    
Cu1   N1    S    
C18   N1    A    
C15   S8    S    
C22   O6    A    
C13   C20   A    
C18   H17   S    
C26   C28   A    
C14   C19   A    
C17   H18   S    
C24   C26   A    
O17   H13   S    
C16   N1    A    
S5    O23   S    
C11   C12   A    
C25   C27   A    
C14   S2    S    
S5    O22   D    
C23   H3    S    
C1    C4    S    
C13   C15   A    
C2    C3    S    
C29   C31   A    
C3    C10   A    
S7    O29   S    
C30   C32   A    
Cu1   O4    S    
Cu2   O7    S    
C31   C35   A    
C28   C30   A    
C17   C19   A    
C18   C20   A    
C23   C25   A    
O29   H19   S    
Cu2   N2    S    
O14   H8    S    
C10   S3    S    
C16   S7    S    
O23   H15   S    
S1    O11   S    
C15   N2    A    
C4    C9    A    
C1    O3    A    
C30   H12   S    
C13   S1    S    
