data_mof_unit_50265.cif
_audit_creation_date              2012-12-10T17:56:18-0500
_audit_creation_method            fapswitch 2.2
_symmetry_space_group_name_H-M    P1
_symmetry_Int_Tables_number       1
_space_group_crystal_system       triclinic
_cell_length_a                    13.026176
_cell_length_b                    10.842745
_cell_length_c                    9.515176
_cell_angle_alpha                 89.792144
_cell_angle_beta                  95.835458
_cell_angle_gamma                 90.920967
_cell_volume                      1336.77913389

loop_
_atom_site_label
_atom_site_type_symbol
_atom_type_description
_atom_site_fract_x
_atom_site_fract_y
_atom_site_fract_z
_atom_type_partial_charge
C1    C     C_R   0.496279 0.262167 0.499791 0.799720
C2    C     C_R   0.503721 0.737833 0.500208 0.799718
C3    C     C_R   0.506215 0.871833 0.500479 -0.226675
C4    C     C_R   0.493786 0.128167 0.499521 -0.226676
C5    C     C_R   0.432337 0.426617 0.065297 -0.007599
C6    C     C_R   0.567663 0.573383 0.934702 -0.007600
C7    C     C_R   0.432384 0.426633 0.916462 0.027955
C8    C     C_R   0.567616 0.573367 0.083538 0.027951
C9    C     C_R   0.300676 0.497288 0.474037 0.795057
C10   C     C_R   0.699324 0.502712 0.525963 0.795056
C11   C     C_R   0.811780 0.501340 0.540908 -0.142551
C12   C     C_R   0.188220 0.498659 0.459092 -0.142549
C13   C     C_R   0.032385 0.581215 0.337445 -0.145639
C14   C     C_R   0.967614 0.418783 0.662554 -0.145639
C15   C     C_R   0.137941 0.563800 0.345706 -0.269676
C16   C     C_R   0.862058 0.436197 0.654293 -0.269674
C17   C     C_R   0.131027 0.444572 0.562674 0.360648
C18   C     C_R   0.868973 0.555430 0.437328 0.360646
C19   C     C_R   0.024926 0.465765 0.556817 0.060937
C20   C     C_R   0.975073 0.534235 0.443183 0.060936
C21   C     C_R   0.540739 0.068131 0.393505 -0.200018
C22   C     C_R   0.459263 0.931869 0.606496 -0.200021
C23   C     C_R   0.549407 0.941059 0.394031 0.420815
C24   C     C_R   0.450595 0.058941 0.605970 0.420813
Cu1   Cu    Cu3+1 0.500000 0.500020 0.640660 0.966857
Cu2   Cu    Cu3+1 0.500000 0.499980 0.359340 0.966855
H1    H     H_    0.996346 0.633452 0.249065 0.205601
H2    H     H_    0.003653 0.366545 0.750934 0.205600
H3    H     H_    0.378234 0.367730 0.114120 0.134571
H4    H     H_    0.621765 0.632270 0.885880 0.134572
H5    H     H_    0.378323 0.367747 0.853117 0.153563
H6    H     H_    0.621677 0.632253 0.146883 0.153562
N1    N     N_R   0.500030 0.500030 0.852080 -0.175303
N2    N     N_R   0.499970 0.499970 0.147920 -0.175302
O1    O     O_R   0.499990 0.319660 0.618740 -0.569495
O2    O     O_R   0.500010 0.680340 0.381260 -0.569499
O3    O     O_R   0.499990 0.319630 0.381170 -0.582482
O4    O     O_R   0.500010 0.680370 0.618830 -0.582480
O5    O     O_R   0.349000 0.499990 0.599490 -0.569799
O6    O     O_R   0.651000 0.500010 0.400510 -0.569801
O7    O     O_R   0.348990 0.499960 0.361920 -0.584207
O8    O     O_R   0.651010 0.500040 0.638080 -0.584207
O9    O     O_3   0.823819 0.629359 0.330555 -0.742903
H7    H     H_    0.766110 0.673221 0.366994 0.309767
O10   O     O_3   0.176182 0.370650 0.669451 -0.742905
H8    H     H_    0.233890 0.326784 0.633015 0.309766
H9    H     H_    0.818998 0.394779 0.734447 0.185591
H10   H     H_    0.181001 0.605216 0.265551 0.185592
H11   H     H_    0.575260 0.120524 0.312655 0.195875
H12   H     H_    0.424741 0.879476 0.687346 0.195875
O11   O     O_3   0.602656 0.889575 0.291422 -0.713147
H13   H     H_    0.637101 0.814865 0.331105 0.312547
O12   O     O_3   0.397347 0.110426 0.708580 -0.713141
H14   H     H_    0.362896 0.185132 0.668891 0.312540

loop_
_geom_bond_atom_site_label_1
_geom_bond_atom_site_label_2
_ccdc_geom_bond_type
C12   C17   A    
Cu1   O8    S    
O9    H7    S    
C6    N1    A    
Cu2   O3    S    
Cu1   O4    S    
C10   O8    A    
C11   C16   A    
C2    O4    A    
C18   C20   A    
C19   C20   A    
C12   C15   A    
C1    O3    A    
C22   H12   S    
C1    C4    S    
C14   H2    S    
C5    N2    A    
C22   C24   A    
C21   H11   S    
C2    C3    S    
Cu1   Cu2   S    
C11   C18   A    
C8    N2    A    
O12   H14   S    
Cu1   O5    S    
C18   O9    S    
C4    C21   A    
C7    N1    A    
Cu2   O6    S    
C15   H10   S    
Cu1   O1    S    
C16   H9    S    
Cu2   O2    S    
C6    H4    S    
C17   O10   S    
C5    H3    S    
C21   C23   A    
C13   C15   A    
C4    C24   A    
C9    C12   S    
C14   C16   A    
C7    H5    S    
C10   C11   S    
O11   H13   S    
C8    H6    S    
C9    O5    A    
C1    O1    A    
C10   O6    A    
C2    O2    A    
C5    C7    A    
C3    C23   A    
C13   H1    S    
C3    C22   A    
C6    C8    A    
C13   C20   A    
C17   C19   A    
C24   O12   S    
O10   H8    S    
C9    O7    A    
C14   C19   A    
Cu2   N2    S    
C23   O11   S    
Cu2   O7    S    
Cu1   N1    S    
