data_mof_unit_55558.cif
_audit_creation_date              2012-12-10T19:09:31-0500
_audit_creation_method            fapswitch 2.2
_symmetry_space_group_name_H-M    P1
_symmetry_Int_Tables_number       1
_space_group_crystal_system       triclinic
_cell_length_a                    15.014658
_cell_length_b                    15.036788
_cell_length_c                    9.694833
_cell_angle_alpha                 90.004744
_cell_angle_beta                  90.007184
_cell_angle_gamma                 89.999528
_cell_volume                      2188.82403372

loop_
_atom_site_label
_atom_site_type_symbol
_atom_type_description
_atom_site_fract_x
_atom_site_fract_y
_atom_site_fract_z
_atom_type_partial_charge
C1    C     C_R   0.121114 0.378714 0.500280 0.836337
C2    C     C_R   0.878594 0.621155 0.500278 0.835548
C3    C     C_R   0.378739 0.878699 0.500275 0.834914
C4    C     C_R   0.378569 0.121130 0.500278 0.835558
C5    C     C_3   0.786383 0.285003 0.652080 -0.398910
C6    C     C_3   0.845583 0.226769 0.425335 -0.407630
C7    C     C_3   0.845974 0.773613 0.427893 -0.407785
C8    C     C_3   0.784737 0.713373 0.652025 -0.399975
C9    C     C_3   0.286350 0.785037 0.652074 -0.398877
C10   C     C_3   0.345591 0.726761 0.425396 -0.407651
C11   C     C_3   0.346037 0.273676 0.428338 -0.407799
C12   C     C_R   0.121280 0.621121 0.500287 0.836871
C13   C     C_3   0.284458 0.213094 0.652001 -0.400098
C14   C     C_3   0.215073 0.713431 0.652076 -0.402104
C15   C     C_3   0.273322 0.654556 0.425195 -0.407270
C16   C     C_3   0.273767 0.345873 0.428086 -0.407616
C17   C     C_3   0.213215 0.284732 0.652007 -0.402048
C18   C     C_3   0.715102 0.213402 0.652082 -0.402054
C19   C     C_3   0.773318 0.154560 0.425148 -0.407288
C20   C     C_3   0.773702 0.845809 0.427640 -0.407572
C21   C     C_3   0.713493 0.785010 0.652029 -0.402085
C22   C     C_3   0.726121 0.345814 0.427644 -0.407421
C23   C     C_R   0.621138 0.878737 0.500280 0.836342
C24   C     C_3   0.726546 0.654599 0.425098 -0.407247
C25   C     C_3   0.226134 0.845801 0.427590 -0.407419
C26   C     C_3   0.226625 0.154678 0.424672 -0.407253
C27   C     C_3   0.810642 0.310499 0.501269 0.200800
C28   C     C_3   0.810393 0.689252 0.501263 0.200866
C29   C     C_3   0.310638 0.810503 0.501269 0.200786
C30   C     C_3   0.310351 0.189211 0.501261 0.200871
C31   C     C_3   0.189455 0.689242 0.501282 0.201188
C32   C     C_3   0.189173 0.310476 0.501262 0.201479
C33   C     C_3   0.689460 0.189237 0.501282 0.201188
C34   C     C_R   0.621282 0.121119 0.500287 0.836874
C35   C     C_3   0.689214 0.810517 0.501263 0.201501
C36   C     C_3   0.153872 0.773587 0.427784 -0.407550
C37   C     C_3   0.154347 0.226885 0.424899 -0.407594
C38   C     C_3   0.653863 0.273595 0.427824 -0.407517
C39   C     C_3   0.654267 0.726805 0.425328 -0.407602
C40   C     C_3   0.041145 0.418624 0.081242 -0.232420
C41   C     C_3   0.041156 0.418634 0.918773 -0.232872
C42   C     C_3   0.048003 0.577411 0.918801 -0.232292
C43   C     C_3   0.047991 0.577422 0.081251 -0.231328
C44   C     C_3   0.540695 0.918391 0.081242 -0.232456
C45   C     C_3   0.906907 0.503913 0.081336 -0.234793
C46   C     C_3   0.540707 0.918401 0.918772 -0.232949
C47   C     C_3   0.548430 0.077138 0.918801 -0.232246
C48   C     C_3   0.548417 0.077149 0.081250 -0.231275
C49   C     C_3   0.906911 0.503918 0.918659 -0.234905
C50   C     C_3   0.406930 0.004414 0.081335 -0.234783
C51   C     C_3   0.406934 0.004419 0.918659 -0.234913
C52   C     C_R   0.878741 0.378697 0.500275 0.834928
H1    H     H_    0.761191 0.344239 0.709101 0.162471
H2    H     H_    0.906570 0.201131 0.477254 0.144048
H3    H     H_    0.906451 0.798799 0.481692 0.144379
H4    H     H_    0.844084 0.737986 0.709527 0.164779
H5    H     H_    0.346242 0.759917 0.707699 0.164078
H6    H     H_    0.406559 0.701132 0.477366 0.144074
H7    H     H_    0.406425 0.298777 0.482450 0.144410
H8    H     H_    0.343705 0.237620 0.709818 0.164885
H9    H     H_    0.155708 0.738112 0.709485 0.163662
H10   H     H_    0.256799 0.636580 0.316730 0.165910
H11   H     H_    0.258329 0.364932 0.319717 0.165783
H12   H     H_    0.863810 0.243258 0.316962 0.167263
H13   H     H_    0.153237 0.259561 0.707267 0.163024
H14   H     H_    0.655745 0.238082 0.709520 0.163669
H15   H     H_    0.756776 0.136595 0.316682 0.165902
H16   H     H_    0.758100 0.864696 0.319244 0.165834
H17   H     H_    0.653602 0.759912 0.707618 0.163090
H18   H     H_    0.867439 0.446400 0.119632 0.139482
H19   H     H_    0.867443 0.446414 0.880345 0.138908
H20   H     H_    0.872557 0.564664 0.880627 0.139785
H21   H     H_    0.872531 0.564648 0.119420 0.140159
H22   H     H_    0.367146 0.947122 0.119646 0.139429
H23   H     H_    0.865217 0.758056 0.319635 0.166921
H24   H     H_    0.367149 0.947137 0.880329 0.138856
H25   H     H_    0.372917 0.065358 0.880644 0.139847
H26   H     H_    0.372890 0.065340 0.119405 0.140195
H27   H     H_    0.240739 0.653685 0.707258 0.162455
H28   H     H_    0.299045 0.593567 0.476778 0.144447
H29   H     H_    0.298944 0.406327 0.481743 0.144482
H30   H     H_    0.238360 0.343851 0.709305 0.163178
H31   H     H_    0.740773 0.153644 0.707238 0.162427
H32   H     H_    0.799054 0.093566 0.476707 0.144428
H33   H     H_    0.798964 0.906352 0.480978 0.144453
H34   H     H_    0.759034 0.653616 0.707086 0.161823
H35   H     H_    0.738724 0.844228 0.709012 0.163105
H36   H     H_    0.700842 0.406336 0.481067 0.144078
H37   H     H_    0.741696 0.364767 0.319249 0.165493
H38   H     H_    0.743077 0.636657 0.316651 0.165591
H39   H     H_    0.700833 0.593597 0.476599 0.144182
H40   H     H_    0.200851 0.906337 0.480961 0.144053
H41   H     H_    0.241730 0.864724 0.319195 0.165526
H42   H     H_    0.243319 0.136903 0.316230 0.165643
H43   H     H_    0.200840 0.093601 0.475849 0.144184
H44   H     H_    0.093356 0.798784 0.481494 0.144387
H45   H     H_    0.261146 0.844283 0.709051 0.162486
H46   H     H_    0.134673 0.757994 0.319483 0.165821
H47   H     H_    0.136246 0.243547 0.316561 0.166124
H48   H     H_    0.093314 0.201175 0.476504 0.144298
H49   H     H_    0.593349 0.298782 0.481559 0.144397
H50   H     H_    0.634655 0.258019 0.319517 0.165810
H51   H     H_    0.635994 0.743303 0.316989 0.166055
H52   H     H_    0.593312 0.701168 0.477264 0.144304
H53   H     H_    0.005823 0.358581 0.120055 0.136574
H54   H     H_    0.005886 0.358579 0.879875 0.136214
H55   H     H_    0.017974 0.640268 0.880007 0.136180
H56   H     H_    0.363851 0.743228 0.317034 0.167252
H57   H     H_    0.017913 0.640271 0.119997 0.136584
H58   H     H_    0.505047 0.858544 0.120059 0.136591
H59   H     H_    0.505107 0.858541 0.879872 0.136225
H60   H     H_    0.518743 0.140159 0.880015 0.136189
H61   H     H_    0.518682 0.140163 0.119988 0.136597
H62   H     H_    0.110955 0.413509 0.118807 0.140854
H63   H     H_    0.110979 0.413589 0.881341 0.140430
H64   H     H_    0.117981 0.576467 0.881205 0.139783
H65   H     H_    0.117961 0.576542 0.118963 0.140020
H66   H     H_    0.610477 0.912893 0.118800 0.140885
H67   H     H_    0.365449 0.258283 0.320107 0.166869
H68   H     H_    0.610501 0.912971 0.881346 0.140486
H69   H     H_    0.618399 0.075812 0.881193 0.139728
H70   H     H_    0.618379 0.075886 0.118974 0.139962
H71   H     H_    0.258681 0.153251 0.706731 0.161748
H72   H     H_    0.846289 0.259867 0.707664 0.164070
N1    N     N_3   0.998760 0.500000 0.138610 -0.026194
N2    N     N_3   0.998760 0.500000 0.861390 -0.025340
N3    N     N_3   0.498760 0.000000 0.138610 -0.026195
N4    N     N_3   0.498760 0.000000 0.861390 -0.025338
O1    O     O_R   0.092530 0.407440 0.616040 -0.635550
O2    O     O_R   0.907330 0.407420 0.383960 -0.631973
O3    O     O_R   0.907330 0.592580 0.383960 -0.632214
O4    O     O_R   0.907330 0.592580 0.616040 -0.634220
O5    O     O_R   0.407330 0.907420 0.616040 -0.634092
O6    O     O_R   0.407330 0.907420 0.383960 -0.631955
O7    O     O_R   0.407330 0.092580 0.383960 -0.632233
O8    O     O_R   0.407330 0.092580 0.616040 -0.634236
O9    O     O_R   0.092530 0.407440 0.383960 -0.633763
O10   O     O_R   0.092530 0.592560 0.383960 -0.633673
O11   O     O_R   0.092530 0.592560 0.616040 -0.635442
O12   O     O_R   0.592530 0.907440 0.616040 -0.635547
O13   O     O_R   0.592530 0.907440 0.383960 -0.633762
O14   O     O_R   0.592530 0.092560 0.383960 -0.633671
O15   O     O_R   0.592530 0.092560 0.616040 -0.635442
O16   O     O_R   0.907330 0.407420 0.616040 -0.634105
Zn1   Zn    Zn3+2 0.999890 0.500000 0.654960 0.890410
Zn2   Zn    Zn3+2 0.999890 0.500000 0.345040 0.892178
Zn3   Zn    Zn3+2 0.499890 1.000000 0.654960 0.890408
Zn4   Zn    Zn3+2 0.499890 0.000000 0.345040 0.892179

loop_
_geom_bond_atom_site_label_1
_geom_bond_atom_site_label_2
_ccdc_geom_bond_type
C26   H42   S    
C21   H35   S    
C44   N3    S    
C25   H41   S    
O2    Zn2   S    
C10   H56   S    
C15   H28   S    
C7    H3    S    
C14   C31   S    
C11   H67   S    
C43   N1    S    
C39   H52   S    
C13   H8    S    
O15   Zn3   S    
C6    C19   S    
C5    H72   S    
C52   O16   A    
C24   H38   S    
O4    Zn1   S    
C46   N4    S    
C10   H6    S    
C41   H63   S    
C38   H49   S    
C1    O1    A    
N1    Zn2   S    
C50   H22   S    
C48   H70   S    
C13   H71   S    
C47   H69   S    
C47   H60   S    
C22   C38   S    
C24   C39   S    
O3    Zn2   S    
C45   H21   S    
C17   H30   S    
C6    H12   S    
C3    C29   S    
O13   Zn4   S    
C5    C27   S    
C20   C35   S    
C22   H37   S    
C40   H62   S    
C6    C27   S    
C11   C30   S    
C45   N1    S    
C49   H20   S    
C2    O4    A    
C19   H15   S    
O5    Zn3   S    
C16   H11   S    
C22   H36   S    
C42   H55   S    
O1    Zn1   S    
C9    C29   S    
N3    Zn4   S    
C4    O8    A    
C46   H59   S    
C8    H4    S    
C6    H2    S    
C11   H7    S    
C50   H26   S    
O12   Zn3   S    
N2    Zn1   S    
C44   C46   S    
C2    O3    A    
C25   C29   S    
C34   O15   A    
C41   H54   S    
O14   Zn4   S    
O9    Zn2   S    
C47   N4    S    
C51   H24   S    
C19   C33   S    
C7    H23   S    
C5    C18   S    
C50   C51   S    
C32   C37   S    
C14   H9    S    
C1    C32   S    
C7    C28   S    
C21   H17   S    
C3    O5    A    
C35   C39   S    
C9    C14   S    
C51   H25   S    
C49   N2    S    
C34   O14   A    
C11   C16   S    
C36   H44   S    
C47   C48   S    
C45   C49   S    
C20   H33   S    
C18   H31   S    
C12   O11   A    
C46   H68   S    
C26   C37   S    
C14   H27   S    
C15   C31   S    
C23   O12   A    
C43   H65   S    
C4    O7    A    
C42   H64   S    
C40   C41   S    
C26   C30   S    
C23   C35   S    
C22   C27   S    
C12   C31   S    
C49   H19   S    
C8    C28   S    
C12   O10   A    
C40   H53   S    
C16   C32   S    
C44   H66   S    
C51   N4    S    
C19   H32   S    
C24   H39   S    
C37   H47   S    
C1    O9    A    
C27   C52   S    
C5    H1    S    
C26   H43   S    
O11   Zn1   S    
C25   H40   S    
C9    H45   S    
C45   H18   S    
C41   N2    S    
C20   H16   S    
C24   C28   S    
O16   Zn1   S    
C8    C21   S    
C36   H46   S    
N4    Zn3   S    
C39   H51   S    
C21   C35   S    
C18   H14   S    
O6    Zn4   S    
C17   H13   S    
C33   C38   S    
C13   C17   S    
C10   C15   S    
C3    O6    A    
C52   O2    A    
C38   H50   S    
C48   N3    S    
C10   C29   S    
O10   Zn2   S    
C40   N1    S    
C16   H29   S    
C15   H10   S    
C33   C34   S    
C9    H5    S    
O7    Zn4   S    
C18   C33   S    
O8    Zn3   S    
C42   N2    S    
C25   C36   S    
C13   C30   S    
C8    H34   S    
C7    C20   S    
C42   C43   S    
C17   C32   S    
C31   C36   S    
C23   O13   A    
C2    C28   S    
C50   N3    S    
C43   H57   S    
C37   H48   S    
C4    C30   S    
C48   H61   S    
C44   H58   S    
