data_mof_unit_23735.cif
_audit_creation_date              2012-12-11T14:01:13-0500
_audit_creation_method            fapswitch 2.2
_symmetry_space_group_name_H-M    P1
_symmetry_Int_Tables_number       1
_space_group_crystal_system       triclinic
_cell_length_a                    19.185581
_cell_length_b                    10.930907
_cell_length_c                    18.860474
_cell_angle_alpha                 89.666957
_cell_angle_beta                  89.892136
_cell_angle_gamma                 89.481199
_cell_volume                      3955.10383759

loop_
_atom_site_label
_atom_site_type_symbol
_atom_type_description
_atom_site_fract_x
_atom_site_fract_y
_atom_site_fract_z
_atom_type_partial_charge
C1    C     C_R   0.272929 0.041314 0.853746 0.548928
C2    C     C_R   0.729057 0.049469 0.151191 0.550163
C3    C     C_R   0.772930 0.541310 0.853747 0.548880
C4    C     C_R   0.229073 0.549505 0.151214 0.550117
C5    C     C_R   0.496090 0.065479 0.068772 0.036357
C6    C     C_R   0.539325 0.034843 0.927065 0.025222
C7    C     C_R   0.996426 0.565631 0.068649 0.036504
C8    C     C_R   0.039587 0.534678 0.926939 0.025135
C9    C     C_R   0.021021 0.664750 0.029072 -0.107375
C10   C     C_R   0.044959 0.648392 0.960273 -0.109308
C11   C     C_R   0.520589 0.164731 0.029246 -0.107387
C12   C     C_R   0.544574 0.148533 0.960451 -0.109380
C13   C     C_2   0.243404 0.545692 0.903229 -0.137040
C14   C     C_2   0.751429 0.580323 0.079772 -0.122078
C15   C     C_2   0.743397 0.045564 0.903174 -0.137043
C16   C     C_2   0.251421 0.080333 0.079767 -0.122076
C17   C     C_2   0.247618 0.598330 0.083884 -0.111399
C18   C     C_2   0.750898 0.585000 0.923246 -0.110510
C19   C     C_2   0.747575 0.098313 0.083859 -0.111526
C20   C     C_2   0.250901 0.085010 0.923244 -0.110532
C21   C     C_2   0.227505 0.534206 0.028140 -0.140059
C22   C     C_2   0.707373 0.518652 0.963643 -0.167348
C23   C     C_2   0.727640 0.034021 0.028111 -0.140161
C24   C     C_2   0.207347 0.018708 0.963632 -0.167339
C25   C     C_2   0.218874 0.597061 0.961414 -0.164519
C26   C     C_2   0.697876 0.544776 0.039227 -0.167509
C27   C     C_2   0.718832 0.096822 0.961379 -0.164540
C28   C     C_2   0.197862 0.044808 0.039222 -0.167487
C29   C     C_2   0.500020 0.835329 0.577962 -0.108463
C30   C     C_2   0.500663 0.835365 0.422343 -0.107378
C31   C     C_2   0.000021 0.335330 0.577963 -0.108466
C32   C     C_2   0.000665 0.335365 0.422344 -0.107379
C33   C     C_2   0.491268 0.734966 0.462697 0.091719
C34   C     C_2   0.510292 0.734904 0.538223 0.091395
C35   C     C_2   0.991270 0.234967 0.462698 0.091717
C36   C     C_2   0.010294 0.234905 0.538223 0.091394
C37   C     C_2   0.245292 0.560233 0.585275 -0.008753
C38   C     C_2   0.755466 0.558950 0.414831 -0.009581
C39   C     C_2   0.745292 0.060233 0.585275 -0.008748
C40   C     C_2   0.255467 0.058949 0.414830 -0.009584
C41   C     C_2   0.238532 0.574303 0.426110 -0.097023
C42   C     C_2   0.762023 0.574162 0.573492 -0.097794
C43   C     C_2   0.738532 0.074304 0.426109 -0.097029
C44   C     C_2   0.262023 0.074160 0.573492 -0.097788
C45   C     C_R   0.467140 0.821211 0.855822 0.536116
C46   C     C_R   0.527812 0.823218 0.147715 0.544958
C47   C     C_R   0.967182 0.321224 0.855800 0.535929
C48   C     C_R   0.027826 0.323249 0.147702 0.544899
C49   C     C_2   0.184556 0.562751 0.471061 -0.158226
C50   C     C_2   0.816146 0.559833 0.528917 -0.158484
C51   C     C_2   0.684556 0.062752 0.471061 -0.158228
C52   C     C_2   0.316147 0.059830 0.528916 -0.158481
C53   C     C_2   0.190601 0.593852 0.545138 -0.144401
C54   C     C_2   0.810388 0.590435 0.454516 -0.144318
C55   C     C_2   0.690601 0.093852 0.545138 -0.144395
C56   C     C_2   0.310389 0.090432 0.454515 -0.144321
C57   C     C_R   0.258203 0.624858 0.843763 0.523127
C58   C     C_R   0.738961 0.636843 0.148566 0.543526
C59   C     C_R   0.758192 0.124816 0.843735 0.523131
C60   C     C_R   0.238959 0.136844 0.148565 0.543509
C61   C     C_R   0.273952 0.043417 0.646856 0.557853
C62   C     C_R   0.726174 0.043519 0.353043 0.554339
C63   C     C_R   0.773951 0.543418 0.646857 0.557869
C64   C     C_R   0.226174 0.543519 0.353043 0.554337
C65   C     C_R   0.471959 0.823914 0.648853 0.567030
C66   C     C_R   0.528206 0.824103 0.351267 0.564205
C67   C     C_R   0.971959 0.323914 0.648853 0.566994
C68   C     C_R   0.028207 0.324103 0.351267 0.564216
C69   C     C_R   0.260254 0.633957 0.647388 0.561725
C70   C     C_R   0.739954 0.633831 0.352612 0.563531
C71   C     C_R   0.760254 0.133957 0.647388 0.561723
C72   C     C_R   0.239954 0.133831 0.352612 0.563529
C73   C     C_R   0.491449 0.836343 0.079822 -0.008418
C74   C     C_R   0.482433 0.827742 0.932168 0.005518
C75   C     C_R   0.991482 0.336527 0.079799 -0.008434
C76   C     C_R   0.982462 0.327807 0.932148 0.005640
C77   C     C_R   0.498796 0.946016 0.039053 0.015348
C78   C     C_R   0.509201 0.934559 0.964780 0.008394
C79   C     C_R   0.999015 0.446119 0.038988 0.015386
C80   C     C_R   0.009383 0.434541 0.964713 0.008305
C81   C     C_R   0.448983 0.739675 0.975880 -0.022745
C82   C     C_R   0.464602 0.731368 0.047351 -0.019728
C83   C     C_R   0.948806 0.240048 0.975894 -0.022599
C84   C     C_R   0.964388 0.231737 0.047386 -0.019923
Cr1   Cr    Cr6+3 0.230530 0.836340 0.748870 1.030088
Cr2   Cr    Cr6+3 0.769470 0.836340 0.251130 1.030100
Cr3   Cr    Cr6+3 0.730530 0.336340 0.748870 1.030050
Cr4   Cr    Cr6+3 0.269470 0.336340 0.251130 1.030054
Cr5   Cr    Cr6+3 0.387420 0.989430 0.750820 1.013202
Cr6   Cr    Cr6+3 0.612580 0.989430 0.249180 1.011616
Cr7   Cr    Cr6+3 0.887420 0.489430 0.750820 1.013174
Cr8   Cr    Cr6+3 0.112580 0.489430 0.249180 1.011553
Cr9   Cr    Cr6+3 0.385640 0.677860 0.749230 1.038408
Cr10  Cr    Cr6+3 0.614360 0.677860 0.250770 1.038318
Cr11  Cr    Cr6+3 0.885640 0.177860 0.749230 1.038512
Cr12  Cr    Cr6+3 0.114360 0.177860 0.250770 1.038387
H1    H     H_    0.132688 0.540665 0.452158 0.156253
H2    H     H_    0.867838 0.535696 0.548278 0.155443
H3    H     H_    0.632688 0.040664 0.452158 0.156253
H4    H     H_    0.367839 0.035693 0.548278 0.155440
H5    H     H_    0.152092 0.659560 0.563978 0.162442
H6    H     H_    0.848935 0.654787 0.435172 0.161581
H7    H     H_    0.652092 0.159560 0.563978 0.162443
H8    H     H_    0.348937 0.154783 0.435171 0.161579
H9    H     H_    0.290364 0.597705 0.443981 0.135785
H10   H     H_    0.710376 0.599740 0.555160 0.135128
H11   H     H_    0.790364 0.097706 0.443981 0.135785
H12   H     H_    0.210377 0.099740 0.555160 0.135122
H13   H     H_    0.020932 0.755844 0.051454 0.103123
H14   H     H_    0.066205 0.726199 0.931964 0.112056
H15   H     H_    0.520413 0.255793 0.051673 0.103063
H16   H     H_    0.565772 0.226434 0.932193 0.111870
H17   H     H_    0.214393 0.437688 0.032518 0.147146
H18   H     H_    0.678751 0.442498 0.941617 0.148599
H19   H     H_    0.714779 0.937397 0.032494 0.147087
H20   H     H_    0.178686 0.942612 0.941592 0.148587
H21   H     H_    0.204273 0.693624 0.961803 0.148310
H22   H     H_    0.645566 0.537488 0.060904 0.154572
H23   H     H_    0.704108 0.193329 0.961774 0.148310
H24   H     H_    0.145555 0.037521 0.060903 0.154688
H25   H     H_    0.257551 0.695925 0.079595 0.084780
H26   H     H_    0.777867 0.663034 0.945321 0.106134
H27   H     H_    0.757198 0.196008 0.079563 0.084800
H28   H     H_    0.277901 0.163003 0.945330 0.106155
H29   H     H_    0.265912 0.453995 0.904694 0.102684
H30   H     H_    0.803905 0.583734 0.058056 0.109503
H31   H     H_    0.766001 0.953939 0.904630 0.102710
H32   H     H_    0.303896 0.083739 0.058049 0.109488
H33   H     H_    0.511897 0.923084 0.445863 0.064224
H34   H     H_    0.488461 0.923342 0.553944 0.062959
H35   H     H_    0.011899 0.423084 0.445864 0.064225
H36   H     H_    0.988462 0.423343 0.553945 0.062964
O1    O     O_R   0.215090 0.709860 0.828130 -0.531594
O2    O     O_R   0.784910 0.709860 0.171870 -0.526286
O3    O     O_R   0.715090 0.209860 0.828130 -0.531618
O4    O     O_R   0.284910 0.209860 0.171870 -0.526369
O5    O     O_R   0.445660 0.919250 0.676780 -0.514274
O6    O     O_R   0.554340 0.919250 0.323220 -0.516271
O7    O     O_R   0.945660 0.419250 0.676780 -0.514290
O8    O     O_R   0.054340 0.419250 0.323220 -0.516254
O9    O     O_R   0.456260 0.718170 0.670000 -0.462132
O10   O     O_R   0.543740 0.718170 0.330000 -0.465677
O11   O     O_R   0.956260 0.218170 0.670000 -0.462137
O12   O     O_R   0.043740 0.218170 0.330000 -0.465674
O13   O     O_R   0.320940 0.626760 0.674370 -0.491432
O14   O     O_R   0.679060 0.626760 0.325630 -0.490527
O15   O     O_R   0.820940 0.126760 0.674370 -0.491436
O16   O     O_R   0.179060 0.126760 0.325630 -0.490527
O17   O     O_3   0.334530 0.834540 0.749640 -0.258484
O18   O     O_3   0.665470 0.834540 0.250360 -0.254327
O19   O     O_3   0.834530 0.334540 0.749640 -0.258549
O20   O     O_3   0.165470 0.334540 0.250360 -0.254322
O21   O     O_R   0.236990 0.958390 0.823710 -0.495087
O22   O     O_R   0.763010 0.958390 0.176290 -0.496736
O23   O     O_R   0.736990 0.458390 0.823710 -0.495107
O24   O     O_R   0.263010 0.458390 0.176290 -0.496721
O25   O     O_R   0.332380 0.074750 0.830850 -0.513854
O26   O     O_R   0.667620 0.074750 0.169150 -0.506929
O27   O     O_R   0.832380 0.574750 0.830850 -0.513832
O28   O     O_R   0.167620 0.574750 0.169150 -0.506955
O29   O     O_R   0.445800 0.917770 0.825070 -0.506684
O30   O     O_R   0.554200 0.917770 0.174930 -0.501674
O31   O     O_R   0.945800 0.417770 0.825070 -0.506744
O32   O     O_R   0.054200 0.417770 0.174930 -0.501778
O33   O     O_R   0.456410 0.716580 0.829970 -0.514934
O34   O     O_R   0.543590 0.716580 0.170030 -0.525702
O35   O     O_R   0.956410 0.216580 0.829970 -0.514714
O36   O     O_R   0.043590 0.216580 0.170030 -0.525566
O37   O     O_R   0.321080 0.625290 0.822650 -0.519610
O38   O     O_R   0.678920 0.625290 0.177350 -0.499775
O39   O     O_R   0.821080 0.125290 0.822650 -0.519543
O40   O     O_R   0.178920 0.125290 0.177350 -0.499735
O41   O     O_R   0.214930 0.711450 0.668160 -0.519877
O42   O     O_R   0.785070 0.711450 0.331840 -0.518352
O43   O     O_R   0.714930 0.211450 0.668160 -0.519871
O44   O     O_R   0.285070 0.211450 0.331840 -0.518359
O45   O     O_R   0.236850 0.959870 0.675420 -0.473643
O46   O     O_R   0.763150 0.959870 0.324580 -0.479050
O47   O     O_R   0.736850 0.459870 0.675420 -0.473635
O48   O     O_R   0.263150 0.459870 0.324580 -0.479058
O49   O     O_R   0.332230 0.076350 0.670880 -0.517472
O50   O     O_R   0.667770 0.076350 0.329120 -0.522322
O51   O     O_R   0.832230 0.576350 0.670880 -0.517455
O52   O     O_R   0.167770 0.576350 0.329120 -0.522327
C85   C     C_3   0.383157 0.680729 0.952473 -0.339323
H37   H     H_    0.353436 0.747018 0.919453 0.163852
H38   H     H_    0.395118 0.592322 0.926332 0.172676
H39   H     H_    0.347959 0.664825 0.997505 0.115922
C86   C     C_3   0.448643 0.613276 0.087874 -0.362498
H40   H     H_    0.418822 0.634019 0.136955 0.145888
H41   H     H_    0.418489 0.545816 0.057231 0.114121
H42   H     H_    0.497565 0.562969 0.100398 0.158430
C87   C     C_3   0.882793 0.181720 0.952527 -0.339133
H43   H     H_    0.853389 0.247891 0.919134 0.164033
H44   H     H_    0.894468 0.092823 0.926816 0.172383
H45   H     H_    0.847434 0.166975 0.997561 0.115687
C88   C     C_3   0.947986 0.114013 0.088058 -0.362733
H46   H     H_    0.918278 0.135308 0.137130 0.145657
H47   H     H_    0.917515 0.046873 0.057503 0.114540
H48   H     H_    0.996724 0.063196 0.100641 0.158513
C89   C     C_3   0.294108 0.455470 0.566669 -0.371920
H49   H     H_    0.273941 0.398194 0.522984 0.149008
H50   H     H_    0.345946 0.491704 0.551605 0.181772
H51   H     H_    0.300465 0.394617 0.613607 0.141100
C90   C     C_3   0.706838 0.455451 0.434197 -0.371697
H52   H     H_    0.727209 0.397513 0.478169 0.149451
H53   H     H_    0.654991 0.493055 0.449214 0.181590
H54   H     H_    0.700426 0.394894 0.387636 0.140905
C91   C     C_3   0.794108 0.955470 0.566669 -0.371918
H55   H     H_    0.773941 0.898195 0.522984 0.149007
H56   H     H_    0.845946 0.991704 0.551605 0.181771
H57   H     H_    0.800465 0.894617 0.613606 0.141106
C92   C     C_3   0.206838 0.955452 0.434198 -0.371696
H58   H     H_    0.227217 0.897498 0.478159 0.149449
H59   H     H_    0.154996 0.993060 0.449232 0.181584
H60   H     H_    0.200410 0.894911 0.387633 0.140912
C93   C     C_3   0.458127 0.094379 0.136909 -0.359598
H61   H     H_    0.430867 0.013630 0.159111 0.127845
H62   H     H_    0.495128 0.130574 0.176659 0.150194
H63   H     H_    0.417738 0.165570 0.126519 0.130522
C94   C     C_3   0.570429 0.025124 0.853802 -0.362160
H64   H     H_    0.584679 0.929699 0.839883 0.123489
H65   H     H_    0.535296 0.067602 0.813837 0.156607
H66   H     H_    0.618691 0.077363 0.851003 0.151721
C95   C     C_3   0.958445 0.594760 0.136745 -0.359444
H67   H     H_    0.931102 0.514126 0.158982 0.127945
H68   H     H_    0.995455 0.630931 0.176494 0.150207
H69   H     H_    0.918113 0.666028 0.126288 0.130235
C96   C     C_3   0.070588 0.524786 0.853636 -0.362224
H70   H     H_    0.084789 0.429319 0.839763 0.123386
H71   H     H_    0.035421 0.567234 0.813693 0.156676
H72   H     H_    0.118861 0.576959 0.850721 0.151712
I1    I     I_    0.449046 0.569392 0.420297 -0.376875
I2    I     I_    0.553223 0.568650 0.581904 -0.367325
I3    I     I_    0.949047 0.069393 0.420299 -0.376862
I4    I     I_    0.053224 0.068651 0.581906 -0.367326

loop_
_geom_bond_atom_site_label_1
_geom_bond_atom_site_label_2
_ccdc_geom_bond_type
C16   C28   D    
C71   O15   A    
C38   C70   S    
Cr10  O14   S    
C38   C90   S    
C37   C69   S    
C86   H42   S    
C69   O13   A    
C89   H49   S    
C10   H14   S    
Cr9   O17   S    
C35   C36   S    
Cr6   O18   S    
Cr7   O31   S    
C95   H69   S    
C81   C82   A    
C89   H50   S    
Cr9   O9    S    
C70   O42   A    
C77   C78   A    
C58   O2    A    
C93   H63   S    
C61   O45   A    
C19   H27   S    
C50   C54   S    
C75   C79   A    
C41   H9    S    
Cr6   O30   S    
Cr4   O24   S    
C58   O38   A    
C95   H67   S    
C47   C76   S    
C5    C11   A    
C96   H72   S    
Cr7   O51   S    
Cr2   O18   S    
C6    C12   A    
C64   O48   A    
C75   C84   A    
C85   H38   S    
Cr12  O12   S    
C66   O6    A    
Cr12  O20   S    
C55   H7    S    
Cr2   O46   S    
C91   H57   S    
C63   O47   A    
C39   C91   S    
C3    C18   S    
C86   H41   S    
C16   C60   S    
C41   C49   D    
C88   H47   S    
C45   O29   A    
C36   I4    S    
C96   H71   S    
C95   H68   S    
Cr12  O40   S    
Cr2   O2    S    
C39   C55   D    
Cr6   O50   S    
C53   H5    S    
C40   C56   D    
C38   C54   D    
C40   C92   S    
Cr8   O20   S    
Cr1   O41   S    
C76   C80   A    
Cr12  O36   S    
Cr9   O13   S    
C70   O14   A    
C23   C27   S    
C67   O7    A    
C9    C10   A    
C60   O4    A    
C93   H62   S    
Cr7   O27   S    
C46   O34   A    
C32   C68   S    
C6    C94   S    
C47   O31   A    
C44   C52   D    
Cr5   O17   S    
Cr9   O33   S    
C2    O22   A    
C15   H31   S    
C9    H13   S    
Cr4   O20   S    
C48   C75   S    
C57   O1    A    
C67   O11   A    
C86   H40   S    
C69   O41   A    
C59   O39   A    
C76   C83   A    
Cr5   O29   S    
Cr6   O6    S    
C96   H70   S    
Cr4   O48   S    
C57   O37   A    
C14   H30   S    
C44   H12   S    
C51   H3    S    
C14   C58   S    
C5    C93   S    
C50   H2    S    
C63   O51   A    
C11   H15   S    
Cr10  O10   S    
C32   C35   D    
Cr3   O3    S    
C13   C57   S    
Cr11  O15   S    
C56   H8    S    
C91   H55   S    
C28   H24   S    
C46   O30   A    
C81   C85   S    
Cr1   O45   S    
C85   H39   S    
Cr1   O21   S    
C7    C95   S    
C51   C55   S    
C87   H44   S    
C93   H61   S    
C90   H52   S    
Cr3   O47   S    
C29   C34   D    
C52   H4    S    
C17   C21   D    
Cr12  O16   S    
C25   H21   S    
C45   C74   S    
Cr2   O42   S    
C60   O40   A    
Cr6   O26   S    
C88   H48   S    
C19   C23   D    
C37   C53   D    
C31   H36   S    
C62   O50   A    
C94   H64   S    
C65   O9    A    
C8    C96   S    
C15   C27   D    
C83   C84   A    
C48   O36   A    
C47   O35   A    
C92   H58   S    
C2    O26   A    
C87   H45   S    
Cr9   O37   S    
C3    O23   A    
C33   C34   S    
C3    O27   A    
C43   H11   S    
C14   C26   D    
C1    O21   A    
C42   H10   S    
Cr4   O4    S    
C30   C66   S    
C66   O10   A    
C18   H26   S    
Cr7   O7    S    
C4    C17   S    
C21   H17   S    
C4    O24   A    
C42   C50   D    
C24   H20   S    
Cr5   O5    S    
C82   C86   S    
Cr8   O52   S    
C84   C88   S    
C89   H51   S    
C29   C65   S    
C68   O8    A    
C35   I3    S    
C74   C81   A    
C5    C77   A    
Cr8   O8    S    
C73   C82   A    
C12   H16   S    
C33   I1    S    
C7    C79   A    
C92   H60   S    
C17   H25   S    
C7    C9    A    
C21   C25   S    
C1    C20   S    
C39   C71   S    
C40   C72   S    
C30   C33   D    
C2    C19   S    
C18   C22   D    
C15   C59   S    
C54   H6    S    
Cr11  O11   S    
C24   C28   S    
C13   C25   D    
Cr11  O35   S    
C62   O46   A    
C11   C12   A    
Cr5   O25   S    
C48   O32   A    
C27   H23   S    
C44   C61   S    
C94   H66   S    
C30   H33   S    
Cr3   O43   S    
C74   C78   A    
C61   O49   A    
Cr4   O44   S    
C26   H22   S    
Cr8   O28   S    
C1    O25   A    
Cr8   O32   S    
Cr2   O22   S    
C92   H59   S    
C65   O5    A    
C94   H65   S    
C72   O16   A    
Cr10  O38   S    
Cr7   O19   S    
C43   C51   D    
C85   H37   S    
C4    O28   A    
Cr11  O39   S    
C49   C53   S    
C42   C63   S    
C59   O3    A    
C91   H56   S    
C71   O43   A    
C68   O12   A    
Cr3   O23   S    
C16   H32   S    
C88   H46   S    
C72   O44   A    
Cr1   O17   S    
Cr10  O34   S    
C20   H28   S    
C49   H1    S    
C6    C78   A    
C31   C67   S    
C23   H19   S    
C79   C80   A    
C64   O52   A    
C29   H34   S    
C52   C56   S    
Cr10  O18   S    
C22   H18   S    
Cr11  O19   S    
C73   C77   A    
C8    C10   A    
C87   H43   S    
C22   C26   S    
Cr1   O1    S    
C8    C80   A    
C37   C89   S    
C31   C36   D    
Cr3   O19   S    
C90   H54   S    
C41   C64   S    
C90   H53   S    
C45   O33   A    
C13   H29   S    
C20   C24   D    
C46   C73   S    
C32   H35   S    
C43   C62   S    
Cr5   O49   S    
C83   C87   S    
C34   I2    S    
