data_mof_unit_59443.cif
_audit_creation_date              2013-03-05T16:46:58-0500
_audit_creation_method            fapswitch 2.2
_symmetry_space_group_name_H-M    P1
_symmetry_Int_Tables_number       1
_space_group_crystal_system       triclinic
_cell_length_a                    15.008929
_cell_length_b                    8.932157
_cell_length_c                    8.101061
_cell_angle_alpha                 89.998133
_cell_angle_beta                  89.999572
_cell_angle_gamma                 89.999768
_cell_volume                      1086.04533214

loop_
_atom_site_label
_atom_site_type_symbol
_atom_site_description
_atom_site_fract_x
_atom_site_fract_y
_atom_site_fract_z
_atom_type_partial_charge
O1    O     O_R   0.500000 0.285350 0.636850 -0.618195
O2    O     O_R   0.500000 0.714650 0.363150 -0.618195
O3    O     O_R   0.500000 0.714650 0.636850 -0.614084
O4    O     O_R   0.500000 0.285350 0.363150 -0.614084
C1    C     C_R   0.499994 0.217979 0.500003 0.938878
C2    C     C_R   0.499993 0.782021 0.499997 0.938878
O5    O     O_R   0.367850 0.500000 0.636890 -0.627787
O6    O     O_R   0.632150 0.500000 0.363110 -0.623156
O7    O     O_R   0.632150 0.500000 0.636890 -0.623155
O8    O     O_R   0.367850 0.500000 0.363110 -0.627786
C3    C     C_R   0.326294 0.500001 0.500001 0.878835
C4    C     C_R   0.673715 0.499999 0.499999 0.886695
Zn1   Zn    Zn3+2 0.500000 0.500000 0.682780 0.987241
Zn2   Zn    Zn3+2 0.500000 0.500000 0.317220 0.987242
N1    N     N_1   0.500000 0.500000 0.073640 -0.036776
N2    N     N_1   0.500000 0.500000 0.926360 -0.036776
C5    C     C_R   0.814508 0.561791 0.366668 -0.216598
C6    C     C_R   0.185598 0.436010 0.632081 -0.256264
C7    C     C_R   0.814506 0.438202 0.633330 -0.216594
C8    C     C_R   0.185599 0.564007 0.367928 -0.256263
C9    C     C_R   0.769213 0.499996 0.499998 -0.100623
C10   C     C_R   0.230794 0.500006 0.500003 -0.054720
C11   C     C_R   0.907008 0.435803 0.634596 0.082002
C12   C     C_R   0.093050 0.565929 0.365915 0.068421
C13   C     C_R   0.907009 0.564198 0.365406 0.081997
C14   C     C_R   0.093049 0.434091 0.634095 0.068419
C15   C     C_R   0.953648 0.500002 0.500002 -0.026719
C16   C     C_R   0.046506 0.500007 0.500004 0.013202
C17   C     C_R   0.953103 0.369548 0.766983 0.075359
C18   C     C_R   0.046221 0.632597 0.233478 0.039815
C19   C     C_R   0.953106 0.630465 0.233025 0.075359
C20   C     C_R   0.046219 0.367427 0.766535 0.039809
C21   C     C_1   0.499989 0.065189 0.500004 -0.193414
C22   C     C_1   0.499989 0.934811 0.499996 -0.193414
H1    H     H_    0.776973 0.610111 0.265527 0.186687
H2    H     H_    0.223629 0.386409 0.731558 0.154248
H3    H     H_    0.776971 0.389881 0.734469 0.186686
H4    H     H_    0.223631 0.613609 0.268450 0.154247
N3    N     N_3   0.904976 0.302877 0.901518 -0.466550
H5    H     H_    0.924684 0.354963 0.011179 0.211613
H6    H     H_    0.922441 0.189734 0.908588 0.206748
N4    N     N_3   0.091394 0.705220 0.099191 -0.471839
H7    H     H_    0.130353 0.792246 0.146474 0.189867
H8    H     H_    0.132570 0.627818 0.039897 0.185452
N5    N     N_3   0.904979 0.697142 0.098494 -0.466549
H9    H     H_    0.922434 0.810292 0.091448 0.206745
H10   H     H_    0.924697 0.645081 0.988823 0.211611
N6    N     N_3   0.091392 0.294821 0.900831 -0.471836
H11   H     H_    0.132567 0.372231 0.960110 0.185454
H12   H     H_    0.130352 0.207791 0.853559 0.189866

loop_
_geom_bond_atom_site_label_1
_geom_bond_atom_site_label_2
_geom_bond_distance
_ccdc_geom_bond_type
O3    Zn1   1.953046 S    
C13   C19   1.406794 A    
C7    C11   1.388556 A    
C14   C20   1.414093 A    
C11   C15   1.416922 A    
C13   C15   1.416918 A    
C8    H4    1.082374 S    
C7    H3    1.083952 S    
C3    C10   1.433350 S    
C14   C16   1.419372 A    
C6    C14   1.389261 A    
O6    C4    1.272384 A    
O3    C2    1.261425 A    
C5    C13   1.388557 A    
C17   N3    1.436732 S    
N6    H12   1.045410 S    
C21   C22   1.164565 T    
N3    H6    1.045622 S    
N5    H9    1.045628 S    
O5    C3    1.272316 A    
C20   N6    1.436609 S    
O2    C2    1.261419 A    
C2    C22   1.364741 S    
N4    H8    1.044352 S    
O1    C1    1.261419 A    
C11   C17   1.406785 A    
N6    H11   1.044349 S    
C7    C9    1.390483 A    
C8    C10   1.389855 A    
C17   C20   1.397698 A    
N5    H10   1.045561 S    
O4    Zn2   1.953046 S    
C18   C19   1.397697 A    
O2    Zn2   1.953069 S    
O7    C4    1.272385 A    
C12   C18   1.414093 A    
O1    Zn1   1.953070 S    
N4    H7    1.045413 S    
C19   N5    1.436732 S    
N1    N2    1.193123 T    
C12   C16   1.419379 A    
O5    Zn1   2.017972 S    
O8    C3    1.272319 A    
Zn1   N2    1.973256 S    
N3    H5    1.045552 S    
O7    Zn1   2.017965 S    
Zn2   N1    1.973256 S    
C18   N4    1.436620 S    
O6    Zn2   2.017970 S    
C5    H1    1.083952 S    
C6    C10   1.389853 A    
C6    H2    1.082371 S    
C4    C9    1.433318 S    
C5    C9    1.390482 A    
C8    C12   1.389260 A    
O8    Zn2   2.017966 S    
O4    C1    1.261425 A    
C15   C16   1.393702 A    
C1    C21   1.364741 S    
