data_mof_unit_63930.cif
_audit_creation_date              2013-03-05T15:43:27-0500
_audit_creation_method            fapswitch 2.2
_symmetry_space_group_name_H-M    P1
_symmetry_Int_Tables_number       1
_space_group_crystal_system       triclinic
_cell_length_a                    23.606696
_cell_length_b                    30.518571
_cell_length_c                    19.318117
_cell_angle_alpha                 90.366398
_cell_angle_beta                  126.063301
_cell_angle_gamma                 89.466205
_cell_volume                      11250.0306325

loop_
_atom_site_label
_atom_site_type_symbol
_atom_site_description
_atom_site_fract_x
_atom_site_fract_y
_atom_site_fract_z
_atom_type_partial_charge
O1    O     O_R   0.678810 0.768970 0.857610 -0.572905
O2    O     O_R   0.321190 0.231030 0.142390 -0.520329
O3    O     O_R   0.321190 0.768970 0.142390 -0.587195
O4    O     O_R   0.678810 0.231030 0.857610 -0.575897
O5    O     O_R   0.178810 0.268970 0.857610 -0.587745
O6    O     O_R   0.821190 0.731030 0.142390 -0.583590
O7    O     O_R   0.821190 0.268970 0.142390 -0.574806
O8    O     O_R   0.178810 0.731030 0.857610 -0.532790
O9    O     O_R   0.730990 0.821160 0.961990 -0.524547
O10   O     O_R   0.269010 0.178840 0.038010 -0.571945
O11   O     O_R   0.269010 0.821160 0.038010 -0.519548
O12   O     O_R   0.730990 0.178840 0.961990 -0.534697
O13   O     O_R   0.230990 0.321160 0.961990 -0.518732
O14   O     O_R   0.769010 0.678840 0.038010 -0.531445
O15   O     O_R   0.769010 0.321160 0.038010 -0.517307
O16   O     O_R   0.230990 0.678840 0.961990 -0.566138
C1    C     C_R   0.694371 0.809665 0.882504 0.832282
C2    C     C_R   0.304074 0.190441 0.118139 0.868016
C3    C     C_R   0.306812 0.809715 0.117489 0.822836
C4    C     C_R   0.694433 0.190160 0.881641 0.829280
C5    C     C_R   0.193404 0.309626 0.882488 0.820673
C6    C     C_R   0.808701 0.690413 0.118248 0.858944
C7    C     C_R   0.805522 0.309726 0.117511 0.834355
C8    C     C_R   0.196640 0.690409 0.882024 0.876347
O17   O     O_R   0.642490 0.723880 0.947790 -0.566131
O18   O     O_R   0.357510 0.276120 0.052210 -0.521685
O19   O     O_R   0.357510 0.723880 0.052210 -0.551755
O20   O     O_R   0.642490 0.276120 0.947790 -0.545028
O21   O     O_R   0.142490 0.223880 0.947790 -0.548937
O22   O     O_R   0.857510 0.776120 0.052210 -0.547512
O23   O     O_R   0.857510 0.223880 0.052210 -0.568836
O24   O     O_R   0.142490 0.776120 0.947790 -0.525931
O25   O     O_R   0.694660 0.776070 0.052170 -0.532225
O26   O     O_R   0.305340 0.223930 0.947830 -0.593615
O27   O     O_R   0.305340 0.776070 0.947830 -0.548936
O28   O     O_R   0.694660 0.223930 0.052170 -0.572705
O29   O     O_R   0.194660 0.276070 0.052170 -0.549097
O30   O     O_R   0.805340 0.723930 0.947830 -0.569009
O31   O     O_R   0.805340 0.276070 0.947830 -0.521868
O32   O     O_R   0.194660 0.723930 0.052170 -0.589770
C9    C     C_R   0.641792 0.750912 0.999651 0.892106
C10   C     C_R   0.358264 0.248979 0.000519 0.839504
C11   C     C_R   0.359709 0.752506 0.004003 0.896598
C12   C     C_R   0.641544 0.249081 0.999008 0.814948
C13   C     C_R   0.140317 0.252740 0.996187 0.897984
C14   C     C_R   0.858326 0.748899 0.000642 0.824505
C15   C     C_R   0.858020 0.250400 0.999990 0.873375
C16   C     C_R   0.141504 0.749017 0.998909 0.853496
Cu1   Cu    Cu3+1 0.719090 0.719080 0.938180 1.149307
Cu2   Cu    Cu3+1 0.280910 0.280920 0.061820 1.218490
Cu3   Cu    Cu3+1 0.280910 0.719080 0.061820 1.120367
Cu4   Cu    Cu3+1 0.719090 0.280920 0.938180 1.187713
Cu5   Cu    Cu3+1 0.219090 0.219080 0.938180 1.115588
Cu6   Cu    Cu3+1 0.780910 0.780920 0.061820 1.184628
Cu7   Cu    Cu3+1 0.780910 0.219080 0.061820 1.147671
Cu8   Cu    Cu3+1 0.219090 0.780920 0.938180 1.205132
C17   C     C_1   0.581490 0.752272 0.000987 0.019244
C18   C     C_1   0.418852 0.247563 0.999822 -0.022942
C19   C     C_1   0.421237 0.754150 0.005125 0.050106
C20   C     C_1   0.580428 0.247759 0.998573 -0.051609
C21   C     C_1   0.079118 0.254551 0.995852 0.049511
C22   C     C_1   0.918982 0.747320 0.000067 -0.032723
C23   C     C_1   0.918704 0.251627 0.999519 0.005098
C24   C     C_1   0.080370 0.747605 0.998420 -0.011740
C25   C     C_1   0.531154 0.753401 0.002658 0.115931
C26   C     C_1   0.469707 0.247081 0.999236 0.088705
C27   C     C_1   0.472087 0.754271 0.004481 0.125432
C28   C     C_1   0.529362 0.247176 0.998701 0.074829
C29   C     C_1   0.028367 0.254407 0.996705 0.126582
C30   C     C_1   0.969789 0.746791 0.999370 0.084062
C31   C     C_1   0.969238 0.253042 0.998329 0.115267
C32   C     C_1   0.029350 0.746937 0.998636 0.090079
C33   C     C_R   0.766698 0.857395 0.820327 0.203067
C34   C     C_R   0.227892 0.137264 0.175076 0.293928
C35   C     C_R   0.234589 0.857372 0.180506 0.177201
C36   C     C_R   0.667623 0.201280 0.708584 0.277843
C37   C     C_R   0.267453 0.356619 0.824045 0.167972
C38   C     C_R   0.815512 0.702159 0.273762 0.298153
C39   C     C_R   0.734103 0.359565 0.180540 0.211016
C40   C     C_R   0.270457 0.638550 0.819149 0.287905
C41   C     C_R   0.791069 0.860796 0.768975 -0.185655
C42   C     C_R   0.195444 0.109448 0.200658 -0.183380
C43   C     C_R   0.210045 0.861395 0.231603 -0.184345
C44   C     C_R   0.628121 0.216004 0.622687 -0.217436
C45   C     C_R   0.294023 0.358465 0.775153 -0.188838
C46   C     C_R   0.847221 0.716557 0.358557 -0.217366
C47   C     C_R   0.710219 0.363960 0.232451 -0.191137
C48   C     C_R   0.302472 0.611157 0.791519 -0.182797
C49   C     C_R   0.742300 0.866130 0.679909 0.209386
C50   C     C_R   0.223792 0.067489 0.232005 0.219275
C51   C     C_R   0.258549 0.866950 0.320530 0.228315
C52   C     C_R   0.563055 0.196497 0.561112 0.237782
C53   C     C_R   0.247407 0.364375 0.686163 0.226181
C54   C     C_R   0.878973 0.684528 0.423473 0.200006
C55   C     C_R   0.759498 0.368470 0.321709 0.215545
C56   C     C_R   0.275536 0.569003 0.760865 0.216487
C57   C     C_R   0.671402 0.875887 0.644538 -0.097945
C58   C     C_R   0.287027 0.055920 0.244744 -0.122148
C59   C     C_R   0.329407 0.876246 0.356097 -0.088664
C60   C     C_R   0.543698 0.157513 0.581386 -0.149567
C61   C     C_R   0.176592 0.376087 0.648325 -0.103781
C62   C     C_R   0.877940 0.640677 0.400172 -0.165676
C63   C     C_R   0.830619 0.376435 0.356899 -0.101994
C64   C     C_R   0.213950 0.556732 0.751064 -0.110842
C65   C     C_R   0.649970 0.879443 0.699672 -0.016688
C66   C     C_R   0.329658 0.089811 0.248824 -0.036821
C67   C     C_R   0.351359 0.878960 0.301469 -0.050867
C68   C     C_R   0.590506 0.138770 0.664031 -0.054489
C69   C     C_R   0.151539 0.378822 0.700134 -0.053671
C70   C     C_R   0.876159 0.632287 0.326268 -0.033090
C71   C     C_R   0.851262 0.379848 0.301248 -0.019580
C72   C     C_R   0.170752 0.590144 0.749145 -0.045598
C73   C     C_R   0.693660 0.860027 0.780746 -0.073930
C74   C     C_R   0.297142 0.128305 0.200896 -0.062114
C75   C     C_R   0.307681 0.859669 0.220161 -0.085904
C76   C     C_R   0.642439 0.165684 0.730364 -0.030648
C77   C     C_R   0.194000 0.359400 0.781700 -0.072474
C78   C     C_R   0.843499 0.664025 0.260846 -0.032722
C79   C     C_R   0.807059 0.361270 0.219468 -0.069286
C80   C     C_R   0.202502 0.628867 0.796324 -0.079799
C81   C     C_R   0.662286 0.844594 0.819232 -0.131217
C82   C     C_R   0.336299 0.155877 0.183610 -0.146378
C83   C     C_R   0.338740 0.844647 0.180680 -0.109000
C84   C     C_R   0.666965 0.155472 0.815582 -0.156751
C85   C     C_R   0.161586 0.344332 0.819007 -0.107479
C86   C     C_R   0.838292 0.656616 0.184600 -0.157891
C87   C     C_R   0.838263 0.344612 0.180975 -0.132069
C88   C     C_R   0.164302 0.655610 0.817122 -0.154719
C89   C     C_R   0.597262 0.860981 0.793854 0.295701
C90   C     C_R   0.407916 0.147350 0.223165 0.282418
C91   C     C_R   0.403477 0.860948 0.205895 0.279376
C92   C     C_R   0.658607 0.112383 0.834791 0.264836
C93   C     C_R   0.095630 0.360033 0.791024 0.276848
C94   C     C_R   0.863621 0.617339 0.172893 0.258634
C95   C     C_R   0.906001 0.357055 0.211046 0.284058
C96   C     C_R   0.094942 0.645095 0.784713 0.281000
C97   C     C_R   0.564051 0.893736 0.730986 -0.151201
C98   C     C_R   0.442171 0.113460 0.283084 -0.096821
C99   C     C_R   0.435726 0.893859 0.268516 -0.122526
C100  C     C_R   0.625488 0.080809 0.769736 -0.142408
C101  C     C_R   0.064090 0.393178 0.729192 -0.130551
C102  C     C_R   0.894429 0.585255 0.236894 -0.145949
C103  C     C_R   0.941938 0.387944 0.277319 -0.126337
C104  C     C_R   0.060451 0.610520 0.726128 -0.118024
C105  C     C_R   0.588889 0.902412 0.680235 -0.164828
C106  C     C_R   0.403394 0.085978 0.299774 -0.083380
C107  C     C_R   0.411646 0.902155 0.320199 -0.134318
C108  C     C_R   0.588926 0.094242 0.683660 -0.118129
C109  C     C_R   0.089728 0.401930 0.679487 -0.131460
C110  C     C_R   0.904010 0.593439 0.315002 -0.142496
C111  C     C_R   0.913787 0.400638 0.322929 -0.136013
C112  C     C_R   0.097363 0.585257 0.702253 -0.121894
O33   O     O_R   0.997960 0.545070 0.590160 -0.553484
O34   O     O_R   0.002040 0.454930 0.409840 -0.580305
O35   O     O_R   0.002040 0.545070 0.409840 -0.567288
O36   O     O_R   0.997960 0.454930 0.590160 -0.572809
O37   O     O_R   0.497960 0.045070 0.590160 -0.551575
O38   O     O_R   0.502040 0.954930 0.409840 -0.577382
O39   O     O_R   0.502040 0.045070 0.409840 -0.576158
O40   O     O_R   0.497960 0.954930 0.590160 -0.576160
O41   O     O_R   0.092180 0.545060 0.590150 -0.586624
O42   O     O_R   0.907820 0.454940 0.409850 -0.574860
O43   O     O_R   0.907820 0.545060 0.409850 -0.562371
O44   O     O_R   0.092180 0.454940 0.590150 -0.589968
O45   O     O_R   0.592180 0.045060 0.590150 -0.549406
O46   O     O_R   0.407820 0.954940 0.409850 -0.584304
O47   O     O_R   0.407820 0.045060 0.409850 -0.586074
O48   O     O_R   0.592180 0.954940 0.590150 -0.567420
C113  C     C_R   0.060867 0.557122 0.624205 0.848156
C114  C     C_R   0.943249 0.437901 0.384862 0.868635
C115  C     C_R   0.941196 0.560737 0.383325 0.824883
C116  C     C_R   0.057788 0.438194 0.615712 0.854224
C117  C     C_R   0.557358 0.060899 0.616341 0.835633
C118  C     C_R   0.442659 0.938276 0.384182 0.850315
C119  C     C_R   0.438987 0.056980 0.375956 0.858336
C120  C     C_R   0.557626 0.938385 0.616029 0.856898
Cu9   Cu    Cu3+1 0.944200 0.500000 0.499990 1.113554
Cu10  Cu    Cu3+1 0.055800 0.500000 0.500010 1.109854
Cu11  Cu    Cu3+1 0.444200 1.000000 0.499990 1.116259
Cu12  Cu    Cu3+1 0.555800 1.000000 0.500010 1.114804
N1    N     N_R   0.568818 0.847480 0.838567 0.123726
O49   O     O_R   0.537895 0.809795 0.821389 -0.329750
O50   O     O_R   0.577687 0.871601 0.899970 -0.285919
N2    N     N_R   0.446116 0.172943 0.201326 0.104272
O51   O     O_R   0.464102 0.212908 0.229369 -0.253308
O52   O     O_R   0.469321 0.154753 0.161334 -0.330110
N3    N     N_R   0.432474 0.847396 0.161424 0.108021
O53   O     O_R   0.487755 0.822247 0.199366 -0.289241
O54   O     O_R   0.401961 0.858616 0.081980 -0.322936
N4    N     N_R   0.686458 0.099820 0.920745 0.154986
O55   O     O_R   0.649188 0.105527 0.949706 -0.284797
O56   O     O_R   0.746700 0.079746 0.967676 -0.267497
N5    N     N_R   0.064789 0.346037 0.832733 0.108022
O57   O     O_R   0.008519 0.322229 0.791425 -0.283061
O58   O     O_R   0.093925 0.356062 0.912522 -0.329388
N6    N     N_R   0.858854 0.610139 0.096048 0.148129
O59   O     O_R   0.894327 0.634494 0.079270 -0.330423
O60   O     O_R   0.819433 0.579098 0.043104 -0.265917
N7    N     N_R   0.935986 0.340785 0.169260 0.113339
O61   O     O_R   0.978422 0.307264 0.200855 -0.292143
O62   O     O_R   0.915035 0.356417 0.095170 -0.317589
N8    N     N_R   0.059957 0.669082 0.813893 0.112397
O63   O     O_R   0.036575 0.708556 0.785982 -0.264559
O64   O     O_R   0.047999 0.650476 0.864487 -0.330934
N9    N     N_R   0.815062 0.859341 0.912228 0.131904
O65   O     O_R   0.804495 0.887838 0.954006 -0.262495
O66   O     O_R   0.874717 0.838624 0.952840 -0.360003
N10   N     N_R   0.190278 0.174500 0.125036 0.076898
O67   O     O_R   0.134887 0.167550 0.047629 -0.339719
O68   O     O_R   0.196639 0.211167 0.163660 -0.349917
N11   N     N_R   0.186156 0.859596 0.088659 0.133257
O69   O     O_R   0.195816 0.888536 0.047403 -0.271425
O70   O     O_R   0.126975 0.838850 0.047842 -0.363591
N12   N     N_R   0.735964 0.219163 0.771121 0.131154
O71   O     O_R   0.788539 0.193150 0.822173 -0.354353
O72   O     O_R   0.746387 0.261220 0.776204 -0.307383
N13   N     N_R   0.313898 0.360643 0.915903 0.134957
O73   O     O_R   0.300753 0.390204 0.953639 -0.268832
O74   O     O_R   0.374214 0.340656 0.960348 -0.357586
N14   N     N_R   0.745562 0.717025 0.206621 0.129599
O75   O     O_R   0.701396 0.689176 0.148557 -0.372538
O76   O     O_R   0.720644 0.753435 0.214380 -0.302803
N15   N     N_R   0.685202 0.360489 0.088705 0.132554
O77   O     O_R   0.694183 0.388387 0.045329 -0.257058
O78   O     O_R   0.626662 0.339097 0.049531 -0.359030
N16   N     N_R   0.307856 0.675540 0.869998 0.077949
O79   O     O_R   0.363637 0.668188 0.947004 -0.340459
O80   O     O_R   0.300614 0.712516 0.832358 -0.356417
C121  C     C_2   0.866742 0.858062 0.806758 1.012996
O81   O     O_2   0.907175 0.885063 0.859969 -0.463429
O82   O     O_R   0.891465 0.825041 0.780210 -0.684237
H1    H     H_    0.943988 0.826540 0.810549 0.364977
C122  C     C_2   0.133255 0.124123 0.197039 1.008120
O83   O     O_2   0.086008 0.145343 0.136417 -0.503090
O84   O     O_R   0.129133 0.113513 0.264285 -0.689932
H2    H     H_    0.084748 0.125092 0.255029 0.360841
C123  C     C_2   0.134298 0.859648 0.193496 1.026882
O85   O     O_2   0.094142 0.886899 0.140307 -0.445238
O86   O     O_R   0.109206 0.827318 0.219785 -0.713004
H3    H     H_    0.056678 0.829499 0.189293 0.357376
C124  C     C_2   0.653475 0.252297 0.597028 1.029813
O87   O     O_2   0.711628 0.250029 0.612420 -0.479482
O88   O     O_R   0.610600 0.288838 0.554524 -0.670669
H4    H     H_    0.633574 0.311210 0.539984 0.374581
C125  C     C_2   0.369993 0.354137 0.815638 1.026289
O89   O     O_2   0.410514 0.381926 0.866365 -0.446210
O90   O     O_R   0.394859 0.318732 0.794161 -0.719089
H5    H     H_    0.447601 0.319316 0.825858 0.354780
C126  C     C_2   0.847662 0.764043 0.376991 0.995466
O91   O     O_2   0.851447 0.776318 0.439919 -0.467670
O92   O     O_R   0.845286 0.795061 0.322302 -0.709422
H6    H     H_    0.846190 0.826291 0.341131 0.362916
C127  C     C_2   0.634499 0.363112 0.194938 1.013879
O93   O     O_2   0.594522 0.389734 0.139954 -0.461979
O94   O     O_R   0.609153 0.332284 0.223524 -0.686475
H7    H     H_    0.556687 0.334960 0.193149 0.366399
C128  C     C_2   0.363164 0.626332 0.793118 1.004215
O95   O     O_2   0.410014 0.647953 0.852959 -0.501995
O96   O     O_R   0.366309 0.615770 0.724877 -0.690154
H8    H     H_    0.409721 0.627715 0.732805 0.359673
N17   N     N_R   0.765230 0.862737 0.625792 0.177682
O97   O     O_R   0.808546 0.891295 0.631887 -0.258139
O98   O     O_R   0.744809 0.830119 0.572576 -0.231989
N18   N     N_R   0.187777 0.036515 0.248777 0.194089
O99   O     O_R   0.121959 0.027930 0.190620 -0.241628
O100  O     O_R   0.221105 0.016472 0.322215 -0.253752
N19   N     N_R   0.235247 0.864633 0.374300 0.173346
O101  O     O_R   0.191796 0.893872 0.367575 -0.235617
O102  O     O_R   0.256370 0.832720 0.428831 -0.263472
N20   N     N_R   0.516932 0.216248 0.478197 0.175050
O103  O     O_R   0.535354 0.218673 0.426776 -0.236848
O104  O     O_R   0.459328 0.235337 0.457250 -0.245458
N21   N     N_R   0.272791 0.360499 0.634564 0.171338
O105  O     O_R   0.321151 0.386697 0.646929 -0.232462
O106  O     O_R   0.246617 0.331213 0.574077 -0.256304
N22   N     N_R   0.904209 0.694874 0.509551 0.191938
O107  O     O_R   0.860152 0.704336 0.527232 -0.192509
O108  O     O_R   0.969510 0.687165 0.571703 -0.306744
N23   N     N_R   0.736900 0.365932 0.376112 0.178692
O109  O     O_R   0.696900 0.396471 0.373577 -0.263582
O110  O     O_R   0.753129 0.331849 0.424737 -0.243035
N24   N     N_R   0.311552 0.538492 0.742145 0.194403
O111  O     O_R   0.377821 0.530015 0.798982 -0.241848
O112  O     O_R   0.277874 0.518935 0.668090 -0.247317
C129  C     C_2   0.619733 0.876066 0.550124 0.926383
O113  O     O_2   0.563694 0.857550 0.516770 -0.551342
O114  O     O_R   0.635705 0.896648 0.499275 -0.674056
H9    H     H_    0.597774 0.892388 0.436154 0.357882
C130  C     C_2   0.300743 0.009292 0.234152 0.911697
O115  O     O_2   0.347790 0.000395 0.227196 -0.572454
O116  O     O_R   0.255976 0.976035 0.223477 -0.671944
H10   H     H_    0.265834 0.947278 0.206177 0.346206
C131  C     C_2   0.380052 0.877851 0.450363 0.933752
O117  O     O_2   0.436429 0.858950 0.485976 -0.553387
O118  O     O_R   0.362554 0.900484 0.498427 -0.667328
H11   H     H_    0.399658 0.897200 0.561862 0.354460
C132  C     C_2   0.470685 0.141292 0.522594 0.888341
O119  O     O_2   0.439448 0.143645 0.445104 -0.576356
O120  O     O_R   0.436056 0.125745 0.556296 -0.711204
H12   H     H_    0.386299 0.116273 0.510134 0.358817
C133  C     C_2   0.131114 0.383243 0.554892 0.969368
O121  O     O_2   0.073050 0.366745 0.510007 -0.559671
O122  O     O_R   0.155200 0.410276 0.519250 -0.664721
H13   H     H_    0.118889 0.416193 0.456535 0.350857
C134  C     C_2   0.841975 0.610314 0.422009 0.958653
O123  O     O_2   0.791044 0.589712 0.365095 -0.519253
O124  O     O_R   0.864398 0.606026 0.506397 -0.697907
H14   H     H_    0.835149 0.584470 0.512463 0.341578
C135  C     C_2   0.883848 0.374467 0.451173 0.915796
O125  O     O_2   0.940740 0.357115 0.481140 -0.561785
O126  O     O_R   0.868774 0.391754 0.505736 -0.669744
H15   H     H_    0.907574 0.385510 0.567794 0.360418
C136  C     C_2   0.202522 0.509776 0.761570 0.923093
O127  O     O_2   0.157604 0.500228 0.771626 -0.567969
O128  O     O_R   0.246938 0.476867 0.768053 -0.670654
H16   H     H_    0.238519 0.447627 0.784662 0.343881
C137  C     C_2   0.506512 0.918881 0.724039 0.930391
O129  O     O_2   0.458341 0.899462 0.717209 -0.504123
O130  O     O_R   0.509724 0.964495 0.731204 -0.707105
H17   H     H_    0.468184 0.977673 0.726927 0.363689
C138  C     C_2   0.518287 0.107207 0.325815 0.973449
O131  O     O_2   0.559435 0.135776 0.372681 -0.500922
O132  O     O_R   0.542453 0.069144 0.310135 -0.713834
H18   H     H_    0.595259 0.068697 0.342387 0.349719
C139  C     C_2   0.487930 0.921835 0.270470 0.928069
O133  O     O_2   0.539321 0.905291 0.279639 -0.505740
O134  O     O_R   0.476048 0.966947 0.256845 -0.670836
H19   H     H_    0.514383 0.982328 0.257824 0.372535
C140  C     C_2   0.630708 0.033983 0.793214 0.953480
O135  O     O_2   0.616131 0.022702 0.841593 -0.467423
O136  O     O_R   0.656247 0.003248 0.763881 -0.737680
H20   H     H_    0.662790 0.973213 0.789791 0.344681
C141  C     C_2   0.012882 0.421902 0.729004 0.930017
O137  O     O_2   0.960247 0.406442 0.717226 -0.507996
O138  O     O_R   0.028047 0.466200 0.749435 -0.665555
H21   H     H_    0.992637 0.481223 0.755298 0.374709
C142  C     C_2   0.910997 0.541639 0.218650 0.977290
O139  O     O_2   0.949971 0.538357 0.196653 -0.483927
O140  O     O_R   0.879140 0.504544 0.223347 -0.735750
H22   H     H_    0.888147 0.477201 0.201152 0.361821
C143  C     C_2   0.008117 0.405238 0.295895 0.906352
O141  O     O_2   0.056134 0.379909 0.316622 -0.488007
O142  O     O_R   0.013961 0.449580 0.283691 -0.725793
H23   H     H_    0.061194 0.456950 0.296912 0.364605
C144  C     C_2   0.987683 0.600474 0.695826 1.012200
O143  O     O_2   0.945044 0.630151 0.673340 -0.439166
O144  O     O_R   0.969323 0.557646 0.699283 -0.726711
H24   H     H_    0.918832 0.555210 0.678737 0.338680

loop_
_geom_bond_atom_site_label_1
_geom_bond_atom_site_label_2
_geom_bond_distance
_ccdc_geom_bond_type
C43   C123  1.481093 S    
C109  C116  1.489766 S    
C132  O120  1.398249 S    
O116  H10   1.009994 S    
O26   C10   1.300760 A    
O7    Cu7   1.974622 S    
C10   C18   1.438487 S    
C39   C47   1.415657 A    
C142  O139  1.222732 D    
C141  O137  1.222676 D    
N24   O111  1.301384 A    
C111  C114  1.491995 S    
C14   C22   1.438827 S    
O18   Cu2   1.927622 S    
C95   N7    1.435375 S    
C34   C74   1.424558 A    
C22   C30   1.207322 T    
O37   Cu11  1.983918 S    
O38   Cu12  1.983921 S    
O42   Cu9   1.972704 S    
O38   C118  1.288806 A    
N15   O77   1.301405 A    
C55   C63   1.414833 A    
O3    C3    1.303994 A    
N5    O57   1.300683 A    
C57   C65   1.426218 A    
C135  O126  1.395346 S    
N7    O61   1.300629 A    
C41   C121  1.481128 S    
C125  O89   1.222870 D    
C40   C48   1.418627 A    
O8    Cu8   1.974624 S    
O6    Cu6   1.976312 S    
C51   N19   1.435611 S    
C33   C41   1.414294 A    
N1    O50   1.300793 A    
O46   C118  1.284526 A    
Cu2   Cu5   2.699297 S    
C75   C83   1.406121 A    
N8    O63   1.300851 A    
O132  H18   1.013749 S    
C58   C130  1.495783 S    
O17   C9    1.301237 A    
C72   C80   1.409764 A    
O48   Cu12  1.977070 S    
O20   C12   1.302789 A    
O21   C13   1.302904 A    
C121  O81   1.222864 D    
O122  H13   1.006193 S    
C103  C143  1.483536 S    
O11   C3    1.289831 A    
O12   C4    1.302924 A    
O13   C5    1.290131 A    
C104  C144  1.486996 S    
C48   C128  1.492736 S    
C2    C82   1.469827 S    
C23   C31   1.207806 T    
C56   C64   1.405305 A    
N20   O104  1.301032 A    
O28   C12   1.300818 A    
C35   C75   1.419261 A    
O29   C13   1.302308 A    
C90   C98   1.400428 A    
C92   N4    1.433376 S    
O31   C15   1.300857 A    
O32   C16   1.300574 A    
C62   C134  1.482831 S    
N6    O59   1.301168 A    
C70   C110  1.426845 A    
C43   C51   1.405332 A    
C58   C66   1.419076 A    
C129  O114  1.396418 S    
O28   Cu7   1.936524 S    
C15   C23   1.438751 S    
O29   Cu2   1.939240 S    
C68   C76   1.405486 A    
O10   C2    1.302509 A    
N23   O110  1.300941 A    
O138  H21   1.012654 S    
O4    C4    1.305573 A    
N3    O53   1.300654 A    
O5    C5    1.301746 A    
C86   C94   1.409936 A    
C121  O82   1.397868 S    
C138  O131  1.222174 D    
C42   C122  1.492651 S    
O9    Cu6   1.985873 S    
C124  O88   1.398042 S    
C60   C132  1.486518 S    
O11   Cu8   1.984198 S    
C68   C108  1.419896 A    
C91   N3    1.435328 S    
N4    O55   1.301102 A    
O16   Cu3   1.984198 S    
O39   Cu12  1.982970 S    
C37   N13   1.440557 S    
C107  C118  1.486993 S    
O40   Cu11  1.982971 S    
C36   C76   1.422305 A    
O22   Cu6   1.927622 S    
C3    C83   1.452522 S    
C126  O91   1.221899 D    
C65   C73   1.402307 A    
C38   C78   1.424524 A    
C127  O93   1.222902 D    
N12   O72   1.301322 A    
C136  O128  1.396837 S    
N2    O51   1.300657 A    
C84   C92   1.415330 A    
C71   C79   1.401739 A    
C128  O95   1.222089 D    
C139  O134  1.397843 S    
O2    Cu2   1.976312 S    
C102  C142  1.481755 S    
C19   C27   1.207808 T    
C45   C53   1.404217 A    
N18   O99   1.301395 A    
C134  O124  1.392969 S    
C47   C55   1.408459 A    
C50   N18   1.436859 S    
C122  O83   1.221984 D    
O35   Cu10  1.982970 S    
C11   C19   1.441157 S    
O41   C113  1.295804 A    
C46   C126  1.488768 S    
C95   C103  1.402909 A    
C37   C45   1.409808 A    
C123  O85   1.222906 D    
C45   C125  1.480164 S    
C140  O136  1.396160 S    
C97   C137  1.489684 S    
N14   O75   1.301922 A    
O19   Cu3   1.930361 S    
C143  O142  1.397062 S    
O33   Cu9   1.983918 S    
C60   C68   1.421262 A    
C64   C72   1.420450 A    
C53   C61   1.417818 A    
N13   O73   1.301652 A    
C63   C135  1.484913 S    
O36   C116  1.291587 A    
O130  H17   1.013839 S    
C53   N21   1.437730 S    
C131  O117  1.220676 D    
C52   N20   1.435715 S    
N23   O109  1.300937 A    
C17   C25   1.207723 T    
C130  O115  1.222670 D    
C89   C97   1.403130 A    
C54   C62   1.405056 A    
Cu9   Cu10  2.634279 S    
O44   C116  1.283432 A    
O44   Cu10  1.977068 S    
O18   C10   1.301389 A    
O47   C119  1.295225 A    
O25   Cu6   1.939240 S    
O48   C120  1.289044 A    
C33   N9    1.439591 S    
O27   Cu8   1.936526 S    
O22   C14   1.301774 A    
N19   O101  1.301083 A    
N15   O78   1.299183 A    
C39   N15   1.438619 S    
O32   Cu3   1.936524 S    
N24   O112  1.301437 A    
O14   C6    1.301745 A    
C104  C112  1.422158 A    
C98   C106  1.417931 A    
O7    C7    1.305612 A    
C103  C111  1.431195 A    
O8    C8    1.304010 A    
C4    C84   1.480177 S    
O12   Cu7   1.984198 S    
C91   C99   1.402221 A    
O13   Cu2   1.985873 S    
C36   N12   1.439921 S    
C73   C81   1.407985 A    
N22   O107  1.301204 A    
C93   N5    1.436160 S    
N16   O79   1.299911 A    
C8    C88   1.467606 S    
C44   C52   1.409067 A    
C51   C59   1.415566 A    
C77   C85   1.405861 A    
O94   H7    1.013923 S    
C79   C87   1.409656 A    
O47   Cu11  1.977069 S    
C48   C56   1.404346 A    
O86   H3    1.013918 S    
O142  H23   1.013770 S    
C36   C44   1.415943 A    
C69   C77   1.407205 A    
O92   H6    1.013898 S    
O30   Cu1   1.939241 S    
N1    O49   1.300509 A    
C35   N11   1.439331 S    
N8    O64   1.300889 A    
C97   C105  1.434620 A    
C87   C95   1.397684 A    
C88   C96   1.405767 A    
C54   N22   1.431830 S    
C16   C24   1.438695 S    
C61   C69   1.432948 A    
O88   H4    1.013859 S    
O6    C6    1.295560 A    
C33   C73   1.417743 A    
C63   C71   1.422431 A    
C132  O119  1.220878 D    
C137  O130  1.396412 S    
O10   Cu5   1.985873 S    
C38   N14   1.444569 S    
N10   O67   1.299948 A    
C25   C27   1.415395 S    
C39   C79   1.417980 A    
O43   Cu9   1.977069 S    
O84   H2    1.013931 S    
C72   C112  1.414078 A    
C44   C124  1.483041 S    
C144  O144  1.395164 S    
O43   C115  1.264021 A    
Cu4   Cu7   2.701642 S    
C41   C49   1.407219 A    
C141  O138  1.395507 S    
O128  H16   1.010356 S    
O23   C15   1.302979 A    
C64   C136  1.497662 S    
O24   C16   1.302990 A    
C34   C42   1.419434 A    
N14   O76   1.301033 A    
C142  O140  1.397492 S    
C133  O122  1.398198 S    
O124  H14   1.013887 S    
N6    O60   1.301111 A    
O144  H24   1.013927 S    
O3    Cu3   1.974622 S    
C135  O125  1.222547 D    
O120  H12   1.014023 S    
C129  O113  1.220767 D    
C94   C102  1.399945 A    
C67   C107  1.437601 A    
O36   Cu9   1.982971 S    
O140  H22   1.012343 S    
O42   C114  1.291101 A    
C105  C120  1.487591 S    
C65   C105  1.434792 A    
C106  C119  1.483916 S    
O15   Cu4   1.984198 S    
C1    C81   1.454512 S    
C66   C74   1.409604 A    
O34   Cu10  1.983921 S    
C101  C141  1.484906 S    
C62   C70   1.424953 A    
C5    C85   1.451635 S    
O118  H11   1.007557 S    
C7    C87   1.454981 S    
N4    O56   1.300974 A    
C76   C84   1.422505 A    
C83   C91   1.398168 A    
O1    C1    1.304438 A    
C133  O121  1.221529 D    
C81   C89   1.396244 A    
C59   C131  1.478044 S    
C57   C129  1.481616 S    
C80   C88   1.431555 A    
C92   C100  1.400315 A    
C59   C67   1.426487 A    
C93   C101  1.399525 A    
C108  C117  1.462267 S    
C42   C50   1.403984 A    
O25   C9    1.301359 A    
C102  C110  1.408812 A    
C9    C17   1.439079 S    
O134  H19   1.013550 S    
C96   C104  1.404638 A    
C90   N2    1.437547 S    
O30   C14   1.300556 A    
C112  C113  1.490194 S    
N19   O102  1.300982 A    
O34   C114  1.284856 A    
C35   C43   1.412668 A    
C136  O127  1.223093 D    
N17   O97   1.301010 A    
C12   C20   1.438736 S    
C13   C21   1.441442 S    
N2    O52   1.300858 A    
C139  O133  1.222611 D    
O17   Cu1   1.927623 S    
Cu11  Cu12  2.634279 S    
O19   C11   1.304358 A    
C47   C127  1.482062 S    
C20   C28   1.207269 T    
O26   Cu5   1.939241 S    
N18   O100  1.301476 A    
C134  O123  1.224187 D    
C98   C138  1.481839 S    
O33   C113  1.276845 A    
N7    O62   1.300642 A    
N20   O103  1.300599 A    
O23   Cu7   1.930361 S    
O41   Cu10  1.972702 S    
O24   Cu8   1.930362 S    
O37   C117  1.276652 A    
C26   C28   1.414396 S    
O126  H15   1.009620 S    
C40   C80   1.424632 A    
O2    C2    1.302371 A    
C140  O135  1.222860 D    
O136  H20   1.013310 S    
C100  C108  1.410807 A    
C96   N8    1.437812 S    
C101  C109  1.431837 A    
C34   N10   1.413849 S    
N9    O65   1.301520 A    
C99   C107  1.430528 A    
O4    Cu4   1.974624 S    
O5    Cu5   1.976309 S    
C124  O87   1.222979 D    
C37   C77   1.418173 A    
C6    C86   1.464280 S    
O14   Cu1   1.985873 S    
O45   C117  1.282397 A    
Cu1   Cu6   2.699297 S    
Cu3   Cu8   2.701642 S    
C29   C31   1.415530 S    
C46   C54   1.409003 A    
N21   O106  1.301096 A    
C18   C26   1.207178 T    
C110  C115  1.464618 S    
N5    O58   1.300851 A    
C61   C133  1.475575 S    
C38   C46   1.410669 A    
O15   C7    1.290788 A    
O31   Cu4   1.936526 S    
O16   C8    1.302071 A    
O39   C119  1.273566 A    
O40   C120  1.284470 A    
C126  O92   1.399079 S    
C55   N23   1.434211 S    
N17   O98   1.300999 A    
N12   O71   1.301453 A    
C138  O132  1.397543 S    
C56   N24   1.436547 S    
C49   C57   1.415486 A    
C128  O96   1.398794 S    
C69   C109  1.443871 A    
N11   O69   1.301527 A    
C127  O94   1.397966 S    
C85   C93   1.394479 A    
N21   O105  1.301213 A    
C100  C140  1.484038 S    
C70   C78   1.408668 A    
C122  O84   1.398800 S    
C67   C75   1.403422 A    
O9    C1    1.290009 A    
N11   O70   1.299055 A    
N22   O108  1.300389 A    
N16   O80   1.300753 A    
C123  O86   1.397775 S    
O114  H9    1.010051 S    
O96   H8    1.013928 S    
O27   C11   1.301927 A    
C52   C60   1.415785 A    
C21   C29   1.207899 T    
C89   N1    1.435034 S    
C71   C111  1.429248 A    
O90   H5    1.013947 S    
O46   Cu11  1.972706 S    
N13   O74   1.299166 A    
C66   C106  1.411698 A    
C40   N16   1.414931 S    
C125  O90   1.397644 S    
C131  O118  1.395652 S    
O20   Cu4   1.930362 S    
O21   Cu5   1.927623 S    
C99   C139  1.487776 S    
C130  O116  1.396492 S    
C50   C58   1.404388 A    
C24   C32   1.207234 T    
C137  O129  1.223381 D    
N3    O54   1.300776 A    
C74   C82   1.433704 A    
O35   C115  1.295435 A    
C49   N17   1.435418 S    
N10   O68   1.300768 A    
O82   H1    1.013936 S    
O45   Cu12  1.972702 S    
C143  O141  1.223128 D    
C30   C32   1.414465 S    
C94   N6    1.436759 S    
C78   C86   1.420862 A    
C144  O143  1.222881 D    
N9    O66   1.298984 A    
O1    Cu1   1.976309 S    
C82   C90   1.408279 A    
