data_mof_unit_67763.cif
_audit_creation_date              2012-12-10T16:50:07-0500
_audit_creation_method            fapswitch 2.2
_symmetry_space_group_name_H-M    P1
_symmetry_Int_Tables_number       1
_space_group_crystal_system       triclinic
_cell_length_a                    7.89667
_cell_length_b                    8.868947
_cell_length_c                    11.118257
_cell_angle_alpha                 94.854213
_cell_angle_beta                  84.792989
_cell_angle_gamma                 91.710187
_cell_volume                      772.481294946

loop_
_atom_site_label
_atom_site_type_symbol
_atom_type_description
_atom_site_fract_x
_atom_site_fract_y
_atom_site_fract_z
_atom_type_partial_charge
C1    C     C_R   0.543554 0.793883 0.505900 0.865899
C2    C     C_R   0.330234 0.524921 0.949624 -0.041235
C3    C     C_R   0.472624 0.466583 0.872241 -0.159105
C4    C     C_R   0.593238 0.385731 0.922797 -0.086212
C5    C     C_R   0.609078 0.402642 0.050460 0.496747
C6    C     C_R   0.492589 0.498149 0.125071 -0.187765
C7    C     C_2   0.568786 0.956029 0.517122 -0.219985
C8    C     C_2   0.435120 0.046718 0.520511 -0.383477
C9    C     C_R   0.494136 0.487343 0.739168 0.872112
C10   C     C_R   0.456702 0.207104 0.508688 0.941264
C11   C     C_R   0.499104 0.502883 0.259473 0.912245
C12   C     C_R   0.162708 0.537470 0.911068 -0.119232
C13   C     C_R   0.035822 0.618973 0.984362 0.290189
C14   C     C_R   0.068993 0.676172 0.102463 0.403690
C15   C     C_R   0.229912 0.658701 0.140903 -0.120265
C16   C     C_R   0.353776 0.563731 0.073335 -0.136407
H1    H     H_    0.305660 0.001294 0.526501 0.209844
N1    N     N_2   0.950330 0.457950 0.466250 -0.143470
N2    N     N_2   0.049670 0.542050 0.533750 -0.158825
O1    O     O_R   0.389250 0.738570 0.508280 -0.617663
O2    O     O_R   0.678390 0.711630 0.486650 -0.629498
O3    O     O_R   0.355400 0.513470 0.694050 -0.644790
O4    O     O_R   0.644540 0.486530 0.672420 -0.626982
O5    O     O_R   0.321610 0.288370 0.513350 -0.621548
O6    O     O_R   0.610750 0.261430 0.491720 -0.616777
O7    O     O_R   0.355460 0.513470 0.327580 -0.643033
O8    O     O_R   0.644600 0.486530 0.305950 -0.545945
Zn1   Zn    Zn3+2 0.306930 0.517990 0.514440 0.969845
Zn2   Zn    Zn3+2 0.693070 0.482010 0.485560 1.001584
C17   C     C_1   0.678906 0.272166 0.840835 0.133916
N3    N     N_1   0.747149 0.182608 0.773707 -0.200006
C18   C     C_1   0.000794 0.685947 0.572815 0.380171
N4    N     N_1   0.968451 0.808164 0.608045 -0.269557
C19   C     C_1   0.101825 0.432285 0.816372 0.240666
N5    N     N_1   0.055538 0.347571 0.740708 -0.168222
O9    O     O_3   0.870508 0.615704 0.950787 -0.677578
C20   C     C_3   0.849825 0.718423 0.862557 0.063877
H2    H     H_    0.838697 0.649284 0.777022 0.212138
H3    H     H_    0.958682 0.800570 0.849908 0.117827
C21   C     C_3   0.684477 0.808385 0.895161 -0.420369
H4    H     H_    0.587458 0.742362 0.947336 0.244271
H5    H     H_    0.712948 0.913718 0.949805 0.203863
C22   C     C_3   0.604324 0.859890 0.788208 -0.881823
H6    H     H_    0.704650 0.907161 0.727170 0.285966
H7    H     H_    0.508979 0.947768 0.819086 0.256510
H8    H     H_    0.538338 0.766290 0.739965 0.260534
O10   O     O_3   0.945239 0.734354 0.191377 -0.616770
C23   C     C_3   0.827717 0.822729 0.143853 0.103245
H9    H     H_    0.729500 0.745039 0.108476 0.215066
H10   H     H_    0.893673 0.898923 0.079553 0.130608
C24   C     C_3   0.727801 0.918424 0.241498 -0.372607
H11   H     H_    0.813198 0.998345 0.289744 0.241052
H12   H     H_    0.666039 0.838845 0.301844 0.245858
C25   C     C_3   0.587314 0.002011 0.191104 -0.955892
H13   H     H_    0.639329 0.076384 0.123947 0.292645
H14   H     H_    0.513411 0.070598 0.264479 0.290410
H15   H     H_    0.502703 0.922038 0.142062 0.242506
C26   C     C_1   0.265111 0.763899 0.241187 0.290823
N6    N     N_1   0.283339 0.853803 0.320240 -0.190037
O11   O     O_3   0.726741 0.327012 0.110684 -0.644143
C27   C     C_3   0.867525 0.264246 0.038015 0.069045
H16   H     H_    0.914881 0.341641 0.973060 0.195451
H17   H     H_    0.833090 0.153612 0.992020 0.134551
C28   C     C_3   0.011532 0.236928 0.113709 -0.320686
H18   H     H_    0.055313 0.346276 0.158038 0.239737
H19   H     H_    0.960456 0.160847 0.181710 0.241673
C29   C     C_3   0.161666 0.159031 0.039386 -0.963450
H20   H     H_    0.121787 0.047154 0.997352 0.248961
H21   H     H_    0.262995 0.141614 0.099516 0.278956
H22   H     H_    0.215412 0.228792 0.966716 0.271497
C30   C     C_1   0.741806 0.013619 0.522204 0.276766
N7    N     N_1   0.878367 0.062727 0.527025 -0.163494
C31   C     C_1   0.024951 0.328375 0.410826 0.424917
N8    N     N_1   0.088859 0.219849 0.365366 -0.250077

loop_
_geom_bond_atom_site_label_1
_geom_bond_atom_site_label_2
_ccdc_geom_bond_type
C27   C28   S    
C24   H12   S    
C22   H6    S    
C1    O2    A    
C14   O10   S    
C3    C9    S    
O8    Zn2   S    
C6    C16   A    
C2    C16   A    
C31   N8    T    
O7    Zn1   S    
O10   C23   S    
C5    O11   S    
C11   O8    A    
C17   N3    T    
C24   C25   S    
C2    C12   A    
C18   N4    T    
C29   H22   S    
C21   H5    S    
C2    C3    A    
C7    C8    D    
C20   H3    S    
N1    Zn2   S    
O3    Zn1   S    
C13   C14   A    
C28   H18   S    
C8    H1    S    
C7    C30   S    
N2    Zn1   S    
C22   H7    S    
C5    C6    A    
O11   C27   S    
C29   H20   S    
N2    C18   S    
O4    Zn2   S    
C10   O6    A    
C23   H10   S    
C23   H9    S    
C22   H8    S    
C20   H2    S    
C9    O4    A    
C19   N5    T    
C20   C21   S    
C1    C7    S    
O6    Zn2   S    
C27   H16   S    
C15   C26   S    
C25   H14   S    
C9    O3    A    
C12   C19   S    
C24   H11   S    
C28   C29   S    
O5    Zn1   S    
C30   N7    T    
N1    C31   S    
C12   C13   A    
C13   O9    S    
C8    C10   S    
N1    N2    D    
C6    C11   S    
C27   H17   S    
C25   H13   S    
O9    C20   S    
C1    O1    A    
C21   H4    S    
O1    Zn1   S    
C11   O7    A    
C10   O5    A    
C26   N6    T    
C14   C15   A    
O2    Zn2   S    
C25   H15   S    
C23   C24   S    
C4    C17   S    
C3    C4    A    
C15   C16   A    
C4    C5    A    
C29   H21   S    
C21   C22   S    
C28   H19   S    
