data_mof_unit_29919.cif
_audit_creation_date              2012-12-10T20:44:49-0500
_audit_creation_method            fapswitch 2.2
_symmetry_space_group_name_H-M    P1
_symmetry_Int_Tables_number       1
_space_group_crystal_system       triclinic
_cell_length_a                    9.910106
_cell_length_b                    10.655553
_cell_length_c                    16.84952
_cell_angle_alpha                 88.130329
_cell_angle_beta                  94.728102
_cell_angle_gamma                 90.265619
_cell_volume                      1772.26776586

loop_
_atom_site_label
_atom_site_type_symbol
_atom_type_description
_atom_site_fract_x
_atom_site_fract_y
_atom_site_fract_z
_atom_type_partial_charge
C1    C     C_R   0.499897 0.259850 0.504168 0.906670
C2    C     C_R   0.500553 0.127396 0.519290 -0.218120
C3    C     C_R   0.382968 0.061408 0.540122 0.525162
C4    C     C_R   0.518092 0.497286 0.652385 0.897118
C5    C     C_R   0.386474 0.929960 0.538601 -0.345442
C6    C     C_R   0.504783 0.869161 0.520964 -0.147757
C7    C     C_R   0.625612 0.935590 0.522039 0.066946
C8    C     C_3   0.745151 0.928132 0.473669 -0.498433
C9    C     C_3   0.740558 0.071335 0.466991 -0.005008
C10   C     C_R   0.078274 0.427114 0.554365 0.026947
C11   C     C_R   0.061954 0.570595 0.444854 0.190811
C12   C     C_R   0.515245 0.389232 0.781439 -0.273309
C13   C     C_R   0.918471 0.564500 0.443215 -0.147416
C14   C     C_R   0.936451 0.428894 0.554643 0.000535
C15   C     C_3   0.941870 0.431473 0.643858 0.865484
C16   C     C_R   0.501028 0.739519 0.503980 0.872297
C17   C     C_3   0.097656 0.428842 0.644074 0.191142
C18   C     C_R   0.482380 0.501123 0.346995 1.006645
C19   C     C_R   0.530231 0.500121 0.737052 -0.023442
C20   C     C_R   0.547471 0.615437 0.773115 -0.301737
C21   C     C_R   0.541885 0.621600 0.855023 0.524165
C22   C     C_R   0.524872 0.510833 0.900331 0.217442
C23   C     C_R   0.589955 0.529740 0.140849 0.381914
C24   C     C_R   0.513230 0.393978 0.863261 -0.270774
C25   C     C_3   0.600540 0.753933 0.270064 -0.370416
C26   C     C_3   0.715318 0.124665 0.380327 -0.345301
C27   C     C_3   0.577886 0.093025 0.336759 -0.857109
C28   C     C_3   0.118525 0.665369 0.387651 -0.377408
C29   C     C_3   0.077191 0.799400 0.404732 -0.905364
C30   C     C_3   0.905159 0.657176 0.640620 -0.250086
C31   C     C_3   0.900695 0.308428 0.756509 -0.301044
C32   C     C_3   0.183563 0.533971 0.754965 -0.286625
C33   C     C_3   0.689447 0.703683 0.085265 -0.163900
C34   C     C_R   0.574448 0.558419 0.219687 0.346817
C35   C     C_3   0.160314 0.394269 0.241743 -0.167112
C36   C     C_3   0.434394 0.800647 0.882105 -0.381253
C37   C     C_3   0.369510 0.174452 0.119479 -0.283961
C38   C     C_3   0.182887 0.066247 0.604746 -0.346475
C39   C     C_R   0.500772 0.443111 0.102363 -0.022806
C40   C     C_R   0.474937 0.494877 0.260991 -0.417427
C41   C     C_R   0.384261 0.410477 0.222081 0.313636
C42   C     C_R   0.401304 0.381014 0.143087 0.359872
C43   C     C_R   0.622147 0.062938 0.517480 0.078558
H1    H     H_    0.295542 0.875874 0.545285 0.187341
H2    H     H_    0.543289 0.746686 0.323937 0.162824
H3    H     H_    0.532020 0.786215 0.217645 0.137039
H4    H     H_    0.679074 0.827470 0.279903 0.187219
H5    H     H_    0.550037 0.993220 0.346326 0.248221
H6    H     H_    0.496943 0.153182 0.356514 0.269861
H7    H     H_    0.582849 0.111697 0.271867 0.229269
H8    H     H_    0.726903 0.228368 0.380213 0.227526
H9    H     H_    0.796584 0.088658 0.345498 0.198860
H10   H     H_    0.095125 0.817248 0.469255 0.257620
H11   H     H_    0.137537 0.867654 0.371049 0.261704
H12   H     H_    0.836345 0.892145 0.510051 0.170871
H13   H     H_    0.968541 0.815254 0.385769 0.254073
H14   H     H_    0.228678 0.664133 0.390202 0.264129
H15   H     H_    0.080504 0.643817 0.325780 0.185846
H16   H     H_    0.809362 0.689921 0.608412 0.199747
H17   H     H_    0.985768 0.660718 0.598854 0.167022
H18   H     H_    0.932975 0.725466 0.687527 0.171412
H19   H     H_    0.838177 0.380278 0.782667 0.226114
H20   H     H_    0.008167 0.315157 0.780514 0.127967
H21   H     H_    0.862691 0.215141 0.775692 0.185024
H22   H     H_    0.239836 0.448095 0.776997 0.162987
H23   H     H_    0.722469 0.879108 0.417051 0.208225
H24   H     H_    0.086317 0.539021 0.783008 0.185168
H25   H     H_    0.245068 0.616317 0.774324 0.177533
H26   H     H_    0.582652 0.736400 0.073571 0.135715
H27   H     H_    0.741047 0.725096 0.030435 0.200681
H28   H     H_    0.742736 0.757736 0.133549 0.176856
H29   H     H_    0.119172 0.355698 0.184250 0.198972
H30   H     H_    0.159105 0.498806 0.237650 0.122270
H31   H     H_    0.091656 0.364549 0.287681 0.169346
H32   H     H_    0.351785 0.745675 0.907961 0.162307
H33   H     H_    0.405967 0.825656 0.818291 0.166829
H34   H     H_    0.830482 0.114649 0.499458 0.154641
H35   H     H_    0.446012 0.889489 0.914531 0.196018
H36   H     H_    0.367056 0.146376 0.183499 0.189481
H37   H     H_    0.474360 0.167030 0.100821 0.147977
H38   H     H_    0.305466 0.106889 0.084492 0.177679
H39   H     H_    0.110998 0.135489 0.624778 0.195358
H40   H     H_    0.243958 0.028630 0.658683 0.153386
H41   H     H_    0.120334 0.991513 0.575436 0.162230
H42   H     H_    0.855970 0.618658 0.398994 0.201966
H43   H     H_    0.147259 0.340674 0.668512 0.081097
H44   H     H_    0.499559 0.307136 0.896839 0.183774
H45   H     H_    0.501934 0.300090 0.752549 0.157085
H46   H     H_    0.560426 0.700628 0.737539 0.150934
N1    N     N_2   0.516707 0.522573 0.982572 -0.115902
N2    N     N_2   0.505762 0.421818 0.020821 -0.112265
N3    N     N_R   0.142860 0.499130 0.500540 -0.091751
N4    N     N_R   0.857210 0.499170 0.500530 -0.137748
O1    O     O_R   0.614690 0.316790 0.499990 -0.623609
O2    O     O_3   0.883820 0.538374 0.678032 -0.604008
O3    O     O_3   0.887268 0.317033 0.672460 -0.655108
O4    O     O_3   0.162431 0.539868 0.671099 -0.575054
O5    O     O_3   0.701222 0.573473 0.103142 -0.567647
O6    O     O_3   0.290558 0.345765 0.264388 -0.582312
O7    O     O_3   0.558388 0.735322 0.891822 -0.612122
O8    O     O_3   0.316155 0.295982 0.103796 -0.578168
O9    O     O_3   0.264027 0.126915 0.549922 -0.579332
O10   O     O_R   0.385350 0.316760 0.500000 -0.551042
O11   O     O_R   0.627460 0.498860 0.616130 -0.568860
O12   O     O_R   0.398120 0.498820 0.616130 -0.567407
O13   O     O_R   0.614650 0.683240 0.500000 -0.638847
O14   O     O_R   0.385310 0.683210 0.500010 -0.633339
O15   O     O_R   0.601880 0.501180 0.383870 -0.590054
O16   O     O_R   0.372540 0.501140 0.383870 -0.624283
O17   O     O_3   0.666168 0.639598 0.257767 -0.562345
Zn1   Zn    Zn3+2 0.653130 0.500020 0.499990 0.968184
Zn2   Zn    Zn3+2 0.346870 0.499980 0.500010 1.000381

loop_
_geom_bond_atom_site_label_1
_geom_bond_atom_site_label_2
_ccdc_geom_bond_type
C27   H5    S    
C35   H31   S    
C8    H23   S    
C38   H40   S    
C41   C42   A    
C19   C20   A    
C18   O16   A    
C7    C8    S    
C28   H14   S    
C37   H36   S    
C26   C27   S    
C34   C40   A    
C28   C29   S    
C1    C2    S    
C15   O2    S    
C5    C6    A    
C29   H11   S    
C10   C17   S    
C31   O3    S    
O1    Zn1   S    
C32   O4    S    
C33   O5    S    
O14   Zn2   S    
C18   C40   S    
C36   H33   S    
C16   O14   A    
C4    C19   S    
C11   N3    A    
C8    C9    S    
C30   H17   S    
C41   O6    S    
C7    C43   A    
C25   H4    S    
C14   N4    A    
C27   H7    S    
C16   O13   A    
C32   H25   S    
C10   N3    A    
C21   C22   A    
C38   H39   S    
C31   H19   S    
C37   H38   S    
C35   O6    S    
C8    H12   S    
C39   N2    S    
C9    C26   S    
C39   C42   A    
O13   Zn1   S    
C37   H37   S    
C9    C43   S    
C12   H45   S    
C17   H43   S    
C31   H20   S    
C10   C14   A    
O16   Zn2   S    
C15   O3    S    
C21   O7    S    
C1    O1    A    
C13   N4    A    
O10   Zn2   S    
C30   O2    S    
C36   H32   S    
C26   H9    S    
C2    C43   A    
C23   C34   A    
C30   H16   S    
C22   N1    S    
C36   O7    S    
C9    H34   S    
C33   H27   S    
N4    Zn1   S    
C32   H24   S    
C25   O17   S    
C3    O9    S    
C40   C41   A    
O12   Zn2   S    
C35   H29   S    
C28   H15   S    
C34   O17   S    
C22   C24   A    
C42   O8    S    
C25   H2    S    
C20   H46   S    
C15   C17   S    
C1    O10   A    
C35   H30   S    
C38   H41   S    
C31   H21   S    
C5    H1    S    
N3    Zn2   S    
C3    C5    A    
O11   Zn1   S    
C6    C7    A    
C29   H13   S    
C33   H26   S    
C4    O12   A    
C12   C24   A    
O15   Zn1   S    
C2    C3    A    
C38   O9    S    
C36   H35   S    
C26   H8    S    
C37   O8    S    
C11   C13   A    
N1    N2    D    
C29   H10   S    
C11   C28   S    
C23   C39   A    
C4    O11   A    
C12   C19   A    
C24   H44   S    
C18   O15   A    
C33   H28   S    
C6    C16   S    
C23   O5    S    
C20   C21   A    
C30   H18   S    
C13   H42   S    
C14   C15   S    
C17   O4    S    
C25   H3    S    
C27   H6    S    
C32   H22   S    
