data_mof_unit_19364.cif
_audit_creation_date              2012-12-10T18:04:35-0500
_audit_creation_method            fapswitch 2.2
_symmetry_space_group_name_H-M    P1
_symmetry_Int_Tables_number       1
_space_group_crystal_system       triclinic
_cell_length_a                    10.844805
_cell_length_b                    9.594016
_cell_length_c                    15.989025
_cell_angle_alpha                 90.000248
_cell_angle_beta                  91.956199
_cell_angle_gamma                 90.000067
_cell_volume                      1662.61231545

loop_
_atom_site_label
_atom_site_type_symbol
_atom_type_description
_atom_site_fract_x
_atom_site_fract_y
_atom_site_fract_z
_atom_type_partial_charge
C1    C     C_R   0.871642 0.501408 0.498324 -0.015765
C2    C     C_R   0.499961 0.371589 0.956116 0.316253
C3    C     C_R   0.499423 0.498889 0.912482 -0.197622
C4    C     C_R   0.500580 0.498888 0.087518 -0.197622
C5    C     C_1   0.499421 0.499139 0.822669 0.161032
C6    C     C_1   0.500581 0.499137 0.177331 0.161033
C7    C     C_1   0.500361 0.499515 0.252383 -0.151175
C8    C     C_1   0.499640 0.499517 0.747617 -0.151174
C9    C     C_R   0.428486 0.074848 0.442626 0.254717
C10   C     C_R   0.570138 0.925151 0.558136 0.236298
C11   C     C_R   0.571515 0.074849 0.557373 0.254722
C12   C     C_R   0.128358 0.501408 0.501677 -0.015766
C13   C     C_R   0.429862 0.925150 0.441864 0.236294
C14   C     C_R   0.063654 0.375455 0.502626 -0.188420
C15   C     C_R   0.936059 0.628214 0.499709 -0.169433
C16   C     C_R   0.936345 0.375455 0.497373 -0.188418
C17   C     C_R   0.063941 0.628214 0.500294 -0.169431
C18   C     C_3   0.226079 0.136874 0.378729 -0.666327
C19   C     C_3   0.607220 0.855143 0.703829 -0.507937
C20   C     C_3   0.773925 0.136868 0.621270 -0.666344
C21   C     C_3   0.392777 0.855139 0.296172 -0.507932
C22   C     C_R   0.262304 0.500264 0.500834 0.782796
C23   C     C_R   0.737696 0.500264 0.499166 0.782797
C24   C     C_R   0.499917 0.499916 0.341453 0.813223
C25   C     C_R   0.500083 0.499917 0.658547 0.813225
C26   C     C_R   0.499301 0.626052 0.956164 0.317378
C27   C     C_R   0.500039 0.371588 0.043883 0.316254
C28   C     C_R   0.500705 0.626052 0.043837 0.317378
Cl1   Cl    Cl    0.503239 0.786039 0.098728 -0.485655
Cl2   Cl    Cl    0.500495 0.211829 0.900851 -0.461836
Cl3   Cl    Cl    0.496771 0.786041 0.901275 -0.485653
Cl4   Cl    Cl    0.499502 0.211828 0.099146 -0.461831
Cu1   Cu    Cu3+1 0.500000 0.640660 0.500000 0.985894
Cu2   Cu    Cu3+1 0.500000 0.359340 0.500000 0.998075
H1    H     H_    0.110994 0.276744 0.507148 0.156339
H2    H     H_    0.647881 0.946536 0.736718 0.225658
H3    H     H_    0.641891 0.760733 0.737060 0.235177
H4    H     H_    0.505063 0.858392 0.707529 0.250831
H5    H     H_    0.601791 0.156203 0.676978 0.273897
H6    H     H_    0.805608 0.071297 0.674937 0.219255
H7    H     H_    0.815644 0.241458 0.630417 0.243401
H8    H     H_    0.806876 0.090180 0.562475 0.201181
H9    H     H_    0.262229 0.856347 0.390002 0.234924
H10   H     H_    0.352094 0.946515 0.263277 0.225651
H11   H     H_    0.358127 0.760714 0.262946 0.235180
H12   H     H_    0.888025 0.727194 0.499903 0.144688
H13   H     H_    0.494934 0.858417 0.292471 0.250825
H14   H     H_    0.889005 0.276744 0.492851 0.156341
H15   H     H_    0.111976 0.727194 0.500102 0.144689
H16   H     H_    0.398212 0.156183 0.323018 0.273896
H17   H     H_    0.194391 0.071305 0.325062 0.219248
H18   H     H_    0.184365 0.241466 0.369583 0.243400
H19   H     H_    0.193127 0.090188 0.437524 0.201178
H20   H     H_    0.737769 0.856346 0.609999 0.234925
N1    N     N_R   0.500000 0.852070 0.500000 -0.208048
N2    N     N_R   0.500000 0.147930 0.500000 -0.213685
N3    N     N_2   0.359052 0.150412 0.380730 -0.365985
N4    N     N_2   0.644055 0.849488 0.617612 -0.398480
N5    N     N_2   0.640953 0.150414 0.619267 -0.365989
N6    N     N_2   0.355943 0.849487 0.382388 -0.398481
O1    O     O_R   0.319640 0.618740 0.499990 -0.575523
O2    O     O_R   0.680360 0.381260 0.500010 -0.559671
O3    O     O_R   0.680360 0.618740 0.500010 -0.575524
O4    O     O_R   0.319640 0.381260 0.499990 -0.559672
O5    O     O_R   0.499970 0.618750 0.380310 -0.548358
O6    O     O_R   0.500030 0.381250 0.619690 -0.555973
O7    O     O_R   0.500030 0.618750 0.619690 -0.548359
O8    O     O_R   0.499970 0.381250 0.380310 -0.555964

loop_
_geom_bond_atom_site_label_1
_geom_bond_atom_site_label_2
_ccdc_geom_bond_type
C12   C17   A    
Cu1   N1    S    
C5    C8    T    
C20   H8    S    
Cu2   N2    S    
C2    C27   A    
C1    C15   A    
C19   H4    S    
C21   H10   S    
C22   O1    A    
C18   N3    S    
C26   C28   A    
C25   O7    A    
Cu1   O3    S    
C2    Cl2   S    
H5    N5    S    
Cu2   O6    S    
C23   O3    A    
C2    C3    A    
C12   C14   A    
C3    C5    S    
C18   H18   S    
C26   Cl3   S    
C11   N2    A    
C1    C16   A    
C21   H13   S    
C13   N6    S    
C20   N5    S    
C8    C25   S    
H16   N3    S    
C16   H14   S    
C6    C7    T    
C24   O5    A    
C11   N5    S    
H9    N6    S    
Cu2   O4    S    
C28   Cl1   S    
C10   N4    S    
Cu1   Cu2   S    
C18   H17   S    
C1    C23   S    
C21   H11   S    
C19   H2    S    
C3    C26   A    
C19   N4    S    
C10   N1    A    
C20   H6    S    
C14   C16   A    
C4    C6    S    
C10   C11   A    
C24   O8    A    
Cu1   O5    S    
C7    C24   S    
C12   C22   S    
Cu2   O2    S    
C4    C27   A    
Cu1   O7    S    
C21   N6    S    
Cu1   O1    S    
H20   N4    S    
Cu2   O8    S    
C14   H1    S    
C9    N2    A    
C9    N3    S    
C9    C13   A    
C19   H3    S    
C18   H19   S    
C4    C28   A    
C27   Cl4   S    
C15   C17   A    
C15   H12   S    
C22   O4    A    
C23   O2    A    
C17   H15   S    
C25   O6    A    
C20   H7    S    
C13   N1    A    
