data_mof_unit_50857.cif
_audit_creation_date              2012-10-26T19:52:50-0400
_audit_creation_method            fapswitch 2.2
_symmetry_space_group_name_H-M    P1
_symmetry_Int_Tables_number       1
_space_group_crystal_system       triclinic
_cell_length_a                    15.034424
_cell_length_b                    10.860599
_cell_length_c                    9.584946
_cell_angle_alpha                 90.867577
_cell_angle_beta                  89.307611
_cell_angle_gamma                 90.04677
_cell_volume                      1564.76331031

loop_
_atom_site_label
_atom_site_type_symbol
_atom_type_description
_atom_site_fract_x
_atom_site_fract_y
_atom_site_fract_z
_atom_type_partial_charge
C1    C     C_R   0.496934 0.262676 0.498832 0.555209
C2    C     C_R   0.188342 0.426434 0.401269 -0.145600
C3    C     C_R   0.232545 0.497214 0.501715 -0.007303
C4    C     C_R   0.328978 0.499770 0.500702 0.536806
C5    C     C_R   0.184684 0.565756 0.601754 -0.143337
C6    C     C_R   0.525654 0.066683 0.612029 -0.064425
C7    C     C_R   0.496446 0.129298 0.495628 -0.013615
C8    C     C_R   0.472660 0.060832 0.375094 0.213312
C9    C     C_R   0.475944 0.932182 0.377580 -0.170145
C10   C     C_R   0.499250 0.870780 0.499848 -0.069662
C11   C     C_R   0.527952 0.940011 0.614520 0.063353
C12   C     C_R   0.905904 0.565689 0.594499 -0.000671
C13   C     C_3   0.499878 0.937943 0.764778 0.152757
C14   C     C_3   0.495447 0.077997 0.760084 -0.222150
C15   C     C_R   0.578572 0.497045 0.071845 0.196067
C16   C     C_R   0.499040 0.737463 0.500766 0.547313
C17   C     C_R   0.422705 0.496609 0.075227 -0.031134
C18   C     C_R   0.422728 0.495826 0.927285 -0.028630
C19   C     C_R   0.577818 0.497095 0.924248 0.147823
C20   C     C_3   0.649370 0.590097 0.913003 -0.260657
C21   C     C_3   0.650663 0.594037 0.071209 -0.162927
C22   C     C_R   0.671094 0.497387 0.499529 0.561234
C23   C     C_R   0.958803 0.341129 0.302745 0.005125
C24   C     C_R   0.813758 0.568837 0.590533 -0.193775
C25   C     C_R   0.767899 0.491032 0.499748 -0.019553
C26   C     C_R   0.813821 0.405672 0.413172 0.227786
C27   C     C_R   0.908006 0.410666 0.403345 0.027150
C28   C     C_R   0.953499 0.489272 0.499036 0.002315
C29   C     C_3   0.546779 0.902907 0.989827 -0.024868
C30   C     C_3   0.629471 0.934141 0.073056 -0.373215
C31   C     C_3   0.740994 0.553304 0.125938 -0.384764
C32   C     C_3   0.748066 0.218227 0.430245 -0.007675
C33   C     C_3   0.704684 0.114550 0.347512 -0.376679
C34   C     C_R   0.051820 0.348471 0.303695 -0.132095
C35   C     C_3   0.917982 0.261953 0.189623 -0.357197
C36   C     C_3   0.352705 0.119620 0.251149 -0.002009
C37   C     C_3   0.322931 0.168540 0.111500 -0.374568
C38   C     C_R   0.095722 0.421781 0.401510 -0.003400
C39   C     C_R   0.046936 0.492030 0.500166 0.057404
C40   C     C_R   0.091901 0.565608 0.599986 0.019135
C41   C     C_R   0.043531 0.638438 0.695522 -0.135183
C42   C     C_R   0.951075 0.639653 0.691632 -0.125764
Cu1   Cu    Cu3+1 0.500000 0.499980 0.640670 0.931938
Cu2   Cu    Cu3+1 0.500000 0.500020 0.359330 0.965732
H1    H     H_    0.777303 0.632502 0.658072 0.121555
H2    H     H_    0.627629 0.682346 0.118239 0.145229
H3    H     H_    0.090758 0.295909 0.227661 0.101898
H4    H     H_    0.226274 0.373355 0.324458 0.103767
H5    H     H_    0.219740 0.621350 0.678373 0.106252
H6    H     H_    0.077232 0.695537 0.772087 0.101174
H7    H     H_    0.914747 0.697933 0.765292 0.106950
H8    H     H_    0.520308 0.811963 0.021706 0.132399
H9    H     H_    0.495338 0.973827 0.016084 0.155257
H10   H     H_    0.648923 0.031213 0.054363 0.157191
H11   H     H_    0.616137 0.921791 0.185914 0.113887
H12   H     H_    0.456620 0.880924 0.284934 0.136851
H13   H     H_    0.685640 0.873456 0.040563 0.152793
H14   H     H_    0.748643 0.584835 0.235192 0.166152
H15   H     H_    0.748547 0.451977 0.116907 0.182845
H16   H     H_    0.795691 0.597610 0.065955 0.111086
H17   H     H_    0.701515 0.246699 0.515919 0.143154
H18   H     H_    0.810334 0.181876 0.476413 0.123072
H19   H     H_    0.751714 0.076908 0.267745 0.128302
H20   H     H_    0.684952 0.039198 0.418503 0.108196
H21   H     H_    0.644904 0.149620 0.294254 0.199503
H22   H     H_    0.868826 0.315472 0.130418 0.161564
H23   H     H_    0.435312 0.889809 0.782846 0.097741
H24   H     H_    0.968473 0.228134 0.112646 0.096426
H25   H     H_    0.886894 0.179541 0.235898 0.156006
H26   H     H_    0.325755 0.180924 0.335715 0.130276
H27   H     H_    0.324073 0.025535 0.262700 0.112479
H28   H     H_    0.346814 0.106846 0.025526 0.134960
H29   H     H_    0.249174 0.173077 0.109169 0.081335
H30   H     H_    0.350235 0.262108 0.095616 0.162081
H31   H     H_    0.426519 0.114304 0.770742 0.091680
H32   H     H_    0.545515 0.126007 0.825885 0.171252
H33   H     H_    0.359577 0.495161 0.129914 0.118530
H34   H     H_    0.359737 0.493569 0.874438 0.120041
H35   H     H_    0.709818 0.549691 0.862680 0.131876
H36   H     H_    0.626417 0.676735 0.865699 0.194841
N1    N     N_R   0.500570 0.500930 0.147930 -0.234958
N2    N     N_R   0.500570 0.500890 0.852020 -0.234943
O1    O     O_R   0.500000 0.319640 0.618810 -0.511839
O2    O     O_3   0.765926 0.317541 0.340385 -0.574657
O3    O     O_3   0.446591 0.118084 0.254421 -0.549499
O4    O     O_R   0.500010 0.319680 0.381230 -0.441923
O5    O     O_R   0.370250 0.499950 0.618800 -0.519220
O6    O     O_R   0.370260 0.499990 0.381220 -0.519840
O7    O     O_R   0.499990 0.680320 0.618770 -0.483920
O8    O     O_R   0.500000 0.680360 0.381190 -0.518114
O9    O     O_R   0.629740 0.500010 0.618780 -0.518373
O10   O     O_R   0.629750 0.500050 0.381200 -0.471501
O11   O     O_3   0.570733 0.897214 0.846939 -0.559271

loop_
_geom_bond_atom_site_label_1
_geom_bond_atom_site_label_2
_ccdc_geom_bond_type
C37   H30   S    
C16   O8    A    
Cu1   O1    S    
C41   C42   A    
C19   C20   S    
C33   H21   S    
C7    C8    A    
C15   N1    A    
C4    O5    A    
C15   C19   A    
C21   C31   S    
C26   C27   A    
Cu1   O7    S    
C12   C28   A    
C24   H1    S    
C31   H14   S    
C36   C37   S    
C32   H17   S    
C38   C39   A    
C30   H13   S    
C8    O3    S    
C31   H15   S    
C12   C42   A    
C8    C9    A    
C22   C25   S    
C22   O9    A    
C23   C27   A    
C19   N2    A    
C9    C10   A    
Cu2   O10   S    
C36   H27   S    
C18   H34   S    
C42   H7    S    
C16   O7    A    
C1    C7    S    
C13   C14   S    
C5    H5    S    
Cu2   O4    S    
C36   H26   S    
C32   O2    S    
C20   H36   S    
C24   C25   A    
Cu2   N1    S    
C39   C40   A    
C35   H22   S    
C2    H4    S    
C25   C26   A    
Cu1   O9    S    
C13   O11   S    
C14   H32   S    
C31   H16   S    
Cu1   Cu2   S    
C29   C30   S    
C6    C14   S    
C30   H10   S    
C2    C38   A    
C33   H19   S    
C23   C34   A    
C17   H33   S    
C17   C18   A    
C9    H12   S    
C40   C41   A    
C23   C35   S    
C5    C40   A    
C3    C4    S    
C41   H6    S    
C6    C11   A    
Cu2   O8    S    
C21   H2    S    
C13   H23   S    
C1    O4    A    
C37   H29   S    
C26   O2    S    
C20   H35   S    
C34   C38   A    
C3    C5    A    
C6    C7    A    
C4    O6    A    
C36   O3    S    
C1    O1    A    
C30   H11   S    
C12   C24   A    
C28   C39   A    
Cu1   O5    S    
C32   C33   S    
C2    C3    A    
C32   H18   S    
C10   C16   S    
C14   H31   S    
C29   O11   S    
C11   C13   S    
C29   H9    S    
C35   H24   S    
C33   H20   S    
C18   N2    A    
C17   N1    A    
C10   C11   A    
C15   C21   S    
C20   C21   S    
C35   H25   S    
C37   H28   S    
C27   C28   A    
Cu1   N2    S    
C22   O10   A    
C34   H3    S    
Cu2   O6    S    
C29   H8    S    
