data_mof_unit_32291.cif
_audit_creation_date              2012-12-11T17:41:37-0500
_audit_creation_method            fapswitch 2.2
_symmetry_space_group_name_H-M    P1
_symmetry_Int_Tables_number       1
_space_group_crystal_system       triclinic
_cell_length_a                    15.54707
_cell_length_b                    14.903374
_cell_length_c                    15.166802
_cell_angle_alpha                 109.483065
_cell_angle_beta                  120.827201
_cell_angle_gamma                 58.674519
_cell_volume                      2566.99956103

loop_
_atom_site_label
_atom_site_type_symbol
_atom_type_description
_atom_site_fract_x
_atom_site_fract_y
_atom_site_fract_z
_atom_type_partial_charge
C1    C     C_R   0.795322 0.948230 0.777545 -0.118200
C2    C     C_R   0.303731 0.371255 0.090636 -0.050596
C3    C     C_R   0.616657 0.702008 0.870017 -0.133339
C4    C     C_R   0.377502 0.266927 0.077337 -0.178213
C5    C     C_R   0.654913 0.773929 0.946301 0.124511
C6    C     C_R   0.340278 0.187785 0.031880 0.132059
C7    C     C_R   0.769767 0.742504 0.004389 -0.180115
C8    C     C_R   0.227126 0.215004 0.995419 -0.183426
C9    C     C_R   0.845059 0.640931 0.985550 -0.099274
C10   C     C_R   0.153709 0.319383 0.010130 -0.129370
C11   C     C_R   0.806301 0.569535 0.910078 -0.089315
C12   C     C_R   0.225449 0.026189 0.212788 -0.130077
C13   C     C_R   0.192146 0.397455 0.058200 -0.018812
C14   C     C_R   0.580644 0.911454 0.066974 -0.247290
C15   C     C_R   0.410507 0.046937 0.914026 -0.231524
C16   C     C_R   0.241372 0.291139 0.489556 -0.172566
C17   C     C_R   0.805107 0.728914 0.564171 -0.201809
C18   C     C_R   0.503262 0.009989 0.088956 0.058557
C19   C     C_R   0.490206 0.950453 0.892590 0.058226
C20   C     C_R   0.417492 0.078803 0.012143 0.012579
C21   C     C_R   0.574790 0.880290 0.968338 0.015966
C22   C     C_2   0.144912 0.399731 0.610517 0.575342
C23   C     C_R   0.208797 0.300864 0.563772 -0.051352
C24   C     C_2   0.985729 0.662673 0.548106 0.579367
C25   C     C_2   0.136611 0.491538 0.603139 -0.228381
C26   C     C_2   0.045732 0.590579 0.616356 -0.285871
C27   C     C_2   0.967012 0.978162 0.854396 -0.217488
C28   C     C_2   0.109993 0.925811 0.108273 -0.180828
C29   C     C_R   0.160254 0.676503 0.103220 -0.190804
C30   C     C_R   0.750073 0.110256 0.296142 -0.135235
C31   C     C_R   0.223833 0.647706 0.204229 -0.133647
C32   C     C_R   0.668049 0.204156 0.317322 -0.155071
C33   C     C_R   0.339957 0.611823 0.249667 0.183026
C34   C     C_R   0.867807 0.731033 0.525408 -0.020547
C35   C     C_R   0.696064 0.273006 0.405502 0.194938
C36   C     C_R   0.388843 0.614002 0.194156 -0.165881
C37   C     C_R   0.809342 0.242969 0.473573 -0.137533
C38   C     C_R   0.324719 0.643841 0.093640 -0.110128
C39   C     C_R   0.891152 0.148474 0.452529 -0.165990
C40   C     C_R   0.591725 0.219533 0.492089 -0.145369
C41   C     C_R   0.412435 0.763607 0.450715 -0.139256
C42   C     C_R   0.211134 0.671988 0.047205 -0.047733
C43   C     C_R   0.861635 0.082425 0.363694 -0.079160
C44   C     C_R   0.403410 0.472034 0.354767 0.586342
C45   C     C_R   0.499708 0.301492 0.433603 0.142488
C46   C     C_R   0.612390 0.470563 0.451914 0.607114
C47   C     C_R   0.501041 0.380632 0.397399 -0.189744
C48   C     C_R   0.514041 0.563736 0.414501 -0.194617
C49   C     C_R   0.604531 0.374675 0.422196 -0.209639
C50   C     C_R   0.414547 0.555112 0.345083 -0.212096
C51   C     C_2   0.023990 0.909671 0.924441 -0.136428
C52   C     C_2   0.110988 0.924291 0.020275 -0.120373
C53   C     C_R   0.406372 0.987274 0.713337 -0.158329
C54   C     C_R   0.594488 0.990850 0.276616 -0.140098
C55   C     C_R   0.408336 0.288577 0.410315 -0.135849
C56   C     C_R   0.508119 0.669762 0.457259 0.139571
C57   C     C_R   0.596595 0.694469 0.519542 -0.121535
C58   C     C_R   0.590570 0.918422 0.791863 -0.112868
C59   C     C_R   0.408847 0.065977 0.201633 -0.122030
C60   C     C_R   0.241721 0.199860 0.581634 -0.091017
C61   C     C_R   0.802364 0.818060 0.470047 -0.071630
C62   C     C_R   0.797495 0.039067 0.687399 -0.164460
C63   C     C_R   0.220155 0.937342 0.302205 -0.136551
C64   C     C_R   0.855742 0.991736 0.778142 0.151945
C65   C     C_R   0.181762 0.961902 0.204355 0.149430
C66   C     C_3   0.085246 0.723244 0.535476 -0.329768
C67   C     C_R   0.496647 0.940486 0.799259 0.059707
C68   C     C_3   0.996335 0.383379 0.586384 -0.224515
C69   C     C_3   0.261187 0.540524 0.399580 -0.342111
C70   C     C_3   0.724999 0.479506 0.621690 -0.401374
C71   C     C_R   0.502524 0.028911 0.186941 0.059457
C72   C     C_R   0.692211 0.599823 0.853039 -0.130220
H1    H     H_    0.819657 0.897126 0.830511 0.082050
H2    H     H_    0.462531 0.248318 0.098799 0.108861
H3    H     H_    0.800829 0.796845 0.063668 0.107819
H4    H     H_    0.196409 0.155186 0.956898 0.106888
H5    H     H_    0.933379 0.617344 0.030030 0.100394
H6    H     H_    0.066979 0.339848 0.983569 0.105054
H7    H     H_    0.642938 0.856572 0.125594 0.138659
H8    H     H_    0.347799 0.102894 0.856403 0.139894
H9    H     H_    0.014421 0.594028 0.667458 0.152927
H10   H     H_    0.182313 0.492567 0.568612 0.136249
H11   H     H_    0.162458 0.691275 0.968079 0.108407
H12   H     H_    0.204463 0.067681 0.153353 0.088783
H13   H     H_    0.925149 0.009431 0.347540 0.096278
H14   H     H_    0.227399 0.353407 0.455658 0.110550
H15   H     H_    0.834869 0.680405 0.622049 0.104275
H16   H     H_    0.071566 0.700903 0.067777 0.106988
H17   H     H_    0.726962 0.058914 0.227367 0.113721
H18   H     H_    0.181668 0.651099 0.244485 0.149621
H19   H     H_    0.582219 0.223250 0.264854 0.120009
H20   H     H_    0.477843 0.586532 0.226184 0.125498
H21   H     H_    0.836217 0.289455 0.544455 0.149779
H22   H     H_    0.363750 0.642012 0.050623 0.114548
H23   H     H_    0.054092 0.903353 0.108985 0.129121
H24   H     H_    0.977698 0.126280 0.505544 0.107430
H25   H     H_    0.678258 0.197800 0.517853 0.111570
H26   H     H_    0.328864 0.771333 0.413386 0.098308
H27   H     H_    0.320437 0.007862 0.690729 0.089508
H28   H     H_    0.680985 0.959849 0.293372 0.098908
H29   H     H_    0.325124 0.324394 0.352478 0.173097
H30   H     H_    0.683097 0.644340 0.539797 0.177215
H31   H     H_    0.676352 0.878089 0.843995 0.100285
H32   H     H_    0.323371 0.103802 0.149182 0.101889
H33   H     H_    0.228772 0.178954 0.634148 0.116531
H34   H     H_    0.997225 0.032140 0.859882 0.129808
H35   H     H_    0.830046 0.851252 0.441623 0.106301
H36   H     H_    0.827354 0.069140 0.658262 0.095617
H37   H     H_    0.191558 0.898373 0.322720 0.086196
H38   H     H_    0.165955 0.947181 0.018491 0.129416
H39   H     H_    0.994540 0.856119 0.920786 0.124209
H40   H     H_    0.163496 0.684869 0.602520 0.154300
H41   H     H_    0.034189 0.804249 0.560805 0.136275
H42   H     H_    0.107635 0.731755 0.481069 0.165093
H43   H     H_    0.016599 0.307003 0.538269 0.131885
H44   H     H_    0.936187 0.449858 0.536554 0.162938
H45   H     H_    0.864581 0.490587 0.896210 0.093359
H46   H     H_    0.955440 0.381835 0.627506 0.182239
H47   H     H_    0.176801 0.548142 0.372991 0.213408
H48   H     H_    0.255676 0.621405 0.415455 0.134929
H49   H     H_    0.315409 0.501389 0.472515 0.150458
H50   H     H_    0.730007 0.407687 0.635270 0.152976
H51   H     H_    0.655789 0.550223 0.637010 0.167121
H52   H     H_    0.802957 0.486959 0.678409 0.185206
H53   H     H_    0.135235 0.478330 0.068917 0.105681
H54   H     H_    0.662198 0.543829 0.796220 0.102615
H55   H     H_    0.333091 0.431700 0.124642 0.126401
H56   H     H_    0.528472 0.724322 0.825442 0.103969
N1    N     N_R   0.705410 0.966550 0.689210 -0.043496
N2    N     N_R   0.556610 0.796750 0.548620 -0.052462
N3    N     N_R   0.556610 0.951620 0.703500 -0.040474
N4    N     N_R   0.443390 0.048380 0.296500 -0.040719
N5    N     N_R   0.294590 0.131500 0.522480 -0.044858
N6    N     N_R   0.705410 0.868500 0.477520 -0.043928
N7    N     N_R   0.705410 0.023370 0.632390 -0.040619
N8    N     N_R   0.294590 0.976630 0.367610 -0.042914
N9    N     N_R   0.294590 0.033450 0.310790 -0.043833
N10   N     N_R   0.294590 0.188320 0.465660 -0.031719
N11   N     N_R   0.705410 0.811680 0.534340 -0.032870
N12   N     N_R   0.556610 0.157790 0.497330 -0.042865
N13   N     N_R   0.443390 0.842210 0.502670 -0.044387
N14   N     N_R   0.443390 0.997080 0.657540 -0.038037
N15   N     N_R   0.556610 0.002920 0.342460 -0.037468
N16   N     N_R   0.443390 0.203250 0.451380 -0.051950
Ni1   Ni    Ni4+2 0.629830 0.882720 0.617850 0.209842
Ni2   Ni    Ni4+2 0.370170 0.117280 0.382150 0.218412
Ni3   Ni    Ni4+2 0.629830 0.013030 0.487540 0.211776
Ni4   Ni    Ni4+2 0.370170 0.986970 0.512460 0.204889
O1    O     O_3   0.026229 0.660722 0.484335 -0.610525
O2    O     O_3   0.092258 0.397790 0.660626 -0.624066
O3    O     O_3   0.299022 0.480192 0.321759 -0.637366
O4    O     O_3   0.712994 0.472997 0.520989 -0.643049

loop_
_geom_bond_atom_site_label_1
_geom_bond_atom_site_label_2
_ccdc_geom_bond_type
C46   O4    S    
C63   C65   A    
C15   C19   A    
C66   H41   S    
C29   C42   A    
C14   C18   A    
C22   O2    S    
C10   H6    S    
C47   C49   A    
C53   H27   S    
N15   Ni3   S    
C57   H30   S    
C46   C49   A    
C28   H23   S    
C6    C8    A    
C59   H32   S    
C14   C21   A    
C35   C37   A    
C24   C26   D    
C38   C42   A    
C1    N1    A    
C32   H19   S    
C62   H36   S    
C8    H4    S    
C33   C36   A    
C56   C57   A    
C12   H12   S    
C7    C9    A    
C53   N14   A    
N2    N13   A    
C2    C13   A    
C70   H50   S    
C29   H16   S    
C62   C64   A    
N13   Ni4   S    
C68   H46   S    
N1    N7    A    
C70   H51   S    
C54   C71   A    
C22   C25   D    
C35   C49   S    
C31   C33   A    
C19   C67   S    
C52   H38   S    
C4    H2    S    
C44   C47   A    
C13   H53   S    
C2    H55   S    
C36   H20   S    
N4    N15   A    
C48   C50   A    
C54   N15   A    
N5    N10   A    
C17   H15   S    
N2    Ni1   S    
C16   H14   S    
C54   H28   S    
C23   C60   A    
C30   H17   S    
C61   H35   S    
N12   Ni3   S    
C22   C23   S    
C27   C51   D    
C61   N6    A    
C45   C47   S    
C40   C45   A    
C46   C48   A    
C59   N4    A    
C44   O3    S    
C51   C52   S    
C43   H13   S    
C32   C35   A    
N14   Ni4   S    
N9    Ni2   S    
C70   O4    S    
C66   O1    S    
N16   Ni2   S    
C27   C64   S    
N6    N11   A    
C5    C7    A    
C11   C72   A    
C39   C43   A    
C27   H34   S    
C25   C26   S    
C69   H47   S    
C34   C61   A    
C24   C34   S    
C72   H54   S    
C15   C20   A    
C69   O3    S    
C62   N7    A    
C63   H37   S    
N3    Ni1   S    
C2    C4    A    
C41   C56   A    
C41   N13   A    
N6    Ni3   S    
C57   N2    A    
C15   H8    S    
C69   H49   S    
C58   N3    A    
C31   H18   S    
C38   H22   S    
C37   H21   S    
C17   N11   A    
N5    Ni4   S    
C9    H5    S    
C14   H7    S    
C9    C11   A    
N8    Ni4   S    
N3    N14   A    
C68   H44   S    
C4    C6    A    
C26   H9    S    
N7    Ni3   S    
C25   H10   S    
C30   C43   A    
C17   C34   A    
C11   H45   S    
C1    C64   A    
C40   H25   S    
C44   C50   A    
C18   C71   S    
C48   C56   S    
N11   Ni1   S    
C51   H39   S    
C55   N16   A    
C66   H42   S    
C19   C21   A    
C3    H56   S    
N1    Ni1   S    
C8    C10   A    
C16   N10   A    
C42   H11   S    
N12   N16   A    
N8    N9    A    
C3    C5    A    
C10   C13   A    
C7    H3    S    
C16   C23   A    
C6    C20   S    
C12   C65   A    
C55   H29   S    
C69   H48   S    
C1    H1    S    
C63   N8    A    
C36   C38   A    
C28   C65   S    
C33   C50   S    
N4    Ni2   S    
C29   C31   A    
C30   C32   A    
C28   C52   D    
N10   Ni2   S    
C40   N12   A    
C3    C72   A    
C18   C20   A    
C53   C67   A    
C39   H24   S    
C68   O2    S    
C24   O1    S    
C68   H43   S    
C70   H52   S    
C58   C67   A    
C5    C21   S    
C45   C55   A    
C37   C39   A    
C12   N9    A    
C58   H31   S    
C66   H40   S    
C60   N5    A    
C41   H26   S    
C60   H33   S    
C59   C71   A    
