data_mof_unit_17278.cif
_audit_creation_date              2012-12-10T16:48:48-0500
_audit_creation_method            fapswitch 2.2
_symmetry_space_group_name_H-M    P1
_symmetry_Int_Tables_number       1
_space_group_crystal_system       triclinic
_cell_length_a                    17.296904
_cell_length_b                    8.68876
_cell_length_c                    7.440303
_cell_angle_alpha                 102.915089
_cell_angle_beta                  90.218874
_cell_angle_gamma                 93.000328
_cell_volume                      1088.2730915

loop_
_atom_site_label
_atom_site_type_symbol
_atom_type_description
_atom_site_fract_x
_atom_site_fract_y
_atom_site_fract_z
_atom_type_partial_charge
C1    C     C_R   0.497632 0.199749 0.453658 0.888626
C2    C     C_R   0.502368 0.800251 0.546342 0.888625
C3    C     C_2   0.496507 0.031916 0.427503 -0.371265
C4    C     C_2   0.503493 0.968084 0.572497 -0.371264
C5    C     C_R   0.351292 0.505408 0.526594 0.787233
C6    C     C_R   0.648707 0.494594 0.473406 0.787235
C7    C     C_R   0.267736 0.517999 0.544319 -0.023967
C8    C     C_R   0.732264 0.482009 0.455682 -0.023966
C9    C     C_R   0.224653 0.544267 0.394939 -0.199943
C10   C     C_R   0.775348 0.455743 0.605062 -0.199943
C11   C     C_R   0.145088 0.552372 0.405949 -0.150370
C12   C     C_R   0.854913 0.447649 0.594054 -0.150369
C13   C     C_R   0.107093 0.531707 0.565662 0.193380
C14   C     C_R   0.892908 0.468320 0.434343 0.193379
C15   C     C_R   0.150167 0.512535 0.718330 -0.167864
C16   C     C_R   0.849833 0.487489 0.281675 -0.167864
C17   C     C_R   0.230362 0.505348 0.707768 -0.195395
C18   C     C_R   0.769638 0.494667 0.292235 -0.195395
C19   C     C_2   0.022538 0.528215 0.575014 -0.227837
C20   C     C_2   0.977463 0.471818 0.424991 -0.227837
Cu1   Cu    Cu3+1 0.508700 0.517250 0.683000 0.949650
Cu2   Cu    Cu3+1 0.491300 0.482750 0.317000 0.949650
H1    H     H_    0.252358 0.558863 0.269004 0.153944
H2    H     H_    0.747644 0.441142 0.730995 0.153944
H3    H     H_    0.737257 0.513077 0.174612 0.147241
H4    H     H_    0.262742 0.486937 0.825391 0.147241
H5    H     H_    0.002736 0.430804 0.290573 0.142996
H6    H     H_    0.997265 0.569228 0.709431 0.142996
H7    H     H_    0.886317 0.424934 0.710695 0.121402
H8    H     H_    0.113686 0.575088 0.289307 0.121402
H9    H     H_    0.489925 0.960512 0.287689 0.179688
H10   H     H_    0.510074 0.039488 0.712311 0.179688
H11   H     H_    0.439175 0.379253 0.958142 0.223708
H12   H     H_    0.560825 0.620747 0.041857 0.223707
N1    N     N_2   0.478180 0.456750 0.041980 -0.219824
N2    N     N_2   0.521820 0.543250 0.958020 -0.219824
O1    O     O_R   0.505650 0.286040 0.618880 -0.584252
O2    O     O_R   0.494350 0.713960 0.381120 -0.584253
O3    O     O_R   0.490960 0.256910 0.309800 -0.584281
O4    O     O_R   0.509040 0.743090 0.690200 -0.584282
O5    O     O_R   0.394600 0.516230 0.672450 -0.593098
O6    O     O_R   0.605400 0.483770 0.327550 -0.593099
O7    O     O_R   0.379910 0.487100 0.363380 -0.588277
O8    O     O_R   0.620090 0.512900 0.636620 -0.588277
H13   H     H_    0.121546 0.498919 0.843591 0.118503
H14   H     H_    0.878454 0.501111 0.156416 0.118504

loop_
_geom_bond_atom_site_label_1
_geom_bond_atom_site_label_2
_ccdc_geom_bond_type
C2    C4    S    
C15   C17   A    
Cu2   N1    S    
C20   H5    S    
C2    O4    A    
C12   H7    S    
Cu1   O8    S    
C11   C13   A    
C2    O2    A    
C19   C20   D    
C1    O1    A    
C5    O7    A    
Cu1   N2    S    
Cu2   O6    S    
Cu1   Cu2   S    
C3    H9    S    
C19   H6    S    
C9    C11   A    
C4    H10   S    
Cu1   O4    S    
C10   C12   A    
Cu1   O5    S    
C17   H4    S    
C8    C10   A    
H11   N1    S    
C12   C14   A    
H12   N2    S    
C13   C15   A    
C18   H3    S    
C14   C16   A    
C1    O3    A    
C5    O5    A    
C3    C4    D    
Cu2   O2    S    
C14   C20   S    
Cu1   O1    S    
C6    O8    A    
C7    C9    A    
C6    O6    A    
C16   H14   S    
C1    C3    S    
C5    C7    S    
C15   H13   S    
C9    H1    S    
C13   C19   S    
C6    C8    S    
C10   H2    S    
Cu2   O3    S    
C16   C18   A    
C8    C18   A    
Cu2   O7    S    
C11   H8    S    
C7    C17   A    
N1    N2    D    
