data_mof_unit_50915.cif
_audit_creation_date              2012-12-10T17:36:35-0500
_audit_creation_method            fapswitch 2.2
_symmetry_space_group_name_H-M    P1
_symmetry_Int_Tables_number       1
_space_group_crystal_system       triclinic
_cell_length_a                    12.019638
_cell_length_b                    12.842629
_cell_length_c                    15.710624
_cell_angle_alpha                 90.581517
_cell_angle_beta                  85.162772
_cell_angle_gamma                 94.613742
_cell_volume                      2408.66888102

loop_
_atom_site_label
_atom_site_type_symbol
_atom_type_description
_atom_site_fract_x
_atom_site_fract_y
_atom_site_fract_z
_atom_type_partial_charge
C1    C     C_R   0.523325 0.700372 0.493723 0.940604
C2    C     C_R   0.537705 0.024333 0.520930 -0.175762
C3    C     C_R   0.955925 0.402824 0.419323 0.088517
C4    C     C_R   0.043441 0.586661 0.590191 0.086018
C5    C     C_R   0.839738 0.417450 0.422896 0.281869
C6    C     C_R   0.161251 0.578816 0.579952 0.277779
C7    C     C_R   0.856468 0.533890 0.540503 -0.082784
C8    C     C_R   0.142361 0.462702 0.462678 -0.084106
C9    C     C_R   0.974554 0.530375 0.533945 -0.039376
C10   C     C_R   0.024505 0.465217 0.471330 -0.033880
C11   C     C_R   0.499301 0.500156 0.662063 0.890082
C12   C     C_R   0.476640 0.299696 0.502555 0.947386
C13   C     C_R   0.500634 0.499601 0.337982 0.875266
C14   C     C_3   0.450037 0.584025 0.032099 -0.494509
C15   C     C_3   0.549601 0.411131 0.968121 -0.496263
C16   C     C_3   0.555881 0.584210 0.968860 0.493155
C17   C     C_3   0.443759 0.410951 0.031443 0.490115
C18   C     C_1   0.497674 0.498698 0.751005 -0.178866
C19   C     C_1   0.501928 0.499324 0.249117 -0.211140
C20   C     C_3   0.394178 0.494298 0.980190 0.491747
C21   C     C_3   0.605435 0.500860 0.020094 0.488067
C22   C     C_3   0.499061 0.496087 0.916998 -0.083817
C23   C     C_R   0.628517 0.969755 0.543609 0.470287
C24   C     C_3   0.500541 0.499118 0.083214 -0.078751
C25   C     C_1   0.497671 0.497245 0.826262 0.090280
C26   C     C_1   0.501864 0.499156 0.173892 0.077925
C27   C     C_R   0.459244 0.188009 0.501116 -0.303675
C28   C     C_R   0.539898 0.812554 0.486711 -0.323851
C29   C     C_3   0.645544 0.746159 0.990319 -0.306042
C30   C     C_3   0.354307 0.248818 0.010425 -0.311348
C31   C     C_3   0.792974 0.492924 0.979667 -0.301786
C32   C     C_3   0.206711 0.501852 0.021110 -0.301715
C33   C     C_3   0.531693 0.200612 0.687065 -0.793927
C34   C     C_R   0.369620 0.032203 0.442271 0.482363
C35   C     C_3   0.438101 0.789907 0.312420 -0.714641
C36   C     C_3   0.347960 0.218920 0.326840 -0.211153
C37   C     C_3   0.798078 0.827436 0.451646 -0.272827
C38   C     C_3   0.720728 0.988566 0.664716 -0.244617
C39   C     C_3   0.185781 0.973790 0.455998 -0.292593
C40   C     C_3   0.256313 0.738409 0.634366 -0.740497
C41   C     C_3   0.779559 0.411456 0.279557 -0.706360
C42   C     C_3   0.016882 0.228153 0.412637 -0.763897
C43   C     C_3   0.966374 0.748304 0.638713 -0.779133
C44   C     C_R   0.633172 0.865596 0.519566 0.373340
C45   C     C_R   0.378845 0.140383 0.450604 0.354278
C46   C     C_R   0.457813 0.867719 0.452709 0.147165
C47   C     C_R   0.531161 0.129329 0.543106 0.162915
C48   C     C_R   0.454520 0.974298 0.471202 -0.182218
H1    H     H_    0.410512 0.652895 0.060582 0.173272
H2    H     H_    0.300087 0.184496 0.042692 0.184307
H3    H     H_    0.787277 0.549830 0.927604 0.197029
H4    H     H_    0.783892 0.411592 0.954862 0.162829
H5    H     H_    0.878011 0.505999 0.002205 0.177738
H6    H     H_    0.215777 0.583086 0.046132 0.163339
H7    H     H_    0.212677 0.444760 0.072983 0.193259
H8    H     H_    0.121566 0.488782 0.998768 0.177805
H9    H     H_    0.659336 0.229689 0.588740 0.268259
H10   H     H_    0.590021 0.225725 0.735871 0.232000
H11   H     H_    0.478136 0.131024 0.711638 0.238230
H12   H     H_    0.589120 0.342257 0.939647 0.171640
H13   H     H_    0.478317 0.265195 0.676752 0.223370
H14   H     H_    0.323119 0.764821 0.419915 0.251813
H15   H     H_    0.373141 0.760426 0.269981 0.229182
H16   H     H_    0.495489 0.727726 0.319846 0.202342
H17   H     H_    0.486011 0.859271 0.281902 0.235318
H18   H     H_    0.349222 0.145451 0.288775 0.184059
H19   H     H_    0.433138 0.260548 0.323348 0.131086
H20   H     H_    0.291979 0.270214 0.297380 0.194920
H21   H     H_    0.829747 0.910539 0.441181 0.173234
H22   H     H_    0.753744 0.797107 0.395874 0.154799
H23   H     H_    0.182831 0.414753 0.414253 0.198185
H24   H     H_    0.871644 0.781331 0.454987 0.168619
H25   H     H_    0.750392 0.909156 0.668031 0.197690
H26   H     H_    0.637272 0.991082 0.701084 0.151126
H27   H     H_    0.780478 0.042888 0.696823 0.174686
H28   H     H_    0.154895 0.050796 0.474540 0.193754
H29   H     H_    0.200180 0.929621 0.514086 0.132837
H30   H     H_    0.118903 0.928689 0.423503 0.180395
H31   H     H_    0.215970 0.598741 0.701514 0.214302
H32   H     H_    0.344925 0.758204 0.647211 0.243492
H33   H     H_    0.202552 0.778276 0.683281 0.214920
H34   H     H_    0.814707 0.579383 0.589838 0.193950
H35   H     H_    0.243840 0.767669 0.569908 0.226329
H36   H     H_    0.775709 0.285205 0.362051 0.207830
H37   H     H_    0.708786 0.378503 0.243997 0.250710
H38   H     H_    0.858482 0.394954 0.242220 0.199211
H39   H     H_    0.776536 0.497624 0.283840 0.255338
H40   H     H_    0.968998 0.307794 0.310245 0.228487
H41   H     H_    0.933725 0.190320 0.436243 0.233369
H42   H     H_    0.068150 0.244881 0.467520 0.269996
H43   H     H_    0.060461 0.173147 0.368961 0.257930
H44   H     H_    0.034334 0.643354 0.715206 0.228999
H45   H     H_    0.693938 0.712844 0.039361 0.191567
H46   H     H_    0.933647 0.788269 0.697516 0.237208
H47   H     H_    0.900527 0.743723 0.593750 0.281156
H48   H     H_    0.040706 0.795721 0.609421 0.230262
H49   H     H_    0.570133 0.780499 0.021062 0.161689
H50   H     H_    0.699867 0.810544 0.958234 0.181381
H51   H     H_    0.429766 0.214474 0.979771 0.162825
H52   H     H_    0.305839 0.281870 0.961302 0.194967
N1    N     N_R   0.207800 0.519340 0.515560 -0.133796
N2    N     N_R   0.792200 0.480660 0.484440 -0.131261
N3    N     N_2   0.595340 0.174875 0.608461 -0.241012
N4    N     N_2   0.384934 0.818432 0.394440 -0.229150
N5    N     N_2   0.231826 0.626406 0.639949 -0.251298
N6    N     N_2   0.770919 0.365004 0.364010 -0.272148
N7    N     N_2   0.003272 0.323135 0.367164 -0.325814
N8    N     N_2   0.994493 0.644664 0.659738 -0.312646
O1    O     O_R   0.421700 0.658830 0.504150 -0.617449
O2    O     O_3   0.383832 0.323802 0.072290 -0.612258
O3    O     O_3   0.713701 0.507331 0.049144 -0.608895
O4    O     O_3   0.285769 0.487789 0.951402 -0.604441
O5    O     O_3   0.305547 0.199175 0.412104 -0.598935
O6    O     O_3   0.729129 0.815800 0.528922 -0.596071
O7    O     O_3   0.719451 0.021130 0.579188 -0.594317
O8    O     O_3   0.283067 0.985512 0.398960 -0.575233
O9    O     O_R   0.578300 0.341170 0.495850 -0.628107
O10   O     O_R   0.609310 0.646410 0.494170 -0.571290
O11   O     O_R   0.390690 0.353590 0.505830 -0.573812
O12   O     O_R   0.406210 0.506220 0.628210 -0.598871
O13   O     O_R   0.593790 0.493780 0.371790 -0.597383
O14   O     O_R   0.593830 0.493800 0.618230 -0.618222
O15   O     O_R   0.406170 0.506200 0.381770 -0.618994
O16   O     O_3   0.615937 0.671455 0.928249 -0.600522
Zn1   Zn    Zn3+2 0.374730 0.508290 0.506660 0.966165
Zn2   Zn    Zn3+2 0.625270 0.491710 0.493340 0.963092

loop_
_geom_bond_atom_site_label_1
_geom_bond_atom_site_label_2
_ccdc_geom_bond_type
C11   C18   S    
C16   C21   S    
C37   H21   S    
C15   H12   S    
C31   H4    S    
C17   O2    S    
C17   C20   S    
C36   H19   S    
C41   H38   S    
C4    N8    S    
C28   C46   A    
C33   H10   S    
C29   H50   S    
C30   O2    S    
C39   H29   S    
C24   C26   S    
C13   O15   A    
C36   H18   S    
O15   Zn1   S    
C14   H1    S    
C11   O12   A    
C34   O8    S    
C29   O16   S    
C30   H52   S    
C43   H46   S    
C22   C25   S    
C15   C17   S    
C42   H43   S    
C6    N1    A    
C14   C24   S    
C19   C26   T    
C1    O1    A    
C20   O4    S    
H44   N8    S    
C15   C22   S    
C1    O10   A    
C7    N2    A    
C1    C28   S    
N1    Zn1   S    
C40   H32   S    
C35   H16   S    
C9    C10   A    
C32   H7    S    
C38   H27   S    
C27   C45   A    
C30   H2    S    
C44   O6    S    
C33   H11   S    
C37   H22   S    
C40   H35   S    
C18   C25   T    
C41   H39   S    
C36   O5    S    
C32   H6    S    
C21   O3    S    
H14   N4    S    
C5    N6    S    
H9    N3    S    
C46   C48   A    
C17   C24   S    
C47   N3    S    
C41   N6    S    
C13   C19   S    
C12   C27   S    
C39   H30   S    
C14   C20   S    
C4    C6    A    
C35   N4    S    
H40   N7    S    
O12   Zn1   S    
C37   O6    S    
C3    N7    S    
C46   N4    S    
C30   H51   S    
C28   C44   A    
C23   C44   A    
C42   H42   S    
O14   Zn2   S    
N2    Zn2   S    
C12   O11   A    
C13   O13   A    
C43   H47   S    
C43   H48   S    
C34   C45   A    
C39   H28   S    
C31   H5    S    
O11   Zn1   S    
O1    Zn1   S    
C20   C22   S    
C42   N7    S    
C14   C16   S    
C21   C24   S    
C11   O14   A    
C34   C48   A    
H36   N6    S    
C38   H26   S    
C27   C47   A    
C7    C9    A    
C5    N2    A    
C8    H23   S    
C16   C22   S    
C32   O4    S    
C33   N3    S    
C40   H33   S    
C8    C10   A    
C31   H3    S    
C3    C5    A    
C36   H20   S    
C8    N1    A    
C2    C47   A    
C41   H37   S    
C29   H49   S    
C42   H41   S    
C2    C48   A    
C16   O16   S    
O13   Zn2   S    
C3    C10   A    
C29   H45   S    
C38   O7    S    
C35   H17   S    
C6    N5    S    
C43   N8    S    
C23   O7    S    
C12   O9    A    
C45   O5    S    
C15   C21   S    
C7    H34   S    
H31   N5    S    
C33   H13   S    
C39   O8    S    
C37   H24   S    
C2    C23   A    
C31   O3    S    
O9    Zn2   S    
C35   H15   S    
O10   Zn2   S    
C4    C9    A    
C32   H8    S    
C40   N5    S    
C38   H25   S    
