data_mof_unit_55502.cif
_audit_creation_date              2012-12-10T17:03:54-0500
_audit_creation_method            fapswitch 2.2
_symmetry_space_group_name_H-M    P1
_symmetry_Int_Tables_number       1
_space_group_crystal_system       triclinic
_cell_length_a                    9.763247
_cell_length_b                    10.962394
_cell_length_c                    15.880422
_cell_angle_alpha                 94.241033
_cell_angle_beta                  79.327162
_cell_angle_gamma                 110.41358
_cell_volume                      1565.28188461

loop_
_atom_site_label
_atom_site_type_symbol
_atom_type_description
_atom_site_fract_x
_atom_site_fract_y
_atom_site_fract_z
_atom_type_partial_charge
C1    C     C_R   0.556754 0.745781 0.502539 0.905390
C2    C     C_R   0.447404 0.254777 0.490524 0.885816
C3    C     C_R   0.321345 0.443186 0.076829 -0.208803
C4    C     C_R   0.669649 0.508104 0.921745 -0.160381
C5    C     C_R   0.218146 0.411459 0.021987 -0.184902
C6    C     C_R   0.767006 0.508129 0.975430 -0.201018
C7    C     C_2   0.588665 0.885439 0.496715 -0.382988
C8    C     C_2   0.425793 0.116459 0.479016 -0.381044
C9    C     C_2   0.512556 0.932826 0.453216 0.324217
C10   C     C_2   0.541500 0.074167 0.456226 0.319607
C11   C     C_2   0.923610 0.490337 0.492555 -0.012862
C12   C     C_2   0.076586 0.509852 0.507437 -0.012147
C13   C     C_R   0.411186 0.486417 0.663027 0.783763
C14   C     C_R   0.588692 0.512541 0.336993 0.831807
C15   C     C_R   0.357223 0.471704 0.756560 -0.200288
C16   C     C_R   0.639989 0.514484 0.243132 -0.158388
C17   C     C_R   0.160662 0.393052 0.879016 -0.207739
C18   C     C_R   0.819148 0.501135 0.117496 -0.188408
C19   C     C_R   0.206534 0.402225 0.790480 0.372152
C20   C     C_R   0.773281 0.492198 0.205996 0.360311
C21   C     C_R   0.459368 0.524547 0.814053 0.050807
C22   C     C_R   0.550860 0.536078 0.188949 0.047243
C23   C     C_R   0.417468 0.487272 0.900729 0.088989
C24   C     C_R   0.581353 0.512587 0.099798 0.035068
C25   C     C_R   0.264751 0.432200 0.934163 0.022561
C26   C     C_R   0.723709 0.509002 0.064126 0.046124
C27   C     C_R   0.522810 0.501770 0.955139 0.106318
C28   C     C_R   0.475051 0.491588 0.045103 0.055464
Cu1   Cu    Cu3+1 0.362980 0.479380 0.485080 0.980937
Cu2   Cu    Cu3+1 0.637020 0.520620 0.514920 0.971402
H1    H     H_    0.101455 0.367737 0.048290 0.149179
H2    H     H_    0.875918 0.505357 0.947313 0.149581
H3    H     H_    0.044048 0.345746 0.904329 0.161098
H4    H     H_    0.925509 0.492184 0.090083 0.156327
H5    H     H_    0.278910 0.416155 0.142872 0.155187
H6    H     H_    0.706841 0.499381 0.854047 0.163390
H7    H     H_    0.312917 0.047638 0.489615 0.120348
H8    H     H_    0.675987 0.950972 0.528801 0.124116
H9    H     H_    0.121567 0.577358 0.557092 0.163156
H10   H     H_    0.878822 0.422908 0.442893 0.192748
H11   H     H_    0.112123 0.384986 0.415732 0.198098
H12   H     H_    0.887754 0.614996 0.584305 0.189388
N1    N     N_2   0.842890 0.551600 0.537350 -0.291347
N2    N     N_2   0.157110 0.448400 0.462650 -0.282309
O1    O     O_R   0.426810 0.668300 0.492040 -0.509896
O2    O     O_R   0.573190 0.331700 0.507960 -0.515072
O3    O     O_R   0.658240 0.703130 0.517240 -0.589885
O4    O     O_R   0.341760 0.296870 0.482760 -0.596709
O5    O     O_R   0.319390 0.472820 0.610170 -0.570436
O6    O     O_R   0.680610 0.527180 0.389830 -0.570255
O7    O     O_R   0.550820 0.507640 0.635370 -0.583930
O8    O     O_R   0.449180 0.492360 0.364630 -0.559498
N3    N     N_3   0.451962 0.606557 0.222544 -0.536472
H13   H     H_    0.442348 0.662421 0.174817 0.234527
H14   H     H_    0.347140 0.542197 0.247340 0.243902
N4    N     N_3   0.594935 0.631659 0.789491 -0.586140
H15   H     H_    0.571968 0.701819 0.758906 0.227507
H16   H     H_    0.672585 0.600376 0.748111 0.242180
O9    O     O_3   0.861873 0.462322 0.253352 -0.724859
H17   H     H_    0.795836 0.398751 0.297309 0.332514
O10   O     O_3   0.100929 0.342083 0.739927 -0.716387
H18   H     H_    0.146111 0.297033 0.692463 0.333311
O11   O     O_3   0.685062 0.161463 0.438423 -0.733768
H19   H     H_    0.752492 0.112159 0.416404 0.315167
O12   O     O_3   0.406263 0.850328 0.408642 -0.692788
H20   H     H_    0.371847 0.903920 0.375563 0.319021

loop_
_geom_bond_atom_site_label_1
_geom_bond_atom_site_label_2
_ccdc_geom_bond_type
C13   O5    A    
C21   N4    S    
C6    H2    S    
Cu2   O7    S    
C4    H6    S    
C14   O8    A    
C11   N1    D    
Cu1   Cu2   S    
C23   C27   A    
C9    C10   S    
C18   C20   A    
C10   O11   S    
C18   C26   A    
C3    H5    S    
C16   C20   A    
C17   C25   A    
C12   H9    S    
C13   C15   S    
Cu2   O6    S    
O9    H17   S    
C12   N2    D    
Cu1   O5    S    
N3    H13   S    
C2    O2    A    
C20   O9    S    
C15   C19   A    
C18   H4    S    
C1    O1    A    
C14   O6    A    
C17   H3    S    
C19   O10   S    
C5    C25   A    
C22   C24   A    
C4    C6    A    
C3    C28   A    
C17   C19   A    
C7    H8    S    
N4    H16   S    
C22   N3    S    
C9    O12   S    
N3    H14   S    
Cu1   N2    S    
O10   H18   S    
H11   N2    S    
C14   C16   S    
Cu2   N1    S    
C8    H7    S    
Cu1   O4    S    
C11   H10   S    
C3    C5    A    
Cu2   O3    S    
C15   C21   A    
C4    C27   A    
N4    H15   S    
C8    C10   D    
O12   H20   S    
H12   N1    S    
Cu1   O1    S    
C27   C28   A    
C7    C9    D    
C6    C26   A    
C1    O3    A    
C1    C7    S    
C16   C22   A    
C2    O4    A    
C23   C25   A    
C13   O7    A    
C21   C23   A    
Cu2   O2    S    
C2    C8    S    
C24   C28   A    
C11   C12   S    
C24   C26   A    
O11   H19   S    
C5    H1    S    
Cu1   O8    S    
