data_mof_unit_58088.cif
_audit_creation_date              2012-12-11T17:29:52-0500
_audit_creation_method            fapswitch 2.2
_symmetry_space_group_name_H-M    P1
_symmetry_Int_Tables_number       1
_space_group_crystal_system       triclinic
_cell_length_a                    19.326891
_cell_length_b                    18.892511
_cell_length_c                    20.230677
_cell_angle_alpha                 106.653086
_cell_angle_beta                  106.146868
_cell_angle_gamma                 111.51502
_cell_volume                      5944.38918072

loop_
_atom_site_label
_atom_site_type_symbol
_atom_type_description
_atom_site_fract_x
_atom_site_fract_y
_atom_site_fract_z
_atom_type_partial_charge
C1    C     C_R   0.029030 0.085927 0.345126 -0.111749
C2    C     C_R   0.240946 0.071545 0.502794 0.379935
C3    C     C_R   0.158117 0.192211 0.719671 -0.072794
C4    C     C_R   0.756258 0.930700 0.458807 -0.112612
C5    C     C_R   0.046455 0.800310 0.479301 -0.106581
C6    C     C_R   0.238093 0.221453 0.728178 0.073186
C7    C     C_R   0.026750 0.774109 0.532683 0.048410
C8    C     C_R   0.245359 0.999854 0.468715 -0.060538
C9    C     C_R   0.934718 0.978638 0.713419 0.051749
C10   C     C_R   0.127021 0.721970 0.568352 -0.251343
C11   C     C_R   0.057492 0.728808 0.570022 0.110353
C12   C     C_R   0.750524 0.004027 0.472515 0.054829
C13   C     C_R   0.011973 0.686037 0.602687 -0.222158
C14   C     C_R   0.027147 0.627388 0.622776 0.124456
C15   C     C_R   0.091373 0.613713 0.613449 0.035484
C16   C     C_R   0.852308 0.775595 0.293596 -0.159095
C17   C     C_R   0.144525 0.664351 0.590330 0.137122
C18   C     C_R   0.973318 0.576042 0.644171 -0.184770
C19   C     C_R   0.976830 0.504883 0.647118 -0.173610
C20   C     C_R   0.035402 0.486171 0.630410 0.129160
C21   C     C_R   0.096589 0.543617 0.619121 0.040706
C22   C     C_R   0.157442 0.526140 0.605491 0.093867
C23   C     C_R   0.780097 0.722838 0.292911 0.156606
C24   C     C_R   0.216669 0.582823 0.592067 -0.187713
C25   C     C_R   0.209456 0.650990 0.583304 -0.183773
C26   C     C_R   0.027464 0.406691 0.615554 -0.242840
C27   C     C_R   0.081616 0.384372 0.592220 0.149071
C28   C     C_R   0.003877 0.236181 0.573415 -0.186641
C29   C     C_R   0.152620 0.448313 0.597706 -0.186971
C30   C     C_R   0.385768 0.037056 0.533707 -0.124337
C31   C     C_R   0.316925 0.998084 0.465099 0.163427
C32   C     C_R   0.316391 0.957978 0.395490 -0.220648
C33   C     C_R   0.388501 0.959360 0.393571 0.084394
C34   C     C_R   0.057183 0.293365 0.557962 0.083526
C35   C     C_R   0.459975 0.001841 0.464054 0.006746
C36   C     C_R   0.457893 0.040556 0.533864 0.080492
C37   C     C_R   0.391644 0.919969 0.324123 0.210786
C38   C     C_R   0.465644 0.922699 0.326643 -0.268873
C39   C     C_R   0.535632 0.964500 0.396051 0.150137
C40   C     C_R   0.773647 0.769298 0.355630 -0.074244
C41   C     C_R   0.533322 0.005224 0.465305 -0.000059
C42   C     C_R   0.604258 0.048199 0.536051 -0.084273
C43   C     C_R   0.601492 0.087558 0.605494 0.555165
C44   C     C_R   0.527539 0.082743 0.603278 -0.314143
C45   C     C_R   0.237040 0.197005 0.656400 -0.007052
C46   C     C_R   0.608088 0.965273 0.397536 -0.214860
C47   C     C_R   0.676999 0.007640 0.467015 0.068938
C48   C     C_R   0.675585 0.048921 0.535261 -0.126939
C49   C     C_R   0.310187 0.277480 0.800052 -0.091570
C50   C     C_R   0.330404 0.244730 0.851936 -0.255072
C51   C     C_R   0.397755 0.297069 0.922621 -0.102402
C52   C     C_R   0.081567 0.247020 0.510450 0.175611
C53   C     C_R   0.444828 0.382958 0.941630 0.177718
C54   C     C_R   0.423765 0.415528 0.890074 -0.318734
C55   C     C_R   0.356342 0.363828 0.819164 0.572118
C56   C     C_R   0.968389 0.795847 0.543187 -0.013956
C57   C     C_R   0.672415 0.530305 0.109561 -0.197988
C58   C     C_R   0.727495 0.609815 0.166927 -0.226656
C59   C     C_R   0.610018 0.474605 0.120379 0.029343
C60   C     C_R   0.728546 0.632365 0.239479 -0.092879
C61   C     C_R   0.680345 0.568807 0.256644 0.383481
C62   C     C_R   0.614982 0.490948 0.194654 0.293364
C63   C     C_R   0.929425 0.024557 0.205019 0.137995
C64   C     C_R   0.827237 0.072363 0.522269 -0.127056
C65   C     C_R   0.860725 0.952060 0.142732 -0.181395
C66   C     C_R   0.826994 0.954451 0.073520 -0.154485
C67   C     C_R   0.170725 0.930437 0.440374 -0.232839
C68   C     C_R   0.861878 0.029738 0.065671 0.223712
C69   C     C_R   0.923341 0.104003 0.130259 -0.162324
C70   C     C_R   0.957620 0.101554 0.199341 -0.166694
C71   C     C_R   0.861807 0.036690 0.865441 -0.142349
C72   C     C_R   0.892717 0.041607 0.811470 -0.165808
C73   C     C_R   0.833620 0.961714 0.874991 0.227444
C74   C     C_R   0.895712 0.971949 0.766021 0.142160
C75   C     C_R   0.861245 0.895369 0.771363 -0.167064
C76   C     C_R   0.964690 0.946223 0.281774 -0.112485
C77   C     C_R   0.829962 0.890370 0.825084 -0.158518
C78   C     C_R   0.983222 0.052174 0.710842 -0.127944
C79   C     C_R   0.974067 0.019071 0.273872 0.036169
C80   C     C_3   0.318309 0.874791 0.246790 -0.411496
C81   C     C_3   0.305397 0.937612 0.218293 -0.787338
C82   C     C_3   0.147993 0.282245 0.485400 -0.294718
C83   C     C_3   0.124711 0.319070 0.429583 -0.947956
C84   C     C_R   0.913824 0.912474 0.646506 -0.149335
H1    H     H_    0.041822 0.149425 0.358926 0.117120
H2    H     H_    0.924514 0.587039 0.652609 0.143857
H3    H     H_    0.706799 0.866198 0.425862 0.112698
H4    H     H_    0.930570 0.461799 0.657508 0.151731
H5    H     H_    0.973752 0.360401 0.615214 0.129262
H6    H     H_    0.201047 0.437023 0.590294 0.155750
H7    H     H_    0.264442 0.570710 0.582316 0.150266
H8    H     H_    0.251870 0.690385 0.567138 0.139106
H9    H     H_    0.382952 0.065568 0.587100 0.101666
H10   H     H_    0.259920 0.927548 0.344099 0.141285
H11   H     H_    0.468935 0.892466 0.274098 0.141354
H12   H     H_    0.940262 0.787219 0.581321 0.085043
H13   H     H_    0.611071 0.932821 0.345502 0.127978
H14   H     H_    0.882841 0.756271 0.260415 0.106556
H15   H     H_    0.730331 0.078627 0.588010 0.196402
H16   H     H_    0.523903 0.112072 0.655824 0.189307
H17   H     H_    0.766213 0.655062 0.152484 0.148951
H18   H     H_    0.670878 0.516138 0.053151 0.164535
H19   H     H_    0.460666 0.481971 0.905867 0.197970
H20   H     H_    0.412661 0.270549 0.961895 0.159719
H21   H     H_    0.984167 0.250817 0.618191 0.123305
H22   H     H_    0.293968 0.178550 0.837472 0.157666
H23   H     H_    0.151298 0.866471 0.402197 0.129727
H24   H     H_    0.915906 0.100678 0.806963 0.122441
H25   H     H_    0.864162 0.092781 0.902216 0.135910
H26   H     H_    0.950501 0.162388 0.125155 0.133376
H27   H     H_    0.009714 0.158961 0.246321 0.127623
H28   H     H_    0.862052 0.840357 0.736760 0.122276
H29   H     H_    0.777745 0.896280 0.024953 0.134237
H30   H     H_    0.808759 0.832447 0.831905 0.132005
H31   H     H_    0.835141 0.892448 0.145997 0.119023
H32   H     H_    0.729270 0.745731 0.377107 0.160009
H33   H     H_    0.843075 0.138111 0.547754 0.119593
H34   H     H_    0.000372 0.115784 0.747709 0.098286
H35   H     H_    0.924635 0.881951 0.238570 0.095203
H36   H     H_    0.290226 0.209917 0.644951 0.144755
H37   H     H_    0.405142 0.217760 0.615368 0.328311
H38   H     H_    0.294247 0.981241 0.258499 0.268000
H39   H     H_    0.360512 0.975307 0.211797 0.264759
H40   H     H_    0.251273 0.902762 0.161797 0.244409
H41   H     H_    0.327869 0.832212 0.203740 0.201566
H42   H     H_    0.261781 0.833237 0.249085 0.186191
H43   H     H_    0.770661 0.109954 0.761295 0.370416
H44   H     H_    0.361560 0.535426 0.767270 0.376087
H45   H     H_    0.865259 0.848204 0.623575 0.116696
H46   H     H_    0.710503 0.499414 0.408934 0.379442
H47   H     H_    0.567982 0.317296 0.170395 0.332254
H48   H     H_    0.058609 0.280192 0.388668 0.253300
H49   H     H_    0.136571 0.384154 0.459397 0.266704
H50   H     H_    0.162276 0.321287 0.396716 0.282346
H51   H     H_    0.207748 0.328730 0.535204 0.244810
H52   H     H_    0.158902 0.231174 0.456238 0.235613
H53   H     H_    0.137420 0.202909 0.764202 0.110678
H54   H     H_    0.089353 0.792256 0.457590 0.099757
H55   H     H_    0.164340 0.757384 0.545986 0.123546
H56   H     H_    0.958915 0.691036 0.605673 0.126329
N1    N     N_R   0.052570 0.055840 0.395080 -0.040643
N2    N     N_2   0.537411 0.409996 0.055057 -0.034059
N3    N     N_2   0.850652 0.030359 0.993603 -0.096029
N4    N     N_R   0.834730 0.954500 0.499860 -0.043783
N5    N     N_2   0.823998 0.959449 0.941432 -0.097043
N6    N     N_R   0.890190 0.849120 0.355200 -0.049988
N7    N     N_R   0.997110 0.161210 0.539740 -0.056800
N8    N     N_R   0.841940 0.845190 0.395070 -0.056770
N9    N     N_R   0.045360 0.165140 0.499870 -0.074307
N10   N     N_R   0.877490 0.041590 0.539730 -0.042335
N11   N     N_R   0.009810 0.968740 0.355210 -0.041787
N12   N     N_R   0.954640 0.834860 0.500130 -0.036358
N13   N     N_R   0.158060 0.154810 0.604930 -0.053922
N14   N     N_R   0.122510 0.958410 0.460270 -0.062204
N15   N     N_R   0.990190 0.031260 0.644790 -0.048438
N16   N     N_R   0.947430 0.944160 0.604920 -0.049252
N17   N     N_R   0.165270 0.045500 0.500140 -0.101369
N18   N     N_R   0.109810 0.150880 0.644800 -0.056337
N19   N     N_R   0.002890 0.838790 0.460260 -0.041349
N20   N     N_2   0.514717 0.440137 0.011349 -0.059703
Ni1   Ni    Ni4+2 0.104370 0.104380 0.500010 0.282592
Ni2   Ni    Ni4+2 0.895630 0.895620 0.499990 0.252606
Ni3   Ni    Ni4+2 0.006290 0.904630 0.408560 0.215652
Ni4   Ni    Ni4+2 0.993710 0.095370 0.591440 0.217118
O1    O     O_2   0.295850 0.155893 0.427175 -0.229027
O2    O     O_2   0.800834 0.643336 0.399807 -0.329388
O3    O     O_2   0.661387 0.611127 0.386856 -0.277180
O4    O     O_3   0.695096 0.488017 0.354532 -0.440573
O5    O     O_2   0.526656 0.458091 0.275996 -0.154065
O6    O     O_2   0.455223 0.371831 0.138600 -0.289183
O7    O     O_3   0.563519 0.343386 0.217941 -0.441990
O8    O     O_2   0.278250 0.234281 0.534130 -0.317154
O9    O     O_3   0.402882 0.207350 0.563787 -0.476497
O10   O     O_2   0.756238 0.213265 0.695175 -0.305109
O11   O     O_2   0.666319 0.177762 0.758717 -0.273840
O12   O     O_3   0.720426 0.074881 0.712289 -0.550919
O13   O     O_2   0.354773 0.384705 0.693614 -0.266954
O14   O     O_2   0.239191 0.378454 0.724276 -0.320051
O15   O     O_3   0.380519 0.515481 0.805385 -0.533411
S1    S     S_3+6 0.303518 0.169718 0.506381 -0.024118
S2    S     S_3+6 0.688103 0.142228 0.695863 -0.046560
S3    S     S_3+6 0.330407 0.409525 0.757352 -0.049341
S4    S     S_3+6 0.710748 0.580855 0.352571 -0.005931
S5    S     S_3+6 0.536929 0.416037 0.206967 0.058609

loop_
_geom_bond_atom_site_label_1
_geom_bond_atom_site_label_2
_ccdc_geom_bond_type
C9    C74   S    
C32   H10   S    
C63   C65   A    
N1    Ni1   S    
C6    C45   A    
C27   C29   A    
C84   N16   A    
C41   C42   A    
C14   C18   A    
C66   C68   A    
C35   C36   A    
C76   C79   A    
C3    C6    A    
C67   H23   S    
C54   H19   S    
C5    H54   S    
C39   C41   A    
C4    H3    S    
C63   C79   S    
C53   C54   A    
C26   H5    S    
C7    C11   S    
C57   H18   S    
H47   O7    S    
C75   H28   S    
C18   H2    S    
C20   C26   A    
C81   H39   S    
C67   N14   A    
C22   C29   A    
C30   H9    S    
N7    Ni4   S    
C30   C31   A    
C12   C64   A    
C78   N15   A    
C57   C59   A    
C80   H41   S    
C10   C17   A    
C58   C60   A    
C23   C40   A    
C84   H45   S    
N13   N18   A    
C68   N3    S    
C16   N6    A    
C18   C19   A    
C82   H51   S    
C83   H50   S    
N4    N10   A    
C46   C47   A    
H37   O9    S    
C72   H24   S    
C59   N2    S    
C52   N9    A    
C5    N19   A    
C38   H11   S    
C3    N18   A    
C3    H53   S    
C4    C12   A    
N18   Ni4   S    
O11   S2    D    
O15   S3    S    
N4    Ni2   S    
O8    S1    D    
N12   N19   A    
N16   Ni2   S    
C13   C14   A    
C82   H52   S    
C40   H32   S    
C65   H31   S    
O12   S2    S    
C2    S1    S    
C7    C56   A    
C12   C47   S    
O10   S2    D    
C29   H6    S    
N6    N8    A    
C27   C34   S    
C1    H1    S    
C23   C60   S    
C37   C80   S    
O3    S4    D    
C61   S4    S    
C76   H35   S    
C74   C75   A    
C40   N8    A    
C81   H40   S    
C13   H56   S    
N14   Ni3   S    
C24   C25   A    
C53   N20   S    
N14   N17   A    
C72   C74   A    
C19   H4    S    
C70   H27   S    
C5    C7    A    
C68   C69   A    
C59   C62   A    
C76   N11   A    
C51   H20   S    
C49   C55   A    
C44   H16   S    
C62   S5    S    
C43   S2    S    
C33   C37   A    
C64   H33   S    
N13   Ni1   S    
C60   C61   A    
C51   C53   A    
C43   C44   A    
O5    S5    D    
C37   C38   A    
C64   N10   A    
C69   H26   S    
O7    S5    S    
C47   C48   A    
C63   C70   A    
C28   H21   S    
O4    S4    S    
C50   C51   A    
C26   C27   A    
C58   H17   S    
C42   C48   A    
C52   C82   S    
C75   C77   A    
O14   S3    D    
C39   C46   A    
C45   H36   S    
C78   H34   S    
C46   H13   S    
C65   C66   A    
C66   H29   S    
N11   Ni3   S    
C1    C79   A    
N19   Ni3   S    
C36   C44   A    
C45   N13   A    
C10   H55   S    
C77   H30   S    
C24   H7    S    
N17   Ni1   S    
N10   Ni4   S    
N1    N11   A    
C71   C73   A    
H43   O12   S    
N3    N5    D    
C48   H15   S    
C54   C55   A    
C25   H8    S    
O6    S5    D    
C8    C31   S    
C31   C32   A    
C2    C8    A    
O2    S4    D    
N2    N20   D    
C80   C81   S    
C4    N4    A    
C15   C17   A    
N15   Ni4   S    
C16   C23   A    
N7    N9    A    
N6    Ni3   S    
H44   O15   S    
C34   C52   A    
O9    S1    S    
C30   C36   A    
C81   H38   S    
C17   C25   A    
C32   C33   A    
C19   C20   A    
N8    Ni2   S    
C71   C72   A    
C11   C13   A    
C16   H14   S    
C57   C58   A    
C38   C39   A    
C80   H42   S    
C2    N17   A    
C71   H25   S    
C33   C35   A    
C55   S3    S    
C22   C24   A    
C9    C78   A    
C6    C49   S    
C56   H12   S    
C61   C62   A    
C35   C41   A    
C69   C70   A    
C83   H49   S    
C1    N1    A    
C10   C11   A    
C9    C84   A    
C28   C34   A    
H46   O4    S    
C15   C21   A    
N9    Ni1   S    
C20   C21   A    
C8    C67   A    
C49   C50   A    
C42   C43   A    
C73   N5    S    
N15   N16   A    
C50   H22   S    
O1    S1    D    
C73   C77   A    
C14   C15   A    
C82   C83   S    
C56   N12   A    
C21   C22   A    
N12   Ni2   S    
O13   S3    D    
C83   H48   S    
C28   N7    A    
