data_mof_unit_49662.cif
_audit_creation_date              2012-12-11T14:15:47-0500
_audit_creation_method            fapswitch 2.2
_symmetry_space_group_name_H-M    P1
_symmetry_Int_Tables_number       1
_space_group_crystal_system       triclinic
_cell_length_a                    11.168911
_cell_length_b                    12.707072
_cell_length_c                    23.651765
_cell_angle_alpha                 90.650493
_cell_angle_beta                  96.355377
_cell_angle_gamma                 68.446187
_cell_volume                      3101.28138392

loop_
_atom_site_label
_atom_site_type_symbol
_atom_type_description
_atom_site_fract_x
_atom_site_fract_y
_atom_site_fract_z
_atom_type_partial_charge
C1    C     C_R   0.149928 0.616569 0.428887 0.544204
C2    C     C_2   0.179307 0.238115 0.225481 0.000743
C3    C     C_2   0.157673 0.168920 0.262700 -0.108008
C4    C     C_R   0.755919 0.601261 0.403453 0.541673
C5    C     C_1   0.134225 0.200466 0.320695 -0.054676
C6    C     C_1   0.209089 0.199268 0.169083 -0.046386
C7    C     C_1   0.117327 0.232698 0.368457 -0.016316
C8    C     C_1   0.169601 0.750868 0.124346 -0.039210
C9    C     C_2   0.143879 0.686650 0.227710 -0.008116
C10   C     C_2   0.236934 0.675176 0.271570 -0.104088
C11   C     C_1   0.219866 0.651918 0.329599 -0.048699
C12   C     C_R   0.793575 0.523059 0.310872 -0.140228
C13   C     C_1   0.158628 0.720576 0.171225 -0.066870
C14   C     C_1   0.195559 0.634490 0.376440 -0.008124
C15   C     C_1   0.629565 0.755499 0.865066 -0.012664
C16   C     C_R   0.101504 0.282479 0.423359 0.539673
C17   C     C_2   0.705183 0.703251 0.762532 -0.134515
C18   C     C_2   0.615776 0.717323 0.717471 -0.131164
C19   C     C_1   0.653768 0.676197 0.662492 -0.052668
C20   C     C_1   0.666879 0.733877 0.818716 -0.057327
C21   C     C_1   0.691499 0.641693 0.617422 -0.010303
C22   C     C_R   0.197997 0.171080 0.852770 0.005212
C23   C     C_R   0.700784 0.727411 0.319059 -0.132935
C24   C     C_R   0.105467 0.236414 0.641818 0.020812
C25   C     C_R   0.069759 0.114198 0.709646 -0.130765
C26   C     C_R   0.061683 0.150027 0.653369 -0.135039
C27   C     C_R   0.149514 0.291631 0.685851 -0.114810
C28   C     C_R   0.148428 0.616748 0.590654 0.540558
C29   C     C_R   0.158287 0.257395 0.742213 0.055707
C30   C     C_R   0.119950 0.166102 0.754001 0.029763
C31   C     C_R   0.137879 0.125023 0.809680 -0.130513
C32   C     C_R   0.230153 0.264070 0.841957 -0.108265
C33   C     C_R   0.208562 0.309504 0.786940 -0.009603
C34   C     C_R   0.698943 0.740378 0.260383 0.025082
C35   C     C_R   0.138123 0.749543 0.851059 0.007199
C36   C     C_R   0.183251 0.638488 0.648959 -0.001201
C37   C     C_R   0.333096 0.604345 0.734745 -0.018183
C38   C     C_R   0.308840 0.589044 0.676458 -0.126224
C39   C     C_R   0.081167 0.703728 0.678684 -0.132834
C40   C     C_R   0.750273 0.602378 0.566236 0.544477
C41   C     C_R   0.101467 0.718090 0.735880 0.018074
C42   C     C_R   0.227595 0.668207 0.764807 0.046851
C43   C     C_R   0.243513 0.682788 0.822999 -0.134703
C44   C     C_R   0.013807 0.796321 0.822040 -0.135435
C45   C     C_R   0.725508 0.642729 0.227925 0.037431
C46   C     C_R   0.995416 0.780197 0.764427 -0.152485
C47   C     C_R   0.265672 0.109737 0.069500 0.542351
C48   C     C_R   0.595179 0.776191 0.082691 0.536376
C49   C     C_R   0.190302 0.788490 0.070202 0.544838
C50   C     C_R   0.242096 0.111865 0.907031 0.543149
C51   C     C_R   0.573582 0.776416 0.917989 0.546464
C52   C     C_R   0.099692 0.278844 0.584838 0.536947
C53   C     C_R   0.165911 0.786961 0.906974 0.542817
C54   C     C_R   0.657586 0.756146 0.142006 -0.010735
C55   C     C_R   0.738545 0.618415 0.343118 0.022107
C56   C     C_R   0.669277 0.654652 0.172397 -0.025249
C57   C     C_R   0.791690 0.536022 0.253341 -0.161919
C58   C     C_3   0.595358 0.575743 0.151927 -0.230459
C59   C     C_3   0.572112 0.496486 0.195122 -0.324924
C60   C     C_3   0.468886 0.451122 0.170185 -0.459129
C61   C     C_3   0.017216 0.676493 0.236782 -0.374295
C62   C     C_3   0.243773 0.410103 0.776914 -0.403658
C63   C     C_3   0.707222 0.940890 0.144246 -0.236784
C64   C     C_3   0.831728 0.955429 0.171305 -0.321675
C65   C     C_3   0.852836 0.053387 0.142737 -0.442621
C66   C     C_3   0.468846 0.547107 0.764089 -0.412991
C67   C     C_R   0.680203 0.845938 0.173145 -0.005277
C68   C     C_3   0.638204 0.952959 0.266103 -0.406612
C69   C     C_3   0.179084 0.353167 0.241689 -0.377250
C70   C     C_R   0.672832 0.845496 0.232676 0.001928
C71   C     C_1   0.234769 0.162900 0.122730 -0.024598
Cr1   Cr    Cr6+3 0.189770 0.415650 0.511620 1.027403
Cr2   Cr    Cr6+3 0.930400 0.667320 0.496770 1.019899
Cr3   Cr    Cr6+3 0.879870 0.417010 0.491650 1.023980
Cr4   Cr    Cr6+3 0.149500 0.973980 0.985330 1.016244
Cr5   Cr    Cr6+3 0.457000 0.976510 0.994660 1.012548
Cr6   Cr    Cr6+3 0.411170 0.724270 0.995270 1.000523
H1    H     H_    0.513183 0.757358 0.721941 0.144699
H2    H     H_    0.898894 0.818334 0.741918 0.114716
H3    H     H_    0.386377 0.537507 0.652787 0.124294
H4    H     H_    0.982720 0.739927 0.657734 0.139463
H5    H     H_    0.833159 0.462444 0.228197 0.116320
H6    H     H_    0.838997 0.438670 0.330119 0.144256
H7    H     H_    0.675199 0.799563 0.346288 0.117644
H8    H     H_    0.159887 0.085920 0.249819 0.116650
H9    H     H_    0.325784 0.686528 0.264201 0.116876
H10   H     H_    0.374429 0.521387 0.159400 0.165170
H11   H     H_    0.498713 0.403436 0.131228 0.154228
H12   H     H_    0.807615 0.661969 0.758057 0.138497
H13   H     H_    0.456329 0.393259 0.201880 0.148942
H14   H     H_    0.661218 0.420974 0.206280 0.162068
H15   H     H_    0.539786 0.542699 0.234206 0.179370
H16   H     H_    0.494782 0.632493 0.136723 0.198019
H17   H     H_    0.642741 0.523515 0.116836 0.165072
H18   H     H_    0.962430 0.670489 0.195502 0.134913
H19   H     H_    0.033917 0.599691 0.263061 0.141050
H20   H     H_    0.958048 0.751915 0.258994 0.146854
H21   H     H_    0.277312 0.441465 0.817295 0.131624
H22   H     H_    0.322926 0.386496 0.749168 0.142931
H23   H     H_    0.114103 0.051936 0.818829 0.129198
H24   H     H_    0.157114 0.479499 0.756298 0.147108
H25   H     H_    0.860443 0.038528 0.096669 0.168840
H26   H     H_    0.771299 0.134208 0.147970 0.146203
H27   H     H_    0.944243 0.060565 0.162687 0.154775
H28   H     H_    0.830173 0.971162 0.217379 0.169867
H29   H     H_    0.915261 0.876773 0.166034 0.180593
H30   H     H_    0.725135 0.921603 0.099563 0.171834
H31   H     H_    0.622412 0.021509 0.144254 0.160154
H32   H     H_    0.538705 0.504332 0.733450 0.143083
H33   H     H_    0.501802 0.610376 0.786410 0.146877
H34   H     H_    0.275302 0.298916 0.876335 0.118570
H35   H     H_    0.471046 0.482496 0.795745 0.126999
H36   H     H_    0.720909 0.948590 0.297951 0.124669
H37   H     H_    0.611356 0.030363 0.238946 0.135519
H38   H     H_    0.552490 0.962968 0.288444 0.133262
H39   H     H_    0.188205 0.400636 0.204262 0.133248
H40   H     H_    0.086850 0.402845 0.258730 0.130518
H41   H     H_    0.261452 0.343974 0.274682 0.143172
H42   H     H_    0.039370 0.044832 0.718450 0.117811
H43   H     H_    0.024177 0.109395 0.619105 0.116374
H44   H     H_    0.177688 0.361376 0.675326 0.128174
H45   H     H_    0.339272 0.647434 0.846187 0.140972
H46   H     H_    0.932415 0.848691 0.843400 0.136184
O1    O     O_R   0.196340 0.303200 0.448500 -0.504035
O2    O     O_R   0.555390 0.700940 0.062700 -0.539337
O3    O     O_R   0.295020 0.731920 0.049950 -0.507564
O4    O     O_R   0.199310 0.519670 0.454880 -0.493353
O5    O     O_R   0.094290 0.884230 0.921550 -0.518358
O6    O     O_R   0.168980 0.069410 0.926940 -0.503304
O7    O     O_R   0.358400 0.089990 0.927950 -0.512327
O8    O     O_R   0.544850 0.873850 0.939920 -0.489822
O9    O     O_R   0.536020 0.701900 0.936430 -0.515452
O10   O     O_R   0.277070 0.732810 0.932890 -0.509706
O11   O     O_3   0.339220 0.891590 0.991750 -0.242496
O12   O     O_R   0.811960 0.658090 0.547150 -0.499524
O13   O     O_R   0.045660 0.691380 0.441680 -0.507942
O14   O     O_R   0.811930 0.659460 0.430950 -0.503554
O15   O     O_R   0.757900 0.507620 0.421760 -0.519312
O16   O     O_R   0.988630 0.322990 0.439840 -0.504930
O17   O     O_R   0.196380 0.301720 0.573850 -0.515778
O18   O     O_R   0.199350 0.518300 0.571080 -0.503068
O19   O     O_R   0.045700 0.689900 0.567030 -0.522232
O20   O     O_R   0.757930 0.506140 0.547110 -0.503565
O21   O     O_R   0.988670 0.321620 0.556040 -0.496345
O22   O     O_3   0.000020 0.499990 0.500010 -0.252188
O23   O     O_R   0.113660 0.883270 0.047820 -0.511616
O24   O     O_R   0.186930 0.068530 0.043990 -0.496302
O25   O     O_R   0.377770 0.089040 0.054220 -0.519347
O26   O     O_R   0.562800 0.872960 0.056970 -0.510705

loop_
_geom_bond_atom_site_label_1
_geom_bond_atom_site_label_2
_ccdc_geom_bond_type
C24   C52   S    
Cr3   O20   S    
C69   H39   S    
C8    C13   T    
C32   H34   S    
C35   C53   S    
C41   C42   A    
Cr3   O22   S    
C24   C27   A    
C27   H44   S    
C61   H19   S    
C64   H28   S    
C39   C41   A    
C48   C54   S    
C49   O3    A    
Cr3   O15   S    
C45   C57   A    
C37   C38   A    
C22   C32   A    
C9    C61   S    
C19   C21   T    
C58   H16   S    
C26   H43   S    
C18   C19   S    
C46   H2    S    
C11   C14   T    
C27   C29   A    
Cr1   O22   S    
C29   C33   A    
C69   H41   S    
C17   C20   S    
Cr4   O5    S    
C37   C42   A    
C9    C13   S    
C50   O7    A    
C52   O17   A    
C4    O14   A    
C62   H21   S    
Cr5   O7    S    
Cr2   O12   S    
C45   C56   A    
C33   C62   S    
C41   C46   A    
C15   C51   S    
C1    O13   A    
C35   C43   A    
C9    C10   D    
C34   C70   A    
C68   H36   S    
C22   C50   S    
C62   H24   S    
C48   O2    A    
C59   C60   S    
C48   O26   A    
Cr1   O1    S    
C2    C6    S    
Cr6   O10   S    
C65   H25   S    
C25   H42   S    
Cr2   O14   S    
C60   H10   S    
C44   C46   A    
C47   O24   A    
Cr2   O19   S    
Cr4   O23   S    
C60   H11   S    
Cr1   O18   S    
C40   O12   A    
C63   C67   S    
Cr4   O11   S    
C22   C31   A    
Cr1   O4    S    
C53   O10   A    
C39   H4    S    
C23   H7    S    
C5    C7    T    
C51   O8    A    
C54   C67   A    
Cr4   O24   S    
C58   C59   S    
C63   C64   S    
C12   H6    S    
Cr2   O22   S    
C15   C20   T    
Cr6   O9    S    
Cr5   O25   S    
C29   C30   A    
C53   O5    A    
Cr2   O13   S    
C18   H1    S    
C23   C34   A    
C47   C71   S    
C37   C66   S    
C17   C18   D    
C17   H12   S    
C34   C45   A    
C59   H14   S    
C31   H23   S    
C66   H33   S    
C64   H29   S    
C35   C44   A    
C43   H45   S    
C50   O6    A    
C12   C57   A    
C7    C16   S    
C52   O21   A    
C4    C55   S    
C3    H8    S    
C16   O16   A    
C28   O19   A    
Cr6   O11   S    
C65   H26   S    
C63   H30   S    
C2    C69   S    
Cr6   O2    S    
C25   C30   A    
Cr3   O21   S    
C47   O25   A    
C10   H9    S    
Cr5   O11   S    
C36   C39   A    
C61   H20   S    
C1    O4    A    
C24   C26   A    
C6    C71   T    
C3    C5    S    
C51   O9    A    
C61   H18   S    
C54   C56   A    
C23   C55   A    
C28   O18   A    
C60   H13   S    
Cr3   O16   S    
C44   H46   S    
C67   C70   A    
C64   C65   S    
C36   C38   A    
C2    C3    D    
C25   C26   A    
C32   C33   A    
C30   C31   A    
C21   C40   S    
C38   H3    S    
Cr5   O26   S    
C69   H40   S    
Cr5   O8    S    
C56   C58   S    
C49   O23   A    
C59   H15   S    
C66   H32   S    
C58   H17   S    
C12   C55   A    
C10   C11   S    
C68   H38   S    
C4    O15   A    
C62   H22   S    
Cr1   O17   S    
C28   C36   S    
C68   C70   S    
C42   C43   A    
C40   O20   A    
C57   H5    S    
C1    C14   S    
C65   H27   S    
C66   H35   S    
C63   H31   S    
C16   O1    A    
C8    C49   S    
Cr6   O3    S    
Cr4   O6    S    
C68   H37   S    
