data_mof_unit_6969.cif
_audit_creation_date              2012-12-11T14:04:15-0500
_audit_creation_method            fapswitch 2.2
_symmetry_space_group_name_H-M    P1
_symmetry_Int_Tables_number       1
_space_group_crystal_system       triclinic
_cell_length_a                    19.10168
_cell_length_b                    10.988338
_cell_length_c                    18.930086
_cell_angle_alpha                 89.622056
_cell_angle_beta                  90.031483
_cell_angle_gamma                 90.465567
_cell_volume                      3973.12585674

loop_
_atom_site_label
_atom_site_type_symbol
_atom_type_description
_atom_site_fract_x
_atom_site_fract_y
_atom_site_fract_z
_atom_type_partial_charge
C1    C     C_R   0.238346 0.468146 0.646310 0.518362
C2    C     C_R   0.039903 0.656872 0.564610 0.000958
C3    C     C_R   0.457998 0.156421 0.435850 0.009575
C4    C     C_R   0.500164 0.155448 0.575861 0.000947
C5    C     C_R   0.027279 0.876067 0.419380 -0.096907
C6    C     C_R   0.998632 0.873859 0.563478 -0.098830
C7    C     C_R   0.497190 0.376840 0.437550 -0.088664
C8    C     C_R   0.468713 0.372293 0.581685 -0.096754
C9    C     C_R   0.015662 0.986138 0.454117 0.313799
C10   C     C_R   0.993599 0.982978 0.524984 0.278407
C11   C     C_R   0.501756 0.484847 0.476804 0.290819
C12   C     C_R   0.761280 0.471057 0.355076 0.519260
C13   C     C_R   0.478954 0.484151 0.547500 0.319295
C14   C     C_R   0.020748 0.766724 0.530010 0.011697
C15   C     C_R   0.019214 0.765778 0.456368 -0.034824
C16   C     C_R   0.478224 0.264143 0.544249 -0.034830
C17   C     C_R   0.476158 0.266959 0.470579 0.007349
C18   C     C_R   0.036294 0.546725 0.526376 0.016320
C19   C     C_R   0.996453 0.548042 0.465943 0.042021
C20   C     C_R   0.500195 0.047145 0.535370 0.036379
C21   C     C_R   0.460520 0.046074 0.474784 0.025541
C22   C     C_R   0.060891 0.433023 0.550189 -0.084021
C23   C     C_R   0.739167 0.970047 0.645589 0.533717
C24   C     C_R   0.956542 0.441786 0.451381 -0.074494
C25   C     C_R   0.538098 0.940042 0.551071 -0.087044
C26   C     C_R   0.434288 0.932499 0.452094 -0.075396
C27   C     C_R   0.031361 0.325878 0.526392 -0.050387
C28   C     C_R   0.976421 0.330742 0.478827 -0.044720
C29   C     C_R   0.515067 0.828899 0.526585 -0.060873
C30   C     C_R   0.459743 0.824576 0.479453 -0.047954
C31   C     C_2   0.253481 0.923674 0.918099 -0.099430
C32   C     C_2   0.775905 0.852126 0.065644 -0.104290
C33   C     C_2   0.753479 0.423673 0.918100 -0.097107
C34   C     C_R   0.261133 0.967438 0.353553 0.534321
C35   C     C_2   0.275906 0.352126 0.065642 -0.104711
C36   C     C_2   0.254550 0.936448 0.074102 -0.094675
C37   C     C_2   0.754536 0.890848 0.912912 -0.106741
C38   C     C_2   0.754552 0.436454 0.074100 -0.094641
C39   C     C_2   0.254538 0.390837 0.912906 -0.108453
C40   C     C_R   0.207434 0.825996 0.641636 0.561643
C41   C     C_R   0.792965 0.821962 0.357717 0.579227
C42   C     C_R   0.706051 0.321732 0.642696 0.581724
C43   C     C_R   0.292026 0.327678 0.358920 0.573839
C44   C     C_2   0.224059 0.017479 0.030315 -0.155811
C45   C     C_2   0.266348 0.789837 0.526469 0.301766
C46   C     C_2   0.816722 0.901284 0.945658 -0.142267
C47   C     C_2   0.724059 0.517483 0.030314 -0.156369
C48   C     C_2   0.316725 0.401263 0.945652 -0.143662
C49   C     C_2   0.212439 0.996113 0.955715 -0.163335
C50   C     C_2   0.828349 0.862395 0.019073 -0.161941
C51   C     C_2   0.712437 0.496113 0.955715 -0.162428
C52   C     C_2   0.328349 0.362382 0.019069 -0.161925
C53   C     C_2   0.041637 0.655609 0.932388 -0.097914
C54   C     C_2   0.014167 0.664821 0.085865 -0.109858
C55   C     C_2   0.541615 0.155606 0.932382 -0.097597
C56   C     C_2   0.723175 0.814763 0.467615 0.285525
C57   C     C_2   0.514151 0.164816 0.085856 -0.108297
C58   C     C_2   0.036432 0.565547 0.051689 -0.145845
C59   C     C_2   0.060653 0.568252 0.978015 -0.164678
C60   C     C_2   0.536406 0.065538 0.051677 -0.145626
C61   C     C_2   0.560628 0.068245 0.978006 -0.164351
C62   C     C_R   0.059740 0.651397 0.638411 0.526951
C63   C     C_R   0.969047 0.653692 0.354593 0.533597
C64   C     C_R   0.530785 0.153506 0.645444 0.541680
C65   C     C_R   0.439724 0.150564 0.361527 0.541600
C66   C     C_R   0.239428 0.463168 0.849796 0.545098
C67   C     C_2   0.767665 0.293455 0.528768 0.317057
C68   C     C_R   0.762231 0.471102 0.147484 0.551374
C69   C     C_R   0.739426 0.963175 0.849800 0.546868
C70   C     C_R   0.262229 0.971097 0.147486 0.547253
C71   C     C_R   0.227965 0.874159 0.852111 0.558264
C72   C     C_R   0.790661 0.827515 0.139553 0.563325
C73   C     C_R   0.727963 0.374156 0.852113 0.559537
C74   C     C_R   0.290661 0.327516 0.139553 0.563960
C75   C     C_R   0.061182 0.647855 0.858388 0.574881
C76   C     C_R   0.972100 0.653011 0.150030 0.550730
C77   C     C_R   0.561173 0.147856 0.858388 0.570600
C78   C     C_2   0.232543 0.299475 0.473648 0.296035
C79   C     C_R   0.472095 0.153009 0.150028 0.560818
C80   C     C_2   0.212170 0.834940 0.564141 0.282131
C81   C     C_2   0.786618 0.819239 0.435261 0.323222
C82   C     C_2   0.707994 0.317363 0.564590 0.326405
C83   C     C_2   0.287064 0.341888 0.435833 0.317756
C84   C     C_2   0.256685 0.930546 0.427080 0.240064
C85   C     C_2   0.752139 0.929491 0.573487 0.244729
C86   C     C_2   0.750613 0.431719 0.428435 0.246446
C87   C     C_2   0.239427 0.436897 0.572092 0.278992
C88   C     C_2   0.270183 0.817008 0.449403 -0.062674
C89   C     C_R   0.998258 0.656282 0.424645 -0.001714
C90   C     C_2   0.717203 0.836256 0.544649 -0.046652
C91   C     C_2   0.773041 0.323535 0.452166 -0.051382
C92   C     C_2   0.233227 0.321608 0.550651 -0.069774
Cr1   Cr    Cr6+3 0.113970 0.508630 0.747920 1.006077
Cr2   Cr    Cr6+3 0.887700 0.820070 0.250200 1.014739
Cr3   Cr    Cr6+3 0.612300 0.320070 0.749800 1.012272
Cr4   Cr    Cr6+3 0.387700 0.320070 0.250200 1.010668
Cr5   Cr    Cr6+3 0.886030 0.508630 0.252080 1.022935
Cr6   Cr    Cr6+3 0.613970 0.008630 0.747920 1.016966
Cr7   Cr    Cr6+3 0.386030 0.008630 0.252080 1.016964
Cr8   Cr    Cr6+3 0.269200 0.666740 0.749850 1.055319
Cr9   Cr    Cr6+3 0.730800 0.666740 0.250150 1.055951
Cr10  Cr    Cr6+3 0.769200 0.166740 0.749850 1.060093
Cr11  Cr    Cr6+3 0.230800 0.166740 0.250150 1.053481
Cr12  Cr    Cr6+3 0.112300 0.820070 0.749800 1.007043
H1    H     H_    0.284633 0.746326 0.412425 0.077284
H2    H     H_    0.712145 0.837127 0.935573 0.091670
H3    H     H_    0.777375 0.352395 0.055554 0.102507
H4    H     H_    0.212145 0.337125 0.935570 0.091873
H5    H     H_    0.301912 0.888270 0.939857 0.112448
H6    H     H_    0.721591 0.862138 0.050007 0.101939
H7    H     H_    0.801911 0.388271 0.939858 0.112582
H8    H     H_    0.221592 0.362146 0.050005 0.101449
H9    H     H_    0.032532 0.476321 0.076491 0.159519
H10   H     H_    0.089538 0.490016 0.959210 0.134659
H11   H     H_    0.532504 0.976311 0.076478 0.159888
H12   H     H_    0.678947 0.784806 0.575317 0.070506
H13   H     H_    0.589516 0.990011 0.959202 0.134900
H14   H     H_    0.021315 0.755319 0.063631 0.098259
H15   H     H_    0.011588 0.733768 0.948956 0.105068
H16   H     H_    0.521300 0.255312 0.063620 0.097960
H17   H     H_    0.511562 0.233763 0.948947 0.104498
H18   H     H_    0.039327 0.876919 0.363540 0.125089
H19   H     H_    0.980684 0.873666 0.617403 0.147069
H20   H     H_    0.514840 0.380035 0.383572 0.146988
H21   H     H_    0.456875 0.370160 0.637582 0.123979
H22   H     H_    0.909843 0.442171 0.419771 0.155918
H23   H     H_    0.801074 0.262736 0.417291 0.082711
H24   H     H_    0.099889 0.424451 0.589328 0.154707
H25   H     H_    0.397021 0.924389 0.411581 0.161399
H26   H     H_    0.585842 0.940018 0.581117 0.154244
H27   H     H_    0.049909 0.241143 0.547890 0.171819
H28   H     H_    0.949318 0.250116 0.461797 0.202111
H29   H     H_    0.542746 0.748462 0.542665 0.208260
H30   H     H_    0.440020 0.739512 0.459255 0.171130
H31   H     H_    0.202127 0.101382 0.050442 0.151094
H32   H     H_    0.860006 0.948772 0.920095 0.157697
H33   H     H_    0.702126 0.601385 0.050441 0.150884
H34   H     H_    0.228907 0.246284 0.587888 0.075910
H35   H     H_    0.360011 0.448740 0.920084 0.156860
H36   H     H_    0.345250 0.681940 0.521692 0.347781
H37   H     H_    0.624595 0.780195 0.460442 0.331608
H38   H     H_    0.860614 0.229055 0.529138 0.336857
H39   H     H_    0.141657 0.224152 0.477241 0.319388
H40   H     H_    0.209622 0.062869 0.465602 0.368801
H41   H     H_    0.835567 0.025840 0.558233 0.381728
H42   H     H_    0.701094 0.581270 0.450614 0.362274
H43   H     H_    0.199174 0.589840 0.545615 0.302837
H44   H     H_    0.132782 0.944138 0.557023 0.339675
H45   H     H_    0.165945 0.036664 0.932675 0.155489
H46   H     H_    0.886994 0.825788 0.444360 0.324494
H47   H     H_    0.609792 0.358725 0.559814 0.332854
H48   H     H_    0.363656 0.459388 0.441378 0.339623
H49   H     H_    0.038988 0.081270 0.370239 0.326428
H50   H     H_    0.955758 0.069181 0.605785 0.318655
H51   H     H_    0.543261 0.574414 0.398012 0.326956
H52   H     H_    0.453370 0.574329 0.631627 0.329748
H53   H     H_    0.882205 0.854195 0.036991 0.134583
H54   H     H_    0.665941 0.536660 0.932676 0.155922
H55   H     H_    0.382205 0.354174 0.036987 0.134173
H56   H     H_    0.277372 0.852388 0.055556 0.102066
O1    O     O_R   0.043230 0.549300 0.667990 -0.497354
O2    O     O_R   0.832470 0.905110 0.169660 -0.490911
O3    O     O_R   0.667530 0.405110 0.830340 -0.518490
O4    O     O_R   0.332470 0.405110 0.169660 -0.492359
O5    O     O_R   0.054010 0.748440 0.822860 -0.489903
O6    O     O_R   0.945990 0.748440 0.177140 -0.518022
O7    O     O_R   0.554010 0.248440 0.822860 -0.497889
O8    O     O_R   0.445990 0.248440 0.177140 -0.512920
O9    O     O_3   0.165160 0.665150 0.749190 -0.321062
O10   O     O_3   0.834840 0.665150 0.250810 -0.312091
O11   O     O_3   0.665160 0.165150 0.749190 -0.311190
O12   O     O_R   0.956770 0.549300 0.332010 -0.516158
O13   O     O_3   0.334840 0.165150 0.250810 -0.320132
O14   O     O_R   0.178620 0.457600 0.674100 -0.572394
O15   O     O_R   0.821380 0.457600 0.325900 -0.533391
O16   O     O_R   0.678620 0.957600 0.674100 -0.537770
O17   O     O_R   0.321380 0.957600 0.325900 -0.554509
O18   O     O_R   0.284680 0.542100 0.669460 -0.464636
O19   O     O_R   0.715320 0.542100 0.330540 -0.512589
O20   O     O_R   0.784680 0.042100 0.669460 -0.501779
O21   O     O_R   0.215320 0.042100 0.330540 -0.493789
O22   O     O_R   0.262860 0.790390 0.676650 -0.439126
O23   O     O_R   0.543230 0.049300 0.667990 -0.516269
O24   O     O_R   0.737140 0.790390 0.323350 -0.433567
O25   O     O_R   0.762860 0.290390 0.676650 -0.435391
O26   O     O_R   0.237140 0.290390 0.323350 -0.428044
O27   O     O_R   0.167460 0.907030 0.670940 -0.539426
O28   O     O_R   0.832540 0.907030 0.329060 -0.503051
O29   O     O_R   0.667460 0.407030 0.670940 -0.514296
O30   O     O_R   0.332540 0.407030 0.329060 -0.540934
O31   O     O_R   0.053950 0.750220 0.675100 -0.518424
O32   O     O_R   0.946050 0.750220 0.324900 -0.545258
O33   O     O_R   0.553950 0.250220 0.675100 -0.540350
O34   O     O_R   0.456770 0.049300 0.332010 -0.501409
O35   O     O_R   0.446050 0.250220 0.324900 -0.528331
O36   O     O_R   0.043300 0.547370 0.827390 -0.487434
O37   O     O_R   0.956700 0.547370 0.172610 -0.502448
O38   O     O_R   0.543300 0.047370 0.827390 -0.494283
O39   O     O_R   0.456700 0.047370 0.172610 -0.499646
O40   O     O_R   0.178690 0.455820 0.821860 -0.515419
O41   O     O_R   0.821310 0.455820 0.178140 -0.489427
O42   O     O_R   0.678690 0.955820 0.821860 -0.514599
O43   O     O_R   0.321310 0.955820 0.178140 -0.492794
O44   O     O_R   0.284750 0.540170 0.828860 -0.513434
O45   O     O_R   0.262920 0.788600 0.824420 -0.494860
O46   O     O_R   0.715250 0.540170 0.171140 -0.520880
O47   O     O_R   0.784750 0.040170 0.828860 -0.511808
O48   O     O_R   0.215250 0.040170 0.171140 -0.524439
O49   O     O_3   0.317606 0.721710 0.559048 -0.651589
O50   O     O_3   0.662951 0.801443 0.428080 -0.693096
O51   O     O_3   0.826161 0.254303 0.564545 -0.681772
O52   O     O_3   0.173058 0.257052 0.440346 -0.686092
O53   O     O_3   0.253949 0.021986 0.475939 -0.710305
O54   O     O_3   0.793646 0.002597 0.530718 -0.666335
O55   O     O_3   0.723315 0.513567 0.476346 -0.669433
O56   O     O_R   0.737080 0.788600 0.175580 -0.494851
O57   O     O_3   0.229029 0.528192 0.522872 -0.677330
O58   O     O_3   0.156324 0.883317 0.527278 -0.755787
O59   O     O_3   0.846541 0.813139 0.475954 -0.713119
O60   O     O_3   0.647259 0.336853 0.526492 -0.703770
O61   O     O_3   0.341804 0.396534 0.471955 -0.728493
O62   O     O_3   0.022316 0.095734 0.419052 -0.699061
O63   O     O_3   0.966792 0.085814 0.555438 -0.736496
O64   O     O_3   0.528985 0.589943 0.447469 -0.722306
O65   O     O_3   0.470410 0.591759 0.583093 -0.696012
O66   O     O_R   0.762920 0.288600 0.824420 -0.495804
O67   O     O_R   0.237080 0.288600 0.175580 -0.496294
O68   O     O_R   0.167530 0.905110 0.830340 -0.518712

loop_
_geom_bond_atom_site_label_1
_geom_bond_atom_site_label_2
_ccdc_geom_bond_type
H52   O65   S    
C44   C49   S    
C29   H29   S    
C21   C26   A    
C55   H17   S    
C35   C74   S    
C1    C87   S    
C8    C13   A    
Cr5   O15   S    
C37   C69   S    
C2    C18   A    
C43   C83   S    
C71   O68   A    
C57   C79   S    
C42   C82   S    
Cr10  O66   S    
C7    H20   S    
C92   H34   S    
Cr2   O6    S    
H44   O58   S    
C53   C59   D    
C56   C81   D    
C32   C72   S    
C40   O27   A    
C3    C65   S    
C7    C11   A    
Cr7   O34   S    
Cr1   O9    S    
C29   C30   A    
Cr5   O12   S    
C32   H6    S    
H43   O57   S    
C6    H19   S    
Cr2   O28   S    
Cr7   O17   S    
C48   C52   S    
C86   C91   D    
C13   O65   S    
H40   O53   S    
C55   C77   S    
C62   O1    A    
C15   C89   A    
C20   C25   A    
C65   O34   A    
Cr9   O56   S    
Cr11  O67   S    
C63   O32   A    
C81   O59   S    
Cr1   O14   S    
Cr11  O13   S    
Cr10  O20   S    
C34   O21   A    
C18   C19   A    
Cr4   O30   S    
H50   O63   S    
C86   O55   S    
C14   C15   A    
Cr12  O5    S    
C64   O23   A    
C78   C83   D    
Cr4   O35   S    
C43   O30   A    
C16   C17   A    
C30   H30   S    
C58   H9    S    
H46   O59   S    
Cr4   O8    S    
C41   O24   A    
C67   O51   S    
C33   H7    S    
C90   H12   S    
C79   O8    A    
Cr8   O22   S    
C9    C10   A    
Cr2   O2    S    
H42   O55   S    
C66   O44   A    
C75   O36   A    
C44   H31   S    
C56   C90   S    
C68   O41   A    
Cr8   O18   S    
C69   O42   A    
Cr3   O33   S    
Cr11  O21   S    
C87   C92   D    
C24   H22   S    
C63   C89   S    
H51   O64   S    
C53   C75   S    
Cr11  O26   S    
C34   C84   S    
H38   O51   S    
C31   C49   D    
C25   H26   S    
C9    O62   S    
C67   C91   S    
C36   C70   S    
H36   O49   S    
Cr12  O68   S    
C40   O22   A    
C50   H53   S    
C25   C29   A    
C39   H4    S    
C1    O14   A    
C69   O47   A    
Cr10  O25   S    
C79   O39   A    
Cr4   O13   S    
Cr6   O38   S    
C61   H13   S    
Cr5   O37   S    
C45   C88   S    
Cr11  O48   S    
C36   H56   S    
C57   C60   D    
C47   C51   S    
C23   O16   A    
C43   O26   A    
C7    C17   A    
C58   C59   S    
Cr12  O31   S    
C5    H18   S    
C45   O49   S    
Cr5   O10   S    
Cr4   O4    S    
C41   O28   A    
C60   C61   S    
C28   H28   S    
C83   O61   S    
C4    C16   A    
C5    C9    A    
C74   O67   A    
C19   C89   A    
Cr3   O3    S    
Cr9   O19   S    
C6    C14   A    
Cr6   O16   S    
C1    O18   A    
C22   H24   S    
Cr7   O13   S    
Cr1   O1    S    
C85   C90   D    
C41   C81   S    
C64   O33   A    
C47   H33   S    
C40   C80   S    
C31   H5    S    
Cr9   O10   S    
C75   O5    A    
Cr10  O11   S    
C76   O6    A    
Cr9   O24   S    
C32   C50   D    
C38   C47   D    
C62   O31   A    
C26   H25   S    
C91   H23   S    
C10   O63   S    
C57   H16   S    
C54   C76   S    
Cr6   O11   S    
C42   O25   A    
C33   C73   S    
C72   O56   A    
C38   H3    S    
C38   C68   S    
C26   C30   A    
C22   C27   A    
C12   O15   A    
C68   O46   A    
C54   C58   D    
C39   C66   S    
C36   C44   D    
Cr1   O36   S    
C77   O7    A    
C27   H27   S    
C78   O52   S    
Cr1   O40   S    
C35   C52   D    
C84   O53   S    
C24   C28   A    
Cr6   O23   S    
Cr10  O47   S    
Cr8   O44   S    
C70   O43   A    
Cr12  O27   S    
C46   C50   S    
C48   H35   S    
Cr7   O43   S    
Cr8   O9    S    
C18   C22   A    
Cr6   O42   S    
C84   C88   D    
C77   O38   A    
Cr5   O41   S    
C34   O17   A    
Cr3   O7    S    
C11   O64   S    
C6    C10   A    
Cr8   O45   S    
C53   H15   S    
H39   O52   S    
C49   H45   S    
C33   C51   D    
C23   O20   A    
C4    C64   S    
C51   H54   S    
C12   C86   S    
C76   O37   A    
C78   C92   S    
C74   O4    A    
C54   H14   S    
C19   C24   A    
C37   H2    S    
C73   O3    A    
C85   O54   S    
Cr2   O10   S    
C80   O58   S    
C88   H1    S    
C11   C13   A    
C42   O29   A    
C63   O12   A    
C73   O66   A    
Cr3   O11   S    
C52   H55   S    
C59   H10   S    
C55   C61   D    
C31   C71   S    
H49   O62   S    
C56   O50   S    
C3    C17   A    
C45   C80   D    
C87   O57   S    
C2    C14   A    
Cr2   O32   S    
C5    C15   A    
C3    C21   A    
Cr9   O46   S    
Cr3   O29   S    
C46   H32   S    
H41   O54   S    
C4    C20   A    
C8    H21   S    
C71   O45   A    
C12   O19   A    
C82   O60   S    
C20   C21   A    
C67   C82   D    
C8    C16   A    
C23   C85   S    
Cr7   O39   S    
C27   C28   A    
C72   O2    A    
H47   O60   S    
C39   C48   D    
C60   H11   S    
C37   C46   D    
H48   O61   S    
C70   O48   A    
H37   O50   S    
C66   O40   A    
C35   H8    S    
C2    C62   S    
Cr12  O9    S    
C65   O35   A    
