data_mof_unit_28532.cif
_audit_creation_date              2013-03-05T16:47:21-0500
_audit_creation_method            fapswitch 2.2
_symmetry_space_group_name_H-M    P1
_symmetry_Int_Tables_number       1
_space_group_crystal_system       triclinic
_cell_length_a                    10.88207
_cell_length_b                    10.912945
_cell_length_c                    9.699973
_cell_angle_alpha                 89.557642
_cell_angle_beta                  90.668721
_cell_angle_gamma                 90.004475
_cell_volume                      1151.81169141

loop_
_atom_site_label
_atom_site_type_symbol
_atom_site_description
_atom_site_fract_x
_atom_site_fract_y
_atom_site_fract_z
_atom_type_partial_charge
O1    O     O_R   0.500020 0.321960 0.617040 -0.584585
O2    O     O_R   0.499980 0.321920 0.382900 -0.585335
C1    C     C_R   0.503282 0.265285 0.500701 0.881246
O3    O     O_R   0.319660 0.500030 0.617070 -0.592881
O4    O     O_R   0.319620 0.499990 0.382930 -0.567552
C2    C     C_R   0.262275 0.504251 0.498773 0.783169
Cu1   Cu    Cu3+1 0.500020 0.500020 0.638630 0.945101
Cu2   Cu    Cu3+1 0.499980 0.499980 0.361370 0.974098
O5    O     O_R   0.500020 0.678080 0.617100 -0.591154
O6    O     O_R   0.499980 0.678040 0.382960 -0.537823
O7    O     O_R   0.680380 0.500010 0.617070 -0.569036
O8    O     O_R   0.680340 0.499970 0.382930 -0.578192
C3    C     C_R   0.503537 0.734694 0.499298 0.895832
C4    C     C_R   0.737738 0.503631 0.501170 0.816297
H1    H     H_    0.259705 0.608469 0.879339 0.149524
C5    C     C_R   0.215969 0.681904 0.077650 -0.134695
H2    H     H_    0.254661 0.771127 0.055260 0.135541
C6    C     C_R   0.163859 0.658448 0.206094 -0.077750
H3    H     H_    0.162408 0.730194 0.282612 0.115039
C7    C     C_R   0.114577 0.542395 0.235925 0.140737
C8    C     C_R   0.116400 0.450749 0.135410 -0.136063
H4    H     H_    0.078088 0.361095 0.156788 0.118909
C9    C     C_R   0.168912 0.474528 0.007159 -0.127844
H5    H     H_    0.171581 0.403140 0.930454 0.121642
C10   C     C_R   0.218534 0.590063 0.978303 -0.118143
C11   C     C_R   0.932416 0.512027 0.377233 -0.205613
H6    H     H_    0.880950 0.512571 0.281331 0.161730
C12   C     C_R   0.871711 0.510385 0.503540 -0.077065
C13   C     C_R   0.940534 0.517381 0.627861 -0.008104
C14   C     C_R   0.067553 0.512676 0.622577 -0.241549
H7    H     H_    0.119062 0.513901 0.718319 0.159250
C15   C     C_R   0.128268 0.511606 0.496333 -0.086577
C16   C     C_R   0.059389 0.518582 0.371942 -0.009311
C17   C     C_R   0.844711 0.657827 0.796871 -0.118013
H8    H     H_    0.853374 0.732341 0.723193 0.129404
C18   C     C_R   0.792590 0.680101 0.925194 -0.124969
H9    H     H_    0.761171 0.771224 0.950410 0.178671
C19   C     C_R   0.780494 0.584637 0.020751 -0.120917
H10   H     H_    0.739457 0.602260 0.119584 0.184422
C20   C     C_R   0.820721 0.466688 0.988415 -0.140300
H11   H     H_    0.811060 0.392853 0.062635 0.135049
C21   C     C_R   0.873736 0.444145 0.860418 -0.119568
H12   H     H_    0.905106 0.352688 0.836327 0.118708
C22   C     C_R   0.885142 0.539601 0.763700 0.140755
C23   C     C_2   0.549786 0.934932 0.393295 0.387829
C24   C     C_2   0.502584 0.867305 0.497392 -0.445822
H13   H     H_    0.453212 0.909144 0.581232 0.127823
C25   C     C_2   0.530767 0.068362 0.389659 -0.224087
C26   C     C_2   0.516450 0.133390 0.504836 -0.394451
H14   H     H_    0.534654 0.114598 0.290216 0.196184
H15   H     H_    0.522086 0.091073 0.606228 0.160030
C27   C     C_2   0.470073 0.405121 0.922698 -0.071530
N1    N     N_2   0.498640 0.498660 0.846910 -0.285881
H16   H     H_    0.440249 0.321672 0.872579 0.156543
H17   H     H_    0.532044 0.575892 0.893843 0.207999
C28   C     C_2   0.476886 0.403317 0.077951 -0.057628
N2    N     N_2   0.498610 0.498630 0.153040 -0.283719
H18   H     H_    0.459995 0.316192 0.128447 0.156643
H19   H     H_    0.507012 0.582421 0.105401 0.208744
N3    N     N_R   0.619205 0.880288 0.284036 0.133197
O9    O     O_R   0.609197 0.923122 0.158786 -0.412896
O10   O     O_R   0.707417 0.803439 0.313297 -0.391064

loop_
_geom_bond_atom_site_label_1
_geom_bond_atom_site_label_2
_geom_bond_distance
_ccdc_geom_bond_type
O4    Cu2   1.976226 S    
C19   C20   1.398690 A    
C9    H5    1.082045 S    
C23   N3    1.441520 S    
C20   H11   1.082306 S    
C13   C14   1.384746 A    
Cu2   N2    2.020844 S    
C11   C16   1.385103 A    
C11   C12   1.398675 A    
C3    C24   1.447184 S    
O8    C4    1.300443 A    
Cu2   O8    1.971371 S    
C15   C16   1.414552 A    
C26   H15   1.084381 S    
C25   H14   1.086390 S    
O2    C1    1.295035 A    
C1    C26   1.446686 S    
Cu1   Cu2   2.689414 S    
C5    C6    1.396750 A    
O1    Cu1   1.956019 S    
C23   C24   1.352264 D    
C7    C8    1.402412 A    
C14   C15   1.398332 A    
C11   H6    1.080198 S    
C14   H7    1.079297 S    
C21   C22   1.402967 A    
C18   H9    1.082298 S    
O3    Cu1   1.971372 S    
C7    C16   1.477190 S    
C20   C21   1.398680 A    
C12   C13   1.414671 A    
C27   H16   1.083562 S    
Cu1   O7    1.976225 S    
C17   C18   1.396892 A    
C8    C9    1.397533 A    
C13   C22   1.477094 S    
O4    C2    1.292825 A    
O7    C4    1.292572 A    
N2    H19   1.025904 S    
O3    C2    1.300486 A    
H1    C10   1.081492 S    
C21   H12   1.082958 S    
Cu1   N1    2.020480 S    
N1    H17   1.025556 S    
C18   C19   1.396324 A    
Cu1   O5    1.952746 S    
C9    C10   1.399136 A    
C17   C22   1.404105 A    
C27   N1    1.293360 D    
C6    C7    1.404690 A    
N3    O10   1.302093 A    
C17   H8    1.083259 S    
C23   C25   1.470869 S    
C5    C10   1.396240 A    
C28   N2    1.294580 D    
C6    H3    1.083242 S    
O5    C3    1.295766 A    
C24   H13   1.083729 S    
C25   C26   1.338791 D    
C2    C15   1.460389 S    
C4    C12   1.459679 S    
C8    H4    1.082997 S    
Cu2   O6    1.956019 S    
O2    Cu2   1.952744 S    
C27   C28   1.506879 S    
C5    H2    1.082280 S    
C28   H18   1.082870 S    
N3    O9    1.301748 A    
O1    C1    1.291889 A    
O6    C3    1.291103 A    
C19   H10   1.080893 S    
