data_mof_unit_31255.cif
_audit_creation_date              2012-12-11T15:48:52-0500
_audit_creation_method            fapswitch 2.2
_symmetry_space_group_name_H-M    P1
_symmetry_Int_Tables_number       1
_space_group_crystal_system       triclinic
_cell_length_a                    10.949606
_cell_length_b                    10.97152
_cell_length_c                    18.794329
_cell_angle_alpha                 90.545667
_cell_angle_beta                  90.109137
_cell_angle_gamma                 60.162874
_cell_volume                      1958.44407168

loop_
_atom_site_label
_atom_site_type_symbol
_atom_type_description
_atom_site_fract_x
_atom_site_fract_y
_atom_site_fract_z
_atom_type_partial_charge
C1    C     C_R   0.239913 0.645528 0.610476 0.540813
C2    C     C_R   0.578891 0.140318 0.709596 -0.181155
C3    C     C_R   0.575439 0.146449 0.782768 -0.170866
C4    C     C_R   0.653793 0.622378 0.600879 0.540322
C5    C     C_3   0.935459 0.092626 0.785729 -0.271731
C6    C     C_3   0.930431 0.100499 0.705176 -0.280826
C7    C     C_R   0.674680 0.163851 0.671985 0.015280
C8    C     C_R   0.181645 0.666734 0.835233 0.013413
C9    C     C_R   0.154369 0.576116 0.794110 0.019600
C10   C     C_R   0.162858 0.574070 0.720316 -0.004835
C11   C     C_R   0.215758 0.761978 0.726275 -0.171770
C12   C     C_3   0.669921 0.551618 0.799849 -0.253366
C13   C     C_R   0.215260 0.758340 0.800165 -0.179351
C14   C     C_3   0.227894 0.419832 0.797235 -0.283422
C15   C     C_3   0.234761 0.418158 0.716736 -0.270934
C16   C     C_R   0.630285 0.225634 0.601822 0.538235
C17   C     C_R   0.195860 0.665323 0.684993 0.012090
C18   C     C_R   0.651719 0.658505 0.165152 0.016803
C19   C     C_R   0.747728 0.536566 0.201631 0.030451
C20   C     C_R   0.743627 0.530426 0.274301 0.037778
C21   C     C_R   0.531004 0.753681 0.278006 -0.162312
C22   C     C_R   0.534288 0.760785 0.203213 -0.171951
C23   C     C_3   0.698400 0.673689 0.812281 0.051562
C24   C     C_3   0.906128 0.455160 0.202230 -0.266194
C25   C     C_3   0.899505 0.451416 0.282296 -0.280510
C26   C     C_R   0.643428 0.642368 0.314492 0.019133
C27   C     C_R   0.633915 0.190810 0.168431 0.019251
C28   C     C_R   0.220521 0.649098 0.402074 0.555149
C29   C     C_R   0.516449 0.208169 0.206509 0.019440
C30   C     C_R   0.513503 0.219498 0.279298 0.033308
C31   C     C_R   0.729562 0.225965 0.277537 -0.153949
C32   C     C_R   0.731157 0.218032 0.203323 -0.155495
C33   C     C_3   0.448178 0.119118 0.208804 -0.270462
C34   C     C_3   0.669732 0.648137 0.676283 0.057864
C35   C     C_3   0.444487 0.133117 0.288911 -0.279996
C36   C     C_R   0.626527 0.213801 0.316310 0.021711
C37   C     C_R   0.117811 0.690659 0.188641 0.024953
C38   C     C_R   0.069834 0.810713 0.231579 0.047213
C39   C     C_R   0.082534 0.802165 0.303960 0.014597
C40   C     C_R   0.639338 0.619803 0.390541 0.546487
C41   C     C_R   0.173595 0.551552 0.294476 -0.164739
C42   C     C_R   0.160853 0.561275 0.220693 -0.179832
C43   C     C_3   0.102054 0.927665 0.227662 -0.264205
C44   C     C_3   0.111828 0.921996 0.307784 -0.274049
C45   C     C_3   0.815722 0.631902 0.690296 -0.247809
C46   C     C_R   0.147432 0.670586 0.335738 0.017414
C47   C     C_R   0.702192 0.099753 0.895248 0.540782
C48   C     C_R   0.723042 0.687819 0.888317 0.542745
C49   C     C_R   0.119338 0.705365 0.906100 0.538309
C50   C     C_R   0.672463 0.111850 0.102310 0.548389
C51   C     C_R   0.694930 0.688521 0.096873 0.544721
C52   C     C_R   0.612104 0.238075 0.392252 0.547489
C53   C     C_R   0.089175 0.712112 0.113858 0.546360
C54   C     C_3   0.571899 0.810224 0.782622 -0.232578
C55   C     C_3   0.556330 0.796081 0.702208 -0.239576
C56   C     C_3   0.654620 0.535698 0.719627 -0.212836
C57   C     C_3   0.832950 0.644979 0.770520 -0.216653
C58   C     C_R   0.682716 0.151569 0.822212 0.016973
C59   C     C_R   0.779568 0.174074 0.784749 -0.007076
C60   C     C_R   0.773625 0.183279 0.710656 0.012227
Cr1   Cr    Cr6+3 0.392960 0.397920 0.502240 1.003724
Cr2   Cr    Cr6+3 0.398340 0.708480 0.501250 1.000209
Cr3   Cr    Cr6+3 0.708670 0.393570 0.496460 1.005437
Cr4   Cr    Cr6+3 0.937650 0.938540 0.007610 1.005645
Cr5   Cr    Cr6+3 0.625330 0.937370 0.994520 1.000282
Cr6   Cr    Cr6+3 0.937940 0.625230 0.001190 1.003680
H1    H     H_    0.590163 0.899313 0.792220 0.144887
H2    H     H_    0.236683 0.838314 0.701724 0.133278
H3    H     H_    0.472772 0.833651 0.810423 0.115877
H4    H     H_    0.231116 0.834683 0.829631 0.129146
H5    H     H_    0.159586 0.380210 0.818363 0.131716
H6    H     H_    0.331700 0.376914 0.823692 0.143081
H7    H     H_    0.342677 0.373669 0.695467 0.179856
H8    H     H_    0.168756 0.379660 0.690901 0.123399
H9    H     H_    0.451813 0.850830 0.176211 0.115211
H10   H     H_    0.953846 0.517617 0.184037 0.178356
H11   H     H_    0.949444 0.349813 0.176732 0.122136
H12   H     H_    0.738713 0.430044 0.702720 0.148791
H13   H     H_    0.940929 0.343871 0.303307 0.130253
H14   H     H_    0.449424 0.813811 0.691321 0.136264
H15   H     H_    0.811045 0.236224 0.304474 0.129091
H16   H     H_    0.815832 0.218607 0.174118 0.118628
H17   H     H_    0.520879 0.010485 0.190395 0.169830
H18   H     H_    0.341968 0.171294 0.184117 0.128009
H19   H     H_    0.336051 0.194951 0.310772 0.132465
H20   H     H_    0.513403 0.032422 0.316398 0.139665
H21   H     H_    0.218496 0.448473 0.317871 0.142843
H22   H     H_    0.190443 0.467688 0.188941 0.122121
H23   H     H_    0.923611 0.544947 0.788878 0.142967
H24   H     H_    0.012823 0.026000 0.207732 0.142163
H25   H     H_    0.567514 0.877904 0.673225 0.113040
H26   H     H_    0.204463 0.895321 0.201046 0.137169
H27   H     H_    0.218572 0.893593 0.326318 0.162105
H28   H     H_    0.025237 0.015995 0.334512 0.128750
H29   H     H_    0.856738 0.731177 0.780767 0.126630
H30   H     H_    0.826773 0.714096 0.661471 0.115811
H31   H     H_    0.757974 0.452179 0.821100 0.130734
H32   H     H_    0.571883 0.572490 0.827977 0.119078
H33   H     H_    0.551242 0.542729 0.708769 0.128033
H34   H     H_    0.900808 0.527828 0.670945 0.132526
H35   H     H_    0.492927 0.134905 0.807855 0.137363
H36   H     H_    0.444714 0.837441 0.307148 0.120527
H37   H     H_    0.939388 0.514778 0.309728 0.145320
H38   H     H_    0.497725 0.128613 0.682606 0.128571
H39   H     H_    0.973213 0.985750 0.806375 0.174601
H40   H     H_    0.981890 0.152317 0.810875 0.127295
H41   H     H_    0.975052 0.164126 0.683613 0.132332
H42   H     H_    0.967751 0.997286 0.678234 0.146177
O1    O     O_R   0.507380 0.255700 0.581440 -0.535249
O2    O     O_R   0.837170 0.593410 0.915250 -0.527778
O3    O     O_R   0.065200 0.635530 0.931570 -0.499196
O4    O     O_R   0.280320 0.527350 0.578930 -0.503707
O5    O     O_R   0.068260 0.828890 0.091840 -0.520362
O6    O     O_R   0.798870 0.057410 0.079340 -0.506620
O7    O     O_R   0.584930 0.080350 0.076780 -0.523533
O8    O     O_R   0.626960 0.809650 0.067060 -0.506520
O9    O     O_R   0.816040 0.596610 0.076510 -0.525556
O10   O     O_R   0.045610 0.638500 0.081060 -0.513943
O11   O     O_3   0.833640 0.833710 0.001100 -0.246776
O12   O     O_R   0.524480 0.695810 0.424040 -0.508381
O13   O     O_R   0.260510 0.739590 0.584590 -0.533374
O14   O     O_R   0.532300 0.695080 0.573820 -0.509688
O15   O     O_R   0.744840 0.503500 0.576370 -0.529461
O16   O     O_R   0.699120 0.276560 0.571960 -0.500147
O17   O     O_R   0.498940 0.256500 0.419860 -0.519817
O18   O     O_R   0.272500 0.528080 0.429150 -0.510583
O19   O     O_R   0.252060 0.740380 0.423010 -0.525074
O20   O     O_R   0.736390 0.504290 0.414790 -0.520105
O21   O     O_R   0.691300 0.277290 0.422170 -0.511723
O22   O     O_3   0.499990 0.499990 0.499980 -0.249056
O23   O     O_R   0.089400 0.825690 0.930570 -0.531355
O24   O     O_R   0.818460 0.054440 0.929850 -0.501424
O25   O     O_R   0.606060 0.077150 0.915510 -0.536759
O26   O     O_R   0.646550 0.806680 0.917570 -0.511269

loop_
_geom_bond_atom_site_label_1
_geom_bond_atom_site_label_2
_ccdc_geom_bond_type
C48   O2    A    
C21   C26   A    
C34   C56   S    
C8    C13   A    
C27   C29   A    
C11   C13   A    
C14   H5    S    
Cr2   O22   S    
C2    C7    A    
C43   C44   S    
Cr1   O1    S    
Cr3   O16   S    
C5    H39   S    
C49   O23   A    
C12   C23   S    
C45   C57   S    
C37   C38   A    
Cr4   O11   S    
C57   H23   S    
C30   C35   S    
C52   O21   A    
C48   O26   A    
C18   C19   A    
C10   C15   S    
C31   C36   A    
C1    O4    A    
C5    C6    S    
C35   H20   S    
C13   H4    S    
C10   C17   A    
C40   O20   A    
C29   C33   S    
C56   H12   S    
C50   O7    A    
C41   C42   A    
Cr3   O22   S    
C37   C42   A    
C55   H25   S    
C44   H27   S    
C33   C35   S    
Cr4   O24   S    
C28   O18   A    
C8    C9    A    
Cr6   O9    S    
C18   C51   S    
C41   C46   A    
Cr1   O18   S    
C23   C48   S    
Cr6   O3    S    
C9    C10   A    
Cr2   O12   S    
Cr3   O20   S    
C36   C52   S    
C27   C50   S    
C49   O3    A    
C37   C53   S    
C3    H35   S    
C34   C55   S    
C18   C22   A    
C21   C22   A    
C47   O25   A    
Cr5   O7    S    
C22   H9    S    
C53   O5    A    
C16   O1    A    
C5    H40   S    
C38   C39   A    
C41   H21   S    
C4    C34   S    
C43   H24   S    
Cr4   O6    S    
C5    C59   S    
C6    C60   S    
C20   C25   S    
C24   C25   S    
Cr1   O4    S    
C53   O10   A    
C25   H37   S    
C51   O8    A    
C54   H1    S    
C58   C59   A    
C4    O15   A    
C50   O6    A    
C9    C14   S    
C29   C30   A    
C31   C32   A    
Cr4   O23   S    
C2    H38   S    
C6    H41   S    
C28   C46   S    
Cr5   O11   S    
C4    O14   A    
C34   C45   S    
Cr6   O2    S    
C33   H17   S    
C12   H31   S    
C12   C56   S    
Cr1   O22   S    
C39   C46   A    
C21   H36   S    
C7    C16   S    
C15   H7    S    
Cr6   O11   S    
C57   H29   S    
Cr5   O8    S    
C42   H22   S    
C7    C60   A    
Cr2   O14   S    
C11   H2    S    
C23   C54   S    
C23   C57   S    
C54   C55   S    
C11   C17   A    
Cr4   O5    S    
C40   O12   A    
C27   C32   A    
C25   H13   S    
C14   H6    S    
C24   H10   S    
Cr5   O26   S    
C45   H34   S    
Cr3   O15   S    
C52   O17   A    
C28   O19   A    
C39   C44   S    
C32   H16   S    
C1    C17   S    
C43   H26   S    
C31   H15   S    
C30   C36   A    
C47   O24   A    
C19   C20   A    
C2    C3    A    
C16   O16   A    
C38   C43   S    
C47   C58   S    
C55   H14   S    
C35   H19   S    
C26   C40   S    
Cr2   O19   S    
C54   H3    S    
C20   C26   A    
C51   O9    A    
C19   C24   S    
Cr3   O21   S    
C33   H18   S    
C1    O13   A    
C44   H28   S    
C3    C58   A    
C24   H11   S    
C59   C60   A    
C15   H8    S    
Cr6   O10   S    
C12   H32   S    
C6    H42   S    
C14   C15   S    
Cr1   O17   S    
C56   H33   S    
C45   H30   S    
C8    C49   S    
Cr2   O13   S    
Cr5   O25   S    
