data_mof_unit_48284.cif
_audit_creation_date              2012-12-10T19:24:11-0500
_audit_creation_method            fapswitch 2.2
_symmetry_space_group_name_H-M    P1
_symmetry_Int_Tables_number       1
_space_group_crystal_system       triclinic
_cell_length_a                    10.527876
_cell_length_b                    10.644729
_cell_length_c                    9.893662
_cell_angle_alpha                 92.108495
_cell_angle_beta                  90.484546
_cell_angle_gamma                 90.716291
_cell_volume                      1107.86558135

loop_
_atom_site_label
_atom_site_type_symbol
_atom_type_description
_atom_site_fract_x
_atom_site_fract_y
_atom_site_fract_z
_atom_type_partial_charge
C1    C     C_R   0.507031 0.258337 0.498570 0.894360
C2    C     C_3   0.586592 0.574019 0.052289 -0.005888
C3    C     C_R   0.258292 0.496111 0.498898 0.884166
C4    C     C_R   0.741708 0.503878 0.501102 0.884141
C5    C     C_3   0.044556 0.468875 0.622408 -0.232224
C6    C     C_3   0.955443 0.531099 0.377592 -0.232209
C7    C     C_3   0.954369 0.387179 0.530978 0.189717
C8    C     C_3   0.045630 0.612793 0.469022 0.189737
C9    C     C_3   0.876567 0.504001 0.503764 -0.084412
C10   C     C_3   0.123432 0.495973 0.496236 -0.084403
C11   C     C_3   0.965598 0.585985 0.593713 -0.001104
C12   C     C_R   0.492969 0.741663 0.501429 0.894405
C13   C     C_3   0.034401 0.413988 0.406287 -0.001117
C14   C     C_3   0.520742 0.045677 0.626251 0.164668
C15   C     C_3   0.479261 0.954321 0.373747 0.164669
C16   C     C_3   0.607784 0.954421 0.547667 0.123184
C17   C     C_3   0.392219 0.045578 0.452331 0.123199
C18   C     C_3   0.490283 0.876853 0.502067 -0.137871
C19   C     C_3   0.509719 0.123145 0.497930 -0.137874
C20   C     C_3   0.902167 0.260230 0.571469 -0.919935
C21   C     C_3   0.097835 0.739741 0.428540 -0.920037
C22   C     C_1   0.934057 0.676637 0.703059 0.153457
C23   C     C_3   0.402619 0.967697 0.580175 0.144617
C24   C     C_1   0.065943 0.323339 0.296937 0.153438
C25   C     C_3   0.728575 0.899172 0.604437 -0.862209
C26   C     C_3   0.271427 0.100826 0.395563 -0.862186
C27   C     C_3   0.555125 0.096106 0.768040 -0.789900
C28   C     C_3   0.444871 0.903890 0.231960 -0.789928
C29   C     C_3   0.286655 0.936481 0.664974 -0.837932
C30   C     C_3   0.713345 0.063518 0.335013 -0.837952
C31   C     C_3   0.736231 0.423708 0.898025 -0.836852
C32   C     C_3   0.263770 0.576291 0.101974 -0.836853
C33   C     C_1   0.542203 0.261777 0.083641 0.199333
C34   C     C_3   0.597384 0.032301 0.419822 0.144641
C35   C     C_1   0.457801 0.738234 0.916377 0.199250
C36   C     C_1   0.315254 0.342132 0.886709 0.199286
C37   C     C_1   0.684749 0.657865 0.113292 0.199284
C38   C     C_3   0.520663 0.389633 0.042638 -0.006165
C39   C     C_3   0.479338 0.610368 0.957363 -0.006130
C40   C     C_3   0.607657 0.463892 0.951729 0.170324
C41   C     C_3   0.392344 0.536108 0.048271 0.170323
C42   C     C_3   0.413409 0.425980 0.947712 -0.005882
H1    H     H_    0.081930 0.443795 0.722935 0.181179
H2    H     H_    0.704378 0.846382 0.695441 0.267085
H3    H     H_    0.771450 0.834539 0.527443 0.237786
H4    H     H_    0.202685 0.024305 0.367109 0.249027
H5    H     H_    0.228546 0.165448 0.472563 0.237796
H6    H     H_    0.295624 0.153625 0.304565 0.267082
H7    H     H_    0.582820 0.018754 0.833199 0.256728
H8    H     H_    0.638148 0.160205 0.762268 0.227084
H9    H     H_    0.473700 0.146524 0.813145 0.249400
H10   H     H_    0.417205 0.981244 0.166791 0.256737
H11   H     H_    0.526285 0.853444 0.186865 0.249409
H12   H     H_    0.918070 0.556180 0.277065 0.181181
H13   H     H_    0.361828 0.839815 0.237734 0.227086
H14   H     H_    0.286144 0.997039 0.758611 0.267212
H15   H     H_    0.197831 0.953967 0.608173 0.238360
H16   H     H_    0.286908 0.836055 0.690730 0.249706
H17   H     H_    0.713750 0.003109 0.241280 0.267234
H18   H     H_    0.713192 0.163982 0.309433 0.249639
H19   H     H_    0.802172 0.045840 0.391716 0.238396
H20   H     H_    0.794262 0.386485 0.981371 0.223497
H21   H     H_    0.723180 0.349918 0.817656 0.247996
H22   H     H_    0.786686 0.505654 0.856929 0.256673
H23   H     H_    0.970811 0.185261 0.544606 0.247056
H24   H     H_    0.205734 0.613498 0.018626 0.223499
H25   H     H_    0.213321 0.494350 0.143086 0.256679
H26   H     H_    0.276823 0.650092 0.182329 0.247985
H27   H     H_    0.886368 0.261329 0.682100 0.248096
H28   H     H_    0.810366 0.240932 0.519258 0.235927
H29   H     H_    0.029166 0.814698 0.455339 0.247055
H30   H     H_    0.189598 0.759057 0.480810 0.235943
H31   H     H_    0.113699 0.738629 0.317926 0.248106
H32   H     H_    0.797321 0.975692 0.632880 0.249038
N1    N     N_3   0.499910 0.500030 0.863290 -0.123364
N2    N     N_3   0.500090 0.499970 0.136710 -0.123366
N3    N     N_1   0.911237 0.747155 0.791008 -0.209751
N4    N     N_1   0.088762 0.252825 0.208985 -0.209748
N5    N     N_1   0.558846 0.159001 0.111096 -0.224805
N6    N     N_1   0.441160 0.841021 0.888945 -0.224796
N7    N     N_1   0.238149 0.275595 0.838904 -0.222170
N8    N     N_1   0.761855 0.724401 0.161099 -0.222132
O1    O     O_R   0.500010 0.313960 0.616610 -0.616045
O2    O     O_R   0.499990 0.686040 0.383390 -0.616038
O3    O     O_R   0.500060 0.313950 0.383350 -0.611480
O4    O     O_R   0.499940 0.686050 0.616650 -0.611492
O5    O     O_R   0.313930 0.499970 0.616610 -0.620473
O6    O     O_R   0.686070 0.500030 0.383390 -0.620473
O7    O     O_R   0.313980 0.499960 0.383350 -0.619174
O8    O     O_R   0.686020 0.500040 0.616650 -0.619173
Zn1   Zn    Zn3+2 0.499970 0.500010 0.655740 0.955831
Zn2   Zn    Zn3+2 0.500030 0.499990 0.344260 0.955836

loop_
_geom_bond_atom_site_label_1
_geom_bond_atom_site_label_2
_ccdc_geom_bond_type
C15   C18   S    
O5    Zn1   S    
C41   C42   S    
C36   C42   S    
C6    C9    S    
O8    Zn1   S    
C39   C41   S    
C38   N2    S    
C42   N1    S    
C17   C23   S    
C21   H29   S    
C17   C26   S    
C23   C29   S    
C5    C11   S    
O4    Zn1   S    
C21   H31   S    
C35   N6    T    
C31   C40   S    
C12   O2    A    
C7    C9    S    
C25   H32   S    
C16   C34   S    
C2    C39   S    
C28   H13   S    
O6    Zn2   S    
C30   H18   S    
C32   C41   S    
C39   N1    S    
C14   C27   S    
C15   C34   S    
C27   H8    S    
C26   H6    S    
C32   H26   S    
C5    H1    S    
C31   H20   S    
C20   H28   S    
C6    H12   S    
C14   C19   S    
C25   H2    S    
O3    Zn2   S    
C27   H9    S    
C4    O8    A    
C1    O3    A    
C1    C19   S    
C30   C34   S    
C21   H30   S    
C3    O5    A    
C18   C23   S    
C31   H21   S    
C20   H23   S    
C5    C7    S    
C33   N5    T    
C6    C8    S    
C19   C34   S    
C13   C24   S    
C14   C23   S    
C35   C39   S    
C36   N7    T    
C30   H17   S    
C8    C21   S    
C16   C18   S    
O7    Zn2   S    
C9    C11   S    
C26   H5    S    
N2    Zn2   S    
C32   H25   S    
C24   N4    T    
C29   H15   S    
C14   C16   S    
C20   H27   S    
C25   H3    S    
C2    N2    S    
C32   H24   S    
C16   C25   S    
C15   C17   S    
C31   H22   S    
C22   N3    T    
C10   C13   S    
C28   H11   S    
C38   C42   S    
C4    O6    A    
C29   H14   S    
N1    Zn1   S    
C1    O1    A    
O1    Zn1   S    
C11   C22   S    
C33   C38   S    
C40   N1    S    
C12   O4    A    
C3    O7    A    
C5    C10   S    
C3    C10   S    
C6    C13   S    
C38   C40   S    
C28   H10   S    
C2    C37   S    
C15   C28   S    
C8    C11   S    
C17   C19   S    
C37   N8    T    
C26   H4    S    
C2    C40   S    
C7    C13   S    
C29   H16   S    
C8    C10   S    
C7    C20   S    
C30   H19   S    
C12   C18   S    
O2    Zn2   S    
C4    C9    S    
C27   H7    S    
C41   N2    S    
