data_mof_unit_5014.cif
_audit_creation_date              2012-12-10T18:02:09-0500
_audit_creation_method            fapswitch 2.2
_symmetry_space_group_name_H-M    P1
_symmetry_Int_Tables_number       1
_space_group_crystal_system       triclinic
_cell_length_a                    10.82128
_cell_length_b                    9.618555
_cell_length_c                    23.55406
_cell_angle_alpha                 90.009308
_cell_angle_beta                  92.197959
_cell_angle_gamma                 90.049205
_cell_volume                      2449.82149255

loop_
_atom_site_label
_atom_site_type_symbol
_atom_type_description
_atom_site_fract_x
_atom_site_fract_y
_atom_site_fract_z
_atom_type_partial_charge
C1    C     C_R   0.262358 0.499969 0.499842 0.824548
C2    C     C_R   0.737634 0.500042 0.500078 0.814997
C3    C     C_R   0.558710 0.599902 0.237324 -0.142781
C4    C     C_R   0.435811 0.594712 0.762117 -0.157887
C5    C     C_R   0.561791 0.608603 0.296756 0.401707
C6    C     C_R   0.431064 0.601706 0.702658 0.318648
C7    C     C_R   0.509957 0.498502 0.328506 -0.165737
C8    C     C_R   0.494121 0.499250 0.671316 -0.145601
C9    C     C_R   0.463678 0.380372 0.299499 -0.247801
C10   C     C_R   0.556104 0.390855 0.700558 -0.241371
C11   C     C_R   0.465981 0.371473 0.240624 -0.055113
C12   C     C_R   0.558299 0.384651 0.759587 -0.059428
C13   C     C_R   0.512122 0.481743 0.209100 0.240605
C14   C     C_R   0.498872 0.486925 0.790558 0.265388
C15   C     C_R   0.063798 0.373702 0.500019 -0.137466
C16   C     C_R   0.936172 0.626393 0.499790 -0.105007
C17   C     C_R   0.935996 0.373743 0.500049 -0.141639
C18   C     C_R   0.063986 0.626350 0.499790 -0.096220
C19   C     C_R   0.871625 0.500082 0.499975 -0.040262
C20   C     C_R   0.128355 0.499996 0.499870 -0.039169
C21   C     C_R   0.406528 0.073283 0.472780 0.412206
C22   C     C_R   0.593479 0.926674 0.527206 0.459354
C23   C     C_R   0.593387 0.073452 0.527286 0.415284
C24   C     C_R   0.406337 0.926504 0.472926 0.467178
C25   C     C_R   0.504016 0.500151 0.391130 0.845138
C26   C     C_R   0.496898 0.500176 0.608800 0.844271
C27   C     C_R   0.612568 0.504929 0.880693 0.603014
C28   C     C_R   0.400820 0.455531 0.118373 0.610927
C29   C     C_R   0.396431 0.454840 0.878801 0.593460
C30   C     C_R   0.619119 0.490643 0.120662 0.593058
C31   C     C_R   0.397189 0.450240 0.938181 -0.073375
C32   C     C_R   0.618858 0.494924 0.061236 -0.078709
C33   C     C_R   0.508219 0.475554 0.969610 -0.053301
C34   C     C_R   0.507762 0.471872 0.029707 -0.054972
C35   C     C_R   0.618869 0.505539 0.941025 -0.136706
C36   C     C_R   0.396678 0.445118 0.058275 -0.132969
C37   C     C_R   0.288983 0.418423 0.966205 -0.182092
C38   C     C_R   0.727644 0.524420 0.033321 -0.167741
C39   C     C_R   0.287009 0.412132 0.025426 0.428965
C40   C     C_R   0.729465 0.534272 0.974134 0.420839
Cu1   Cu    Cu3+1 0.500000 0.640660 0.500000 1.050716
Cu2   Cu    Cu3+1 0.500000 0.359340 0.500000 0.974685
H1    H     H_    0.204962 0.395981 0.941508 0.229312
H2    H     H_    0.812016 0.543760 0.058216 0.248310
H3    H     H_    0.594075 0.684670 0.212433 0.199218
H4    H     H_    0.389809 0.672625 0.786867 0.191933
H5    H     H_    0.424779 0.294136 0.322415 0.190247
H6    H     H_    0.604384 0.311159 0.677659 0.179767
H7    H     H_    0.430640 0.278980 0.219371 0.185213
H8    H     H_    0.606796 0.300593 0.781376 0.172540
H9    H     H_    0.111683 0.274875 0.500152 0.207502
H10   H     H_    0.888270 0.725214 0.499626 0.208841
H11   H     H_    0.887967 0.274923 0.500114 0.205472
H12   H     H_    0.112031 0.725162 0.499777 0.211258
N1    N     N_R   0.502705 0.481889 0.851533 -0.469972
N2    N     N_R   0.510946 0.474429 0.147981 -0.466407
N3    N     N_R   0.500000 0.852070 0.500000 -0.314445
N4    N     N_R   0.500000 0.147930 0.500000 -0.332545
O1    O     O_R   0.319640 0.618740 0.500000 -0.558590
O2    O     O_R   0.680360 0.381260 0.500000 -0.584068
O3    O     O_R   0.680360 0.618740 0.500000 -0.563953
O4    O     O_R   0.319640 0.381260 0.500000 -0.579524
O5    O     O_R   0.499960 0.618810 0.417880 -0.542124
O6    O     O_R   0.500040 0.381190 0.582120 -0.605696
O7    O     O_R   0.500040 0.618810 0.582120 -0.544767
O8    O     O_R   0.499960 0.381190 0.417880 -0.616838
O9    O     O_2   0.714229 0.526005 0.850724 -0.432549
O10   O     O_2   0.296090 0.452866 0.147358 -0.434572
O11   O     O_2   0.290348 0.430943 0.848283 -0.502371
O12   O     O_2   0.726864 0.503394 0.151075 -0.485068
S1    S     S_3+6 0.147716 0.350795 0.054681 0.093865
O13   O     O_2   0.084403 0.468558 0.083794 -0.190843
O14   O     O_2   0.061409 0.293203 0.008951 -0.239723
O15   O     O_3   0.180972 0.223913 0.101983 -0.484685
H13   H     H_    0.101296 0.202207 0.119356 0.395283
S2    S     S_3+6 0.871469 0.589816 0.945536 0.097954
O16   O     O_2   0.848604 0.714779 0.908258 -0.218259
O17   O     O_2   0.964034 0.628848 0.992039 -0.239302
O18   O     O_3   0.930625 0.460102 0.907137 -0.443605
H14   H     H_    0.004792 0.500525 0.890065 0.391578
S3    S     S_3+6 0.638104 0.754180 0.328498 0.036267
O19   O     O_2   0.723233 0.706939 0.376607 -0.284777
O20   O     O_2   0.712661 0.829461 0.285540 -0.248567
O21   O     O_3   0.532047 0.863924 0.353274 -0.528868
H15   H     H_    0.580582 0.938825 0.372523 0.359172
S4    S     S_3+6 0.340048 0.735038 0.670003 0.051884
O22   O     O_2   0.258495 0.674033 0.623307 -0.251260
O23   O     O_2   0.259799 0.803740 0.712505 -0.238969
O24   O     O_3   0.432559 0.855804 0.642248 -0.510247
H16   H     H_    0.489324 0.884516 0.674109 0.344042
O25   O     O_3   0.310456 0.137062 0.443179 -0.667518
H17   H     H_    0.343223 0.220907 0.425311 0.356700
O26   O     O_3   0.689634 0.862814 0.556716 -0.668990
H18   H     H_    0.656795 0.779190 0.574739 0.363786
O27   O     O_3   0.689486 0.137397 0.556882 -0.674127
H19   H     H_    0.656769 0.221244 0.574723 0.357550
O28   O     O_3   0.310027 0.862489 0.443503 -0.655960
H20   H     H_    0.342683 0.778776 0.425507 0.371855

loop_
_geom_bond_atom_site_label_1
_geom_bond_atom_site_label_2
_ccdc_geom_bond_type
C23   N4    A    
C38   C40   A    
O26   H18   S    
Cu2   O6    S    
C8    C26   S    
Cu1   Cu2   S    
O27   H19   S    
S2    O18   S    
Cu1   O3    S    
C1    O4    A    
Cu2   N4    S    
C22   N3    A    
O28   H20   S    
C28   N2    A    
C4    H4    S    
C28   O10   S    
S2    O17   D    
C1    O1    A    
C33   C35   A    
C2    O2    A    
C15   C17   A    
C25   O5    A    
C26   O6    A    
C30   O12   S    
C24   N3    A    
C31   C33   A    
C15   H9    S    
Cu2   O4    S    
C18   C20   A    
C3    C13   A    
C2    O3    A    
C13   N2    S    
C14   N1    S    
S3    O20   D    
S3    O19   D    
C29   O11   S    
C15   C20   A    
O15   H13   S    
S4    O23   D    
C24   O28   S    
O21   H15   S    
Cu1   O1    S    
C4    C6    A    
Cu2   O2    S    
O25   H17   S    
C5    C7    A    
S4    O22   D    
Cu1   O7    S    
C29   N1    A    
C27   C35   A    
C30   N2    A    
C3    H3    S    
C40   S2    S    
C32   C34   A    
C37   H1    S    
C38   H2    S    
C11   H7    S    
C5    S3    S    
C12   H8    S    
C29   C31   A    
C33   C34   A    
S2    O16   D    
C9    C11   A    
C10   C12   A    
C16   C18   A    
C12   C14   A    
C9    H5    S    
C32   C38   A    
C10   H6    S    
C22   O26   S    
Cu1   O5    S    
C17   H11   S    
S3    O21   S    
S1    O14   D    
C21   O25   S    
C7    C9    A    
C1    C20   S    
C2    C19   S    
C26   O7    A    
C36   C39   A    
C25   O8    A    
C16   H10   S    
C3    C5    A    
S4    O24   S    
C7    C25   S    
S1    O15   S    
C6    C8    A    
C27   N1    A    
C6    S4    S    
C35   C40   A    
Cu1   N3    S    
C21   N4    A    
C37   C39   A    
C30   C32   A    
C11   C13   A    
C16   C19   A    
C17   C19   A    
C23   O27   S    
C34   C36   A    
C4    C14   A    
C27   O9    S    
C18   H12   S    
O18   H14   S    
C31   C37   A    
S1    O13   D    
C28   C36   A    
C8    C10   A    
C21   C24   A    
Cu2   O8    S    
C39   S1    S    
C22   C23   A    
O24   H16   S    
