data_mof_unit_33575.cif
_audit_creation_date              2013-03-05T16:00:39-0500
_audit_creation_method            fapswitch 2.2
_symmetry_space_group_name_H-M    P1
_symmetry_Int_Tables_number       1
_space_group_crystal_system       triclinic
_cell_length_a                    10.763089
_cell_length_b                    14.67286
_cell_length_c                    14.672305
_cell_angle_alpha                 65.334487
_cell_angle_beta                  103.267537
_cell_angle_gamma                 102.725978
_cell_volume                      2029.09964307

loop_
_atom_site_label
_atom_site_type_symbol
_atom_site_description
_atom_site_fract_x
_atom_site_fract_y
_atom_site_fract_z
_atom_type_partial_charge
O1    O     O_R   0.455060 0.022100 0.338110 -0.597853
O2    O     O_R   0.512640 0.160150 0.379180 -0.586085
C1    C     C_R   0.477407 0.119645 0.312175 0.815925
O3    O     O_R   0.288900 0.930980 0.479450 -0.599694
O4    O     O_R   0.346480 0.069030 0.520520 -0.579367
C2    C     C_R   0.259965 0.001687 0.497844 0.814528
Cu1   Cu    Cu3+1 0.465900 0.918260 0.475680 0.925141
Cu2   Cu    Cu3+1 0.534100 0.081740 0.524320 0.982366
O5    O     O_R   0.487360 0.839850 0.620820 -0.601134
O6    O     O_R   0.544940 0.977900 0.661890 -0.576152
O7    O     O_R   0.653520 0.930970 0.479480 -0.613751
O8    O     O_R   0.711100 0.069020 0.520550 -0.549649
C3    C     C_R   0.521995 0.880482 0.687800 0.847040
C4    C     C_R   0.738339 0.003213 0.492447 0.832902
C5    C     C_3   0.037223 0.950070 0.425007 -0.339707
H1    H     H_    0.050506 0.869108 0.458690 0.175531
H2    H     H_    0.070781 0.981907 0.350103 0.198332
C6    C     C_3   0.893241 0.960352 0.409643 -0.123559
H3    H     H_    0.869912 0.020348 0.333180 0.198450
H4    H     H_    0.891443 0.853381 0.611622 0.101594
C7    C     C_3   0.085404 0.940404 0.606695 -0.198808
C8    C     C_3   0.092164 0.111984 0.459515 0.178807
C9    C     C_3   0.121689 0.001124 0.496968 -0.077750
H5    H     H_    0.149398 0.145101 0.514909 0.124638
C10   C     C_3   0.875236 0.000468 0.490906 -0.082682
C11   C     C_3   0.936708 0.932565 0.599789 0.200075
C12   C     C_3   0.948544 0.110785 0.459866 -0.449595
H6    H     H_    0.902006 0.159403 0.383914 0.199618
H7    H     H_    0.941605 0.146018 0.512021 0.218648
H8    H     H_    0.137188 0.985247 0.652877 0.192565
C13   C     C_R   0.461320 0.187341 0.204526 -0.041045
C14   C     C_R   0.529566 0.813410 0.795420 -0.020461
C15   C     C_R   0.414331 0.216426 0.026184 -0.178504
C16   C     C_R   0.426797 0.149649 0.127534 -0.185795
C17   C     C_R   0.480908 0.291934 0.179260 -0.187189
C18   C     C_R   0.464942 0.360801 0.077887 0.094871
C19   C     C_R   0.434397 0.321430 0.000839 0.159242
C20   C     C_R   0.481623 0.467419 0.051215 0.066631
C21   C     C_R   0.480083 0.533537 0.947407 0.068521
C22   C     C_R   0.447965 0.491035 0.872780 -0.213207
C23   C     C_R   0.424603 0.387052 0.899309 -0.211007
C24   C     C_R   0.496919 0.510010 0.124530 -0.164883
C25   C     C_R   0.515415 0.613970 0.097618 -0.157567
C26   C     C_R   0.520724 0.679524 0.997170 0.157853
C27   C     C_R   0.506377 0.640121 0.921435 0.070895
C28   C     C_R   0.538778 0.784511 0.971371 -0.165447
C29   C     C_R   0.541118 0.851142 0.870704 -0.161077
C30   C     C_R   0.518175 0.709135 0.821885 -0.251315
H9    H     H_    0.399870 0.357820 0.839689 0.151441
H10   H     H_    0.518402 0.683682 0.762973 0.149699
H11   H     H_    0.550739 0.931789 0.851746 0.153397
H12   H     H_    0.525411 0.643220 0.156091 0.156138
H13   H     H_    0.389623 0.186002 0.967495 0.141484
H14   H     H_    0.411004 0.068903 0.145532 0.156547
H15   H     H_    0.512325 0.318028 0.240364 0.147983
H16   H     H_    0.435770 0.535931 0.792445 0.144638
H17   H     H_    0.490665 0.465251 0.203428 0.143983
H18   H     H_    0.548554 0.814959 0.028861 0.140736
N1    N     N_R   0.585360 0.204570 0.560800 -0.193583
N2    N     N_R   0.414550 0.795430 0.439160 -0.181031
C31   C     C_R   0.713968 0.284840 0.669426 -0.310566
C32   C     C_R   0.679724 0.202424 0.640557 0.089293
C33   C     C_R   0.523079 0.287108 0.506220 -0.000595
C34   C     C_R   0.554122 0.374246 0.530990 0.004269
C35   C     C_R   0.650837 0.370496 0.615603 0.160392
C36   C     C_R   0.491613 0.463246 0.476706 0.012556
C37   C     C_R   0.523590 0.545027 0.510876 0.071308
C38   C     C_R   0.620245 0.536576 0.596358 -0.228314
C39   C     C_R   0.683045 0.451585 0.646696 -0.190993
C40   C     C_R   0.399688 0.473454 0.388728 -0.299315
C41   C     C_R   0.334877 0.557862 0.337348 0.326469
C42   C     C_R   0.359664 0.635881 0.374145 0.031449
C43   C     C_R   0.457087 0.631981 0.459040 -0.062770
C44   C     C_R   0.287633 0.717500 0.328424 -0.251287
C45   C     C_R   0.316988 0.796521 0.361975 0.045466
C46   C     C_R   0.483506 0.716282 0.488116 0.022429
H19   H     H_    0.756723 0.448808 0.711744 0.147963
H20   H     H_    0.559768 0.722205 0.548027 0.123273
H21   H     H_    0.263305 0.860146 0.324987 0.128657
H22   H     H_    0.788619 0.281282 0.734040 0.154151
H23   H     H_    0.727674 0.135996 0.682492 0.176298
H24   H     H_    0.448371 0.281844 0.445379 0.171412
H25   H     H_    0.650044 0.594431 0.627006 0.130727
H26   H     H_    0.378578 0.417820 0.355513 0.197932
H27   H     H_    0.208185 0.721027 0.267222 0.194315
N3    N     N_R   0.907231 0.955972 0.680207 0.110913
O9    O     O_R   0.830765 0.890708 0.742274 -0.399810
O10   O     O_R   0.959126 0.039755 0.692598 -0.397924
N4    N     N_R   0.246318 0.563883 0.245829 0.111878
O11   O     O_R   0.257414 0.644088 0.162700 -0.394216
O12   O     O_R   0.170230 0.483287 0.240760 -0.300328
C47   C     C_3   0.806168 0.861619 0.403644 -0.398884
C48   C     C_3   0.839135 0.826117 0.327780 -0.376365
C49   C     C_3   0.738325 0.739665 0.313705 -0.827217
H28   H     H_    0.734239 0.673757 0.387248 0.263815
H29   H     H_    0.641541 0.764491 0.283522 0.251214
H30   H     H_    0.764518 0.715603 0.258979 0.248489
H31   H     H_    0.842780 0.890383 0.252928 0.230583
H32   H     H_    0.934096 0.798382 0.354512 0.221757
H33   H     H_    0.809978 0.799045 0.479845 0.202189
H34   H     H_    0.705513 0.876851 0.373549 0.245556
C50   C     C_3   0.130079 0.833680 0.662918 -0.454323
C51   C     C_3   0.115711 0.786784 0.775883 -0.323650
C52   C     C_3   0.155010 0.680868 0.827745 -0.785657
H35   H     H_    0.089012 0.628895 0.794626 0.246104
H36   H     H_    0.254836 0.683130 0.818083 0.255228
H37   H     H_    0.150130 0.650901 0.910151 0.280443
H38   H     H_    0.177333 0.835667 0.814683 0.236304
H39   H     H_    0.014219 0.780334 0.784761 0.265557
H40   H     H_    0.074444 0.781210 0.626340 0.209303
H41   H     H_    0.233447 0.839256 0.659540 0.216432
N5    N     N_R   0.128853 0.177091 0.359074 0.141400
O13   O     O_R   0.219961 0.253506 0.350359 -0.367731
O14   O     O_R   0.064527 0.165439 0.277066 -0.377897

loop_
_geom_bond_atom_site_label_1
_geom_bond_atom_site_label_2
_geom_bond_distance
_ccdc_geom_bond_type
C5    C6    1.545761 S    
C7    C11   1.561751 S    
C48   C49   1.529189 S    
C12   H7    1.109887 S    
C3    C14   1.465535 S    
C39   H19   1.084339 S    
C17   C18   1.402722 A    
C52   H36   1.107201 S    
Cu1   Cu2   2.685997 S    
C36   C40   1.409014 A    
Cu1   O7    1.976569 S    
C18   C19   1.417948 A    
C46   H20   1.074778 S    
C20   C24   1.417458 A    
Cu2   N1    2.017564 S    
O4    C2    1.296524 A    
O7    C4    1.286656 A    
N3    O10   1.301434 A    
C25   H12   1.084634 S    
C31   H22   1.083801 S    
C5    H1    1.108286 S    
C5    H2    1.111698 S    
C6    H3    1.113737 S    
C23   H9    1.084446 S    
O5    C3    1.297361 A    
N5    O13   1.299455 A    
C38   C39   1.389613 A    
C22   H16   1.076808 S    
C40   C41   1.395985 A    
C37   C43   1.435681 A    
N4    O12   1.301323 A    
C40   H26   1.074716 S    
C48   H32   1.109101 S    
C31   C32   1.391805 A    
C11   N3    1.472709 S    
C21   C27   1.424135 A    
C30   H10   1.075839 S    
C36   C37   1.432020 A    
C44   H27   1.080965 S    
C28   H18   1.084085 S    
C14   C30   1.396457 A    
C50   H41   1.108500 S    
C50   C51   1.537343 S    
C6    C10   1.596163 S    
O3    Cu1   1.969977 S    
C24   H17   1.075959 S    
N5    O14   1.301368 A    
C52   H35   1.111057 S    
C26   C28   1.403304 A    
C15   H13   1.083934 S    
C44   C45   1.389291 A    
C33   H24   1.072437 S    
C17   H15   1.074725 S    
C37   C38   1.413803 A    
O3    C2    1.288716 A    
C21   C22   1.417222 A    
N3    O9    1.301000 A    
C29   H11   1.082991 S    
C49   H30   1.110515 S    
C10   C11   1.568249 S    
N2    C46   1.361713 A    
C15   C19   1.403848 A    
O1    C1    1.298824 A    
C34   C36   1.437132 A    
C49   H29   1.111182 S    
C25   C26   1.389893 A    
C41   N4    1.438768 S    
Cu2   O8    1.969978 S    
C15   C16   1.392686 A    
C13   C16   1.399383 A    
C1    C13   1.467011 S    
C51   H38   1.111919 S    
C47   H34   1.106040 S    
C7    C50   1.560578 S    
C42   C44   1.408927 A    
C22   C23   1.386658 A    
C32   H23   1.081797 S    
O8    C4    1.304156 A    
C16   H14   1.083076 S    
C8    N5    1.471802 S    
C8    C12   1.543182 S    
C7    C9    1.573628 S    
C14   C29   1.399683 A    
C8    H5    1.115402 S    
C50   H40   1.110657 S    
C24   C25   1.386338 A    
Cu1   N2    2.017916 S    
C51   C52   1.525771 S    
C26   C27   1.418093 A    
C47   H33   1.110616 S    
C27   C30   1.403205 A    
Cu1   O5    1.938645 S    
C28   C29   1.392492 A    
N1    C32   1.356373 A    
O1    Cu1   1.952599 S    
C38   H25   1.076171 S    
O2    Cu2   1.938645 S    
C42   C43   1.421882 A    
O6    C3    1.297195 A    
O4    Cu2   1.976569 S    
C10   C12   1.561091 S    
C7    H8    1.113514 S    
N2    C45   1.353460 A    
N1    C33   1.363507 A    
C51   H39   1.108450 S    
C6    C47   1.566897 S    
C34   C35   1.415240 A    
C18   C20   1.424865 A    
O2    C1    1.296450 A    
C41   C42   1.410089 A    
C20   C21   1.422507 A    
H4    C11   1.112863 S    
C35   C39   1.393791 A    
C2    C9    1.483607 S    
C5    C9    1.556266 S    
C47   C48   1.543668 S    
C43   C46   1.422210 A    
C13   C17   1.398432 A    
C4    C10   1.488404 S    
C19   C23   1.390255 A    
C49   H28   1.110666 S    
C33   C34   1.422086 A    
C31   C35   1.402309 A    
Cu2   O6    1.952599 S    
C12   H6    1.113269 S    
C8    C9    1.565385 S    
N4    O11   1.301446 A    
C45   H21   1.082021 S    
C48   H31   1.111754 S    
C52   H37   1.110511 S    
