data_mof_unit_37306.cif
_audit_creation_date              2013-03-05T16:09:17-0500
_audit_creation_method            fapswitch 2.2
_symmetry_space_group_name_H-M    P1
_symmetry_Int_Tables_number       1
_space_group_crystal_system       triclinic
_cell_length_a                    8.679998
_cell_length_b                    10.718428
_cell_length_c                    9.905984
_cell_angle_alpha                 89.823527
_cell_angle_beta                  99.060461
_cell_angle_gamma                 91.932964
_cell_volume                      909.593045364

loop_
_atom_site_label
_atom_site_type_symbol
_atom_site_description
_atom_site_fract_x
_atom_site_fract_y
_atom_site_fract_z
_atom_type_partial_charge
O1    O     O_R   0.499990 0.316750 0.614620 -0.652187
O2    O     O_R   0.500010 0.683250 0.385380 -0.652187
O3    O     O_R   0.499990 0.316780 0.385290 -0.584041
O4    O     O_R   0.500010 0.683220 0.614710 -0.584041
C1    C     C_R   0.501145 0.260113 0.500346 0.889205
C2    C     C_R   0.498855 0.739887 0.499654 0.889205
O5    O     O_R   0.271750 0.499990 0.587840 -0.614903
O6    O     O_R   0.728250 0.500010 0.412160 -0.614904
O7    O     O_R   0.271750 0.500010 0.358510 -0.550399
O8    O     O_R   0.728250 0.499990 0.641490 -0.550399
C3    C     C_R   0.201680 0.500913 0.464269 0.904856
C4    C     C_R   0.798320 0.499087 0.535731 0.904856
Zn1   Zn    Zn3+2 0.500000 0.499980 0.653120 1.065751
Zn2   Zn    Zn3+2 0.500000 0.500020 0.346880 1.065750
N1    N     N_R   0.499960 0.499970 0.857200 -0.174405
N2    N     N_R   0.500040 0.500030 0.142800 -0.174405
C5    C     C_2   0.037425 0.486161 0.446932 -0.012032
C6    C     C_2   0.962575 0.513839 0.553068 -0.012032
C7    C     C_R   0.540944 0.065446 0.387890 -0.070304
C8    C     C_R   0.459056 0.934554 0.612110 -0.070304
H1    H     H_    0.575299 0.115275 0.301584 0.217117
H2    H     H_    0.424700 0.884725 0.698416 0.217117
C9    C     C_R   0.536767 0.937569 0.386237 -0.148806
C10   C     C_R   0.463233 0.062430 0.613763 -0.148806
H3    H     H_    0.565238 0.890397 0.297561 0.181302
H4    H     H_    0.434762 0.109603 0.702439 0.181302
C11   C     C_R   0.497482 0.872411 0.498989 -0.047224
C12   C     C_R   0.502518 0.127589 0.501011 -0.047224
C13   C     C_R   0.587183 0.586906 0.084042 -0.107292
C14   C     C_R   0.412817 0.413094 0.915958 -0.107292
C15   C     C_R   0.584644 0.588912 0.939969 0.347876
C16   C     C_R   0.415356 0.411087 0.060031 0.347876
N3    N     N_R   0.962351 0.422556 0.325072 0.239573
O9    O     O_R   0.956326 0.476439 0.206604 -0.310050
O10   O     O_R   0.906724 0.308847 0.332155 -0.357370
N4    N     N_R   0.037649 0.577444 0.674928 0.239573
O11   O     O_R   0.043674 0.523562 0.793396 -0.310050
O12   O     O_R   0.093276 0.691153 0.667844 -0.357370
C17   C     C_1   0.691385 0.671777 0.169876 0.414354
N5    N     N_1   0.777087 0.739246 0.237936 -0.164481
C18   C     C_1   0.308615 0.328223 0.830124 0.414354
N6    N     N_1   0.222913 0.260754 0.762063 -0.164481
N7    N     N_R   0.666096 0.688069 0.881212 0.215589
O13   O     O_R   0.800482 0.667882 0.845163 -0.276492
O14   O     O_R   0.628198 0.802678 0.898304 -0.405637
N8    N     N_R   0.333904 0.311931 0.118788 0.215589
O15   O     O_R   0.199518 0.332118 0.154837 -0.276492
O16   O     O_R   0.371802 0.197322 0.101696 -0.405637

loop_
_geom_bond_atom_site_label_1
_geom_bond_atom_site_label_2
_geom_bond_distance
_ccdc_geom_bond_type
C7    C9    1.369972 A    
O7    Zn2   2.002583 S    
C14   C18   1.440702 S    
N1    C15   1.374447 A    
C8    C11   1.395671 A    
C9    C11   1.396646 A    
N2    C16   1.374446 A    
C1    C12   1.420888 S    
N7    O14   1.300771 A    
C18   N6    1.157426 T    
C2    C11   1.420888 S    
O6    C4    1.278384 A    
N7    O13   1.297566 A    
C16   N8    1.429435 S    
C13   C17   1.440702 S    
N4    O12   1.301514 A    
C5    C6    1.358520 D    
C13   C15   1.423988 A    
O5    C3    1.278385 A    
C7    C12   1.395670 A    
O7    C3    1.291790 A    
O2    C2    1.287735 A    
O3    Zn2   1.999409 S    
C15   N7    1.429435 S    
O1    C1    1.287735 A    
O8    C4    1.291790 A    
C5    N3    1.440126 S    
N4    O11   1.300775 A    
N3    O10   1.301515 A    
C8    H2    1.082525 S    
N3    O9    1.300775 A    
N8    O16   1.300770 A    
Zn1   N1    2.021669 S    
O2    Zn2   2.001773 S    
Zn2   N2    2.021667 S    
O1    Zn1   2.001772 S    
C14   C16   1.423988 A    
C10   C12   1.396647 A    
O5    Zn1   1.984911 S    
C9    H3    1.080684 S    
N1    C14   1.365955 A    
O4    C2    1.288630 A    
C4    C6    1.412462 S    
C17   N5    1.157426 T    
N8    O15   1.297567 A    
C3    C5    1.412462 S    
O6    Zn2   1.984910 S    
C7    H1    1.082525 S    
N2    C13   1.365955 A    
C6    N4    1.440126 S    
C8    C10   1.369972 A    
O4    Zn1   1.999410 S    
C10   H4    1.080684 S    
O3    C1    1.288630 A    
O8    Zn1   2.002582 S    
