data_mof_unit_26347.cif
_audit_creation_date              2012-12-10T21:00:44-0500
_audit_creation_method            fapswitch 2.2
_symmetry_space_group_name_H-M    P1
_symmetry_Int_Tables_number       1
_space_group_crystal_system       triclinic
_cell_length_a                    18.102365
_cell_length_b                    18.146717
_cell_length_c                    18.389347
_cell_angle_alpha                 119.964035
_cell_angle_beta                  89.966028
_cell_angle_gamma                 119.904237
_cell_volume                      4281.28892328

loop_
_atom_site_label
_atom_site_type_symbol
_atom_type_description
_atom_site_fract_x
_atom_site_fract_y
_atom_site_fract_z
_atom_type_partial_charge
C1    C     C_R   0.109297 0.220209 0.609871 0.792124
C2    C     C_R   0.890704 0.779790 0.390130 0.792113
C3    C     C_3   0.996849 0.444321 0.415230 -0.256241
C4    C     C_3   0.003151 0.555681 0.584771 -0.256236
C5    C     C_3   0.448706 0.966848 0.923485 -0.171648
C6    C     C_3   0.551294 0.033152 0.076514 -0.171668
C7    C     C_3   0.553268 0.038151 0.959792 -0.131946
C8    C     C_3   0.446731 0.961849 0.040206 -0.131966
C9    C     C_3   0.549693 0.102507 0.052645 0.017484
C10   C     C_3   0.450307 0.897493 0.947354 0.017484
C11   C     C_3   0.445867 0.032681 0.017109 -0.132239
C12   C     C_3   0.554132 0.967319 0.982890 -0.132254
C13   C     C_3   0.443881 0.404081 0.478806 0.378308
C14   C     C_3   0.556118 0.595920 0.521193 0.378319
C15   C     C_3   0.547468 0.467145 0.511512 0.350842
C16   C     C_3   0.452532 0.532856 0.488488 0.350857
C17   C     C_3   0.550094 0.499186 0.448088 -0.224692
C18   C     C_3   0.449906 0.500815 0.551911 -0.224697
C19   C     C_3   0.445986 0.435268 0.414088 -0.359127
C20   C     C_3   0.554014 0.564733 0.585912 -0.359153
C21   C     C_R   0.033181 0.133995 0.827165 -0.133516
C22   C     C_R   0.966963 0.866091 0.172868 -0.133516
C23   C     C_R   0.392867 0.781213 0.888250 0.816104
C24   C     C_R   0.607133 0.218787 0.111749 0.816108
C25   C     C_R   0.036747 0.090051 0.740692 -0.115084
C26   C     C_R   0.963368 0.910021 0.259330 -0.115121
C27   C     C_R   0.998952 0.098556 0.680980 0.141075
C28   C     C_R   0.001082 0.901447 0.319032 0.141085
C29   C     C_R   0.956565 0.150391 0.708496 -0.107472
C30   C     C_R   0.043420 0.849554 0.291517 -0.107426
C31   C     C_R   0.952869 0.193915 0.794998 -0.073948
C32   C     C_R   0.047144 0.806041 0.205025 -0.073924
C33   C     C_R   0.991231 0.185765 0.854243 -0.097966
C34   C     C_R   0.008862 0.814261 0.145790 -0.097909
C35   C     C_R   0.951647 0.943269 0.533613 -0.216558
C36   C     C_R   0.048361 0.056731 0.466391 -0.216571
C37   C     C_R   0.948687 0.892186 0.445119 -0.050776
C38   C     C_R   0.051320 0.107814 0.554883 -0.050770
C39   C     C_R   0.998117 0.949409 0.410933 -0.012794
C40   C     C_R   0.001895 0.050590 0.589072 -0.012826
C41   C     C_R   0.638383 0.582882 0.785734 -0.122971
C42   C     C_R   0.361576 0.417090 0.214238 -0.122971
C43   C     C_R   0.590157 0.536858 0.827212 -0.188978
C44   C     C_R   0.409799 0.463120 0.172763 -0.189031
C45   C     C_R   0.110178 0.500315 0.889065 0.827728
C46   C     C_R   0.889821 0.499684 0.110934 0.827707
C47   C     C_R   0.591776 0.598560 0.913599 0.047379
C48   C     C_R   0.408221 0.401429 0.086393 0.047376
C49   C     C_R   0.642290 0.707345 0.958183 0.432718
C50   C     C_R   0.357750 0.292649 0.041823 0.432750
C51   C     C_R   0.690148 0.752702 0.915909 -0.174217
C52   C     C_R   0.309893 0.247285 0.084094 -0.174213
C53   C     C_R   0.688475 0.690656 0.830066 -0.193840
C54   C     C_R   0.311526 0.309320 0.169920 -0.193841
C55   C     C_R   0.592242 0.547885 0.013806 -0.190328
C56   C     C_R   0.407757 0.452110 0.986191 -0.190384
C57   C     C_R   0.550334 0.500003 0.056127 -0.040532
C58   C     C_R   0.449665 0.499992 0.943870 -0.040550
C59   C     C_R   0.457006 0.451409 0.042383 0.042861
C60   C     C_R   0.542992 0.548585 0.957613 0.042854
C61   C     C_R   0.091737 0.763969 0.919942 0.115092
C62   C     C_R   0.908270 0.236016 0.080036 0.115087
C63   C     C_R   0.093039 0.710415 0.954944 0.387474
C64   C     C_R   0.906964 0.289573 0.045039 0.387487
C65   C     C_R   0.016548 0.609372 0.921303 0.000350
C66   C     C_R   0.983449 0.390624 0.078692 0.000366
C67   C     C_R   0.392510 0.500201 0.608128 0.944928
C68   C     C_R   0.607490 0.499800 0.391872 0.944934
C69   C     C_R   0.939178 0.564487 0.855648 -0.303844
C70   C     C_R   0.060815 0.435517 0.144356 -0.303856
C71   C     C_R   0.935707 0.618101 0.822922 0.164369
C72   C     C_R   0.064289 0.381903 0.177081 0.164364
C73   C     C_R   0.012594 0.717653 0.855299 -0.207852
C74   C     C_R   0.987409 0.282341 0.144690 -0.207855
C75   C     C_R   0.956828 0.549195 0.014303 -0.270971
C76   C     C_R   0.043170 0.450802 0.985694 -0.270954
C77   C     C_R   0.945782 0.497453 0.054019 -0.026883
C78   C     C_R   0.054216 0.502545 0.945978 -0.026867
C79   C     C_R   0.988929 0.446359 0.038816 0.091264
C80   C     C_R   0.011068 0.553638 0.961180 0.091270
C81   C     C_R   0.393996 0.499322 0.887944 0.827496
C82   C     C_R   0.606004 0.500677 0.112055 0.827524
C83   C     C_R   0.108664 0.500085 0.607993 0.868548
C84   C     C_R   0.891335 0.499915 0.392007 0.868538
C85   C     C_3   0.082691 0.542653 0.495347 0.451694
C86   C     C_3   0.917309 0.457349 0.504655 0.451701
C87   C     C_3   0.035392 0.598554 0.527658 -0.264247
C88   C     C_3   0.964609 0.401447 0.472344 -0.264242
C89   C     C_3   0.949257 0.499652 0.448424 -0.082638
C90   C     C_3   0.050744 0.500349 0.551577 -0.082631
H1    H     H_    0.064284 0.679249 0.549167 0.179124
H2    H     H_    0.935717 0.320752 0.450834 0.179126
H3    H     H_    0.988565 0.219479 0.921141 0.135897
H4    H     H_    0.011549 0.780556 0.078901 0.135932
H5    H     H_    0.062812 0.127778 0.873152 0.142504
H6    H     H_    0.937398 0.872365 0.126890 0.142496
H7    H     H_    0.069286 0.049897 0.720330 0.144127
H8    H     H_    0.930871 0.950223 0.279692 0.144128
H9    H     H_    0.926534 0.156935 0.663022 0.117733
H10   H     H_    0.073391 0.842959 0.336985 0.117671
H11   H     H_    0.920305 0.233960 0.816089 0.168185
H12   H     H_    0.079670 0.765952 0.183936 0.168123
H13   H     H_    0.912591 0.899423 0.559525 0.189520
H14   H     H_    0.087420 0.100578 0.440480 0.189512
H15   H     H_    0.725990 0.726178 0.797879 0.157564
H16   H     H_    0.274012 0.273794 0.202104 0.157560
H17   H     H_    0.637097 0.534916 0.719293 0.194746
H18   H     H_    0.362833 0.465047 0.280666 0.194737
H19   H     H_    0.552006 0.453273 0.792352 0.163349
H20   H     H_    0.447918 0.546701 0.207611 0.163365
H21   H     H_    0.728872 0.836139 0.949649 0.156569
H22   H     H_    0.271202 0.163852 0.050365 0.156560
H23   H     H_    0.663816 0.584055 0.023305 0.174724
H24   H     H_    0.336183 0.415941 0.976693 0.174712
H25   H     H_    0.011653 0.761062 0.831586 0.164074
H26   H     H_    0.988352 0.238930 0.168401 0.164075
H27   H     H_    0.879921 0.488016 0.831718 0.170137
H28   H     H_    0.120067 0.511995 0.168297 0.170131
H29   H     H_    0.922636 0.586742 0.024395 0.173126
H30   H     H_    0.077363 0.413257 0.975604 0.173119
H31   H     H_    0.993741 0.399470 0.345213 0.181529
H32   H     H_    0.006260 0.600532 0.654788 0.181528
H33   H     H_    0.597783 0.070696 0.927311 0.192302
H34   H     H_    0.402217 0.929304 0.072688 0.192300
H35   H     H_    0.406183 0.938549 0.859858 0.165853
H36   H     H_    0.593817 0.061451 0.140141 0.165854
H37   H     H_    0.402195 0.061106 0.032454 0.164125
H38   H     H_    0.597803 0.938892 0.967543 0.164127
H39   H     H_    0.402139 0.381395 0.343649 0.205195
H40   H     H_    0.597861 0.618609 0.656350 0.205192
O1    O     O_3   0.251620 0.500000 0.748430 -0.506819
O2    O     O_3   0.748380 0.500000 0.251570 -0.506823
O3    O     O_R   0.134680 0.560740 0.864590 -0.619219
O4    O     O_R   0.865320 0.439260 0.135410 -0.619220
O5    O     O_R   0.306670 0.439270 0.571150 -0.594992
O6    O     O_R   0.693330 0.560730 0.428850 -0.594990
O7    O     O_R   0.135450 0.268370 0.694460 -0.637655
O8    O     O_R   0.864550 0.731630 0.305540 -0.637650
O9    O     O_R   0.429670 0.731610 0.863510 -0.628596
O10   O     O_R   0.570330 0.268390 0.136490 -0.628585
O11   O     O_R   0.134680 0.268390 0.572240 -0.643008
O12   O     O_R   0.865320 0.731610 0.427760 -0.643011
O13   O     O_R   0.306670 0.731630 0.863510 -0.632215
O14   O     O_R   0.693330 0.268370 0.136490 -0.632222
O15   O     O_R   0.135450 0.439270 0.865360 -0.655198
O16   O     O_R   0.864550 0.560730 0.134640 -0.655204
O17   O     O_R   0.429670 0.560710 0.692610 -0.644849
O18   O     O_R   0.570330 0.439290 0.307390 -0.644849
O19   O     O_R   0.308540 0.439240 0.865360 -0.647658
O20   O     O_R   0.691460 0.560760 0.134640 -0.647650
O21   O     O_R   0.133580 0.439310 0.571150 -0.621216
O22   O     O_R   0.866420 0.560690 0.428850 -0.621217
O23   O     O_R   0.430770 0.560690 0.864590 -0.631530
O24   O     O_R   0.569230 0.439310 0.135410 -0.631524
O25   O     O_R   0.133580 0.560760 0.692610 -0.652006
O26   O     O_R   0.866420 0.439240 0.307390 -0.651999
Zn1   Zn    Zn3+2 0.207400 0.586780 0.791530 1.004949
Zn2   Zn    Zn3+2 0.792600 0.413220 0.208470 1.004949
Zn3   Zn    Zn3+2 0.208510 0.413230 0.792630 0.982768
Zn4   Zn    Zn3+2 0.791490 0.586770 0.207370 0.982779
Zn5   Zn    Zn3+2 0.383150 0.586740 0.791530 1.023309
Zn6   Zn    Zn3+2 0.616850 0.413260 0.208470 1.023327
Zn7   Zn    Zn3+2 0.207400 0.413250 0.618010 1.030945
Zn8   Zn    Zn3+2 0.792600 0.586750 0.381990 1.030944
Cl1   Cl    Cl    0.646029 0.788244 0.066286 -0.642085
Cl2   Cl    Cl    0.354066 0.211765 0.933743 -0.642100
Cl3   Cl    Cl    0.194738 0.601498 0.491899 -0.574115
Cl4   Cl    Cl    0.805264 0.398508 0.508108 -0.574098
C91   C     C_3   0.171486 0.871923 0.951848 -0.399134
C92   C     C_3   0.209009 0.871477 0.877247 -0.807638
H41   H     H_    0.232112 0.819689 0.852613 0.288555
H42   H     H_    0.157237 0.844731 0.820935 0.252062
H43   H     H_    0.267029 0.951445 0.902640 0.254979
H44   H     H_    0.149415 0.924848 0.975989 0.196817
H45   H     H_    0.227347 0.905542 0.008339 0.255821
C93   C     C_3   0.828530 0.128053 0.048117 -0.399131
C94   C     C_3   0.790985 0.128484 0.122703 -0.807632
H46   H     H_    0.842751 0.155249 0.179032 0.252072
H47   H     H_    0.732977 0.048509 0.097306 0.254976
H48   H     H_    0.767858 0.180250 0.147315 0.288548
H49   H     H_    0.772677 0.094419 0.991609 0.255823
H50   H     H_    0.850619 0.075145 0.023995 0.196819
Cl5   Cl    Cl    0.187735 0.769395 0.042547 -0.674676
Cl6   Cl    Cl    0.812269 0.230591 0.957434 -0.674677
C95   C     C_3   0.847726 0.566180 0.755467 -0.367323
C96   C     C_3   0.847034 0.629402 0.723701 -0.790176
H51   H     H_    0.860230 0.703480 0.780543 0.232828
H52   H     H_    0.897985 0.645593 0.690019 0.261962
H53   H     H_    0.779720 0.584436 0.675207 0.301606
H54   H     H_    0.830930 0.491166 0.696653 0.262966
H55   H     H_    0.793192 0.548315 0.785204 0.210663
C97   C     C_3   0.152263 0.433835 0.244551 -0.367318
C98   C     C_3   0.152963 0.370607 0.276306 -0.790209
H56   H     H_    0.101997 0.354385 0.309968 0.261946
H57   H     H_    0.139791 0.296546 0.219462 0.232838
H58   H     H_    0.220270 0.415584 0.324815 0.301624
H59   H     H_    0.206811 0.451732 0.214834 0.210659
H60   H     H_    0.169036 0.508834 0.303367 0.262965
Cl7   Cl    Cl    0.609919 0.421032 0.524129 -0.533882
Cl8   Cl    Cl    0.390082 0.578971 0.475870 -0.533876
Cl9   Cl    Cl    0.368569 0.276205 0.451353 -0.543094
Cl10  Cl    Cl    0.631431 0.723796 0.548646 -0.543085

loop_
_geom_bond_atom_site_label_1
_geom_bond_atom_site_label_2
_ccdc_geom_bond_type
C19   H39   S    
C38   C40   A    
C63   C65   A    
C87   H1    S    
O25   Zn1   S    
C91   C92   S    
C11   H37   S    
C2    C37   S    
C76   C79   A    
C6    C9    S    
C95   H54   S    
C47   C49   A    
C4    C87   S    
C66   C70   A    
C24   O10   A    
C93   H50   S    
C66   C79   S    
C76   H30   S    
C70   H28   S    
O20   Zn4   S    
C13   C18   S    
C45   O15   A    
C31   H11   S    
C23   O9    A    
C35   C37   A    
C76   C78   A    
C5    C11   S    
C35   H13   S    
C8    C11   S    
C6    C12   S    
O15   Zn3   S    
C86   C88   S    
C57   C59   A    
O16   Zn4   S    
C92   H41   S    
O1    Zn5   S    
C58   C60   A    
C30   H10   S    
C65   C69   A    
C81   O23   A    
C27   C29   A    
C18   C20   S    
C69   C71   A    
O1    Zn1   S    
C62   C64   A    
C47   C60   S    
O26   Zn2   S    
C88   H2    S    
C56   C58   A    
C28   C30   A    
C94   H47   S    
C50   Cl2   S    
C50   C52   A    
C91   H44   S    
C31   C33   A    
O13   Zn1   S    
C45   C78   S    
C21   C33   A    
C97   H60   S    
C43   C47   A    
C75   C80   A    
C83   O21   A    
C16   Cl8   S    
C9    C11   S    
C98   H58   S    
C48   C50   A    
C62   C93   S    
C65   C80   S    
C55   C60   A    
O7    Zn3   S    
C41   C43   A    
C14   C17   S    
C23   O13   A    
C7    C12   S    
C42   C44   A    
C71   C95   S    
C26   C28   A    
C52   C54   A    
C95   H55   S    
C4    C90   S    
C85   C87   S    
C93   H49   S    
C22   C34   A    
C63   Cl5   S    
C42   H18   S    
C29   H9    S    
C85   Cl3   S    
C14   C20   S    
O9    Zn5   S    
C86   Cl4   S    
C6    H36   S    
C72   C74   A    
O17   Zn5   S    
C58   C81   S    
C20   H40   S    
C5    C7    S    
C13   C19   S    
C8    H34   S    
C6    C8    S    
C21   H5    S    
C28   C39   S    
C49   C51   A    
C18   C67   S    
C36   C39   A    
O2    Zn2   S    
C82   O24   A    
O23   Zn5   S    
C15   C20   S    
C51   C53   A    
C64   C66   A    
C2    O8    A    
C67   O5    A    
O2    Zn8   S    
C49   Cl1   S    
O8    Zn4   S    
C46   O4    A    
C75   C77   A    
C33   H3    S    
O1    Zn7   S    
C27   C40   S    
C94   H48   S    
C74   H26   S    
C98   H57   S    
C91   H45   S    
C77   C79   A    
C4    H32   S    
C16   C18   S    
O2    Zn4   S    
C97   H59   S    
C68   O6    A    
O1    Zn3   S    
C44   C48   A    
O19   Zn3   S    
C41   C53   A    
C82   O20   A    
C10   C12   S    
C1    C38   S    
C26   H8    S    
C84   O22   A    
O12   Zn8   S    
C25   H7    S    
C93   C94   S    
O4    Zn2   S    
C88   C90   S    
O11   Zn7   S    
O21   Zn7   S    
C55   C57   A    
C67   O17   A    
C2    O12   A    
C14   C16   S    
C3    C85   S    
C61   C91   S    
C84   C89   S    
C96   H52   S    
C36   C38   A    
C78   C80   A    
C4    C86   S    
C1    O7    A    
C48   C59   S    
C71   C73   A    
O5    Zn7   S    
O6    Zn8   S    
C7    C9    S    
C83   C90   S    
C21   C25   A    
C52   H22   S    
C17   C68   S    
C51   H21   S    
C41   H17   S    
C3    C88   S    
C22   H6    S    
O24   Zn6   S    
C61   C63   A    
C34   H4    S    
C7    H33   S    
O22   Zn8   S    
C86   C89   S    
C68   O18   A    
C46   C77   S    
C85   C90   S    
C9    C24   S    
C15   C17   S    
C12   H38   S    
C32   H12   S    
C10   C23   S    
C25   C27   A    
C55   H23   S    
C45   O3    A    
C73   H25   S    
C56   C59   A    
C3    C89   S    
C36   H14   S    
C61   C73   A    
C97   C98   S    
C96   H53   S    
C13   C15   S    
C35   C40   A    
O18   Zn6   S    
C5    C10   S    
C29   C31   A    
C75   H29   S    
C42   C54   A    
C30   C32   A    
C84   O26   A    
O14   Zn2   S    
C95   C96   S    
C46   O16   A    
C92   H42   S    
C24   O14   A    
C16   C19   S    
C81   O19   A    
C54   H16   S    
C14   Cl10  S    
C69   H27   S    
C17   C19   S    
C13   Cl9   S    
C15   Cl7   S    
O3    Zn1   S    
O2    Zn6   S    
C1    O11   A    
C94   H46   S    
C64   Cl6   S    
C53   H15   S    
C37   C39   A    
C83   O25   A    
C8    C10   S    
C98   H56   S    
C22   C26   A    
C5    H35   S    
C87   C89   S    
C56   H24   S    
C57   C82   S    
C62   C74   A    
C70   C72   A    
C43   H19   S    
C96   H51   S    
O10   Zn6   S    
C72   C97   S    
C3    H31   S    
C32   C34   A    
C92   H43   S    
C44   H20   S    
