data_mof_unit_64665.cif
_audit_creation_date              2012-12-10T19:35:34-0500
_audit_creation_method            fapswitch 2.2
_symmetry_space_group_name_H-M    P1
_symmetry_Int_Tables_number       1
_space_group_crystal_system       triclinic
_cell_length_a                    30.730376
_cell_length_b                    31.830629
_cell_length_c                    21.637361
_cell_angle_alpha                 89.382664
_cell_angle_beta                  135.240346
_cell_angle_gamma                 90.865812
_cell_volume                      14901.2720908

loop_
_atom_site_label
_atom_site_type_symbol
_atom_type_description
_atom_site_fract_x
_atom_site_fract_y
_atom_site_fract_z
_atom_type_partial_charge
C1    C     C_R   0.499838 0.999834 0.379861 0.881917
C2    C     C_R   0.999838 0.499835 0.379862 0.881908
C3    C     C_3   0.468762 0.735310 0.517571 -0.164085
C4    C     C_3   0.470747 0.263172 0.521763 -0.163846
C5    C     C_3   0.967075 0.235304 0.514811 -0.164005
C6    C     C_3   0.975798 0.763194 0.529557 -0.163794
C7    C     C_3   0.499200 0.708946 0.497990 0.205860
C8    C     C_3   0.500733 0.291055 0.501870 0.206876
C9    C     C_3   0.999200 0.208946 0.497989 0.205866
C10   C     C_3   0.000732 0.791055 0.501870 0.206873
C11   C     C_3   0.527229 0.763737 0.577838 -0.163997
C12   C     C_3   0.529485 0.235811 0.581810 -0.161822
C13   C     C_3   0.025468 0.263712 0.576994 -0.163950
C14   C     C_3   0.034351 0.735886 0.583692 -0.161877
C15   C     C_3   0.557668 0.736588 0.558259 -0.163576
C16   C     C_3   0.559470 0.264496 0.561914 -0.161964
C17   C     C_3   0.057593 0.236568 0.560174 -0.163590
C18   C     C_3   0.059283 0.764549 0.556000 -0.162080
C19   C     C_1   0.498850 0.836589 0.498317 -0.079386
C20   C     C_1   0.501190 0.163411 0.501613 -0.080592
C21   C     C_1   0.998850 0.336589 0.498317 -0.079388
C22   C     C_1   0.001190 0.663411 0.501611 -0.080580
C23   C     C_1   0.499482 0.663434 0.498282 -0.079419
C24   C     C_1   0.500429 0.336567 0.501588 -0.080584
C25   C     C_1   0.999481 0.163434 0.498282 -0.079417
C26   C     C_1   0.000428 0.836567 0.501588 -0.080563
C27   C     C_R   0.459846 0.023259 0.240017 0.133299
C28   C     C_R   0.959915 0.523312 0.240090 0.133204
C29   C     C_R   0.499728 0.998518 0.314281 -0.098628
C30   C     C_R   0.999726 0.498519 0.314282 -0.098527
C31   C     C_R   0.541118 0.972559 0.324308 -0.215348
C32   C     C_R   0.041041 0.472505 0.324236 -0.215365
C33   C     C_R   0.540866 0.972307 0.259307 -0.220776
C34   C     C_R   0.040788 0.472253 0.259234 -0.220722
C35   C     C_R   0.499727 0.918711 0.499707 0.904837
C36   C     C_R   0.500315 0.081288 0.500276 0.908305
C37   C     C_R   0.999727 0.418711 0.499707 0.904827
C38   C     C_R   0.000315 0.581288 0.500276 0.908298
C39   C     C_R   0.500621 0.999011 0.186149 -0.097997
C40   C     C_R   0.000620 0.499010 0.186151 -0.098095
C41   C     C_R   0.461183 0.024141 0.179474 0.132856
C42   C     C_R   0.961255 0.524193 0.179550 0.132895
C43   C     C_3   0.411953 0.056295 0.124503 -0.499791
C44   C     C_3   0.912124 0.556417 0.124680 -0.499619
C45   C     C_3   0.410875 0.055637 0.194654 -0.486291
C46   C     C_3   0.911045 0.555759 0.194829 -0.486415
C47   C     C_R   0.471016 0.031646 0.688176 0.107836
C48   C     C_R   0.971011 0.531644 0.688172 0.107921
C49   C     C_R   0.502197 0.000471 0.688086 -0.083551
C50   C     C_R   0.002197 0.500472 0.688086 -0.083579
C51   C     C_R   0.541221 0.973015 0.759728 -0.215385
C52   C     C_R   0.041225 0.473018 0.759732 -0.215403
C53   C     C_R   0.541192 0.973002 0.824015 -0.223025
C54   C     C_R   0.041195 0.473005 0.824018 -0.223030
C55   C     C_R   0.503614 0.001382 0.817415 -0.093919
C56   C     C_R   0.003613 0.501382 0.817414 -0.093933
C57   C     C_R   0.472329 0.032415 0.752944 0.146125
C58   C     C_R   0.972324 0.532413 0.752939 0.146159
C59   C     C_R   0.500336 0.999608 0.620432 0.876946
C60   C     C_R   0.000336 0.499608 0.620432 0.876952
C61   C     C_3   0.406139 0.044954 0.690230 -0.504770
C62   C     C_3   0.906133 0.544947 0.690223 -0.504787
C63   C     C_3   0.404678 0.043952 0.618625 -0.472693
C64   C     C_3   0.904671 0.543946 0.618619 -0.472717
C65   C     C_R   0.380014 0.500167 0.379842 0.881886
C66   C     C_R   0.880013 0.000167 0.379842 0.881890
C67   C     C_R   0.499961 0.581311 0.499657 0.904734
C68   C     C_R   0.499943 0.418690 0.500231 0.908207
C69   C     C_R   0.999961 0.081311 0.499657 0.904733
C70   C     C_R   0.999943 0.918690 0.500231 0.908214
C71   C     C_R   0.620039 0.500380 0.620323 0.876587
C72   C     C_R   0.120039 0.000380 0.620323 0.876587
C73   C     C_R   0.620129 0.000234 0.120179 0.888197
C74   C     C_R   0.120129 0.500234 0.120179 0.888205
C75   C     C_R   0.500016 0.999764 0.120114 0.888321
C76   C     C_R   0.000017 0.499764 0.120117 0.888324
C77   C     C_R   0.379667 0.999740 0.879527 0.880504
C78   C     C_R   0.879667 0.499740 0.879527 0.880513
C79   C     C_R   0.500026 0.000262 0.879640 0.880561
C80   C     C_R   0.000026 0.500262 0.879640 0.880567
C81   C     C_R   0.280177 0.476694 0.240095 0.133434
C82   C     C_R   0.780177 0.976698 0.240089 0.133487
C83   C     C_3   0.470803 0.736277 0.418146 -0.162452
C84   C     C_3   0.472415 0.264159 0.421952 -0.165585
C85   C     C_3   0.972563 0.236302 0.418990 -0.162497
C86   C     C_3   0.967550 0.764084 0.420069 -0.165409
C87   C     C_R   0.314555 0.501481 0.314287 -0.098597
C88   C     C_R   0.814555 0.001481 0.314287 -0.098597
C89   C     C_R   0.283202 0.527481 0.324275 -0.215263
C90   C     C_R   0.783202 0.027477 0.324282 -0.215265
C91   C     C_R   0.718460 0.027725 0.259303 -0.220727
C92   C     C_R   0.218461 0.527730 0.259297 -0.220713
C93   C     C_R   0.685550 0.000982 0.186208 -0.098094
C94   C     C_R   0.185550 0.500982 0.186208 -0.098102
C95   C     C_R   0.718305 0.975814 0.179572 0.133026
C96   C     C_R   0.218305 0.475809 0.179578 0.133008
C97   C     C_3   0.712561 0.943617 0.124659 -0.499679
C98   C     C_3   0.212561 0.443607 0.124674 -0.499644
C99   C     C_3   0.283783 0.444267 0.194800 -0.486782
C100  C     C_3   0.783782 0.944278 0.194785 -0.486823
C101  C     C_R   0.717151 0.468357 0.688062 0.107943
C102  C     C_R   0.217151 0.968358 0.688060 0.107971
C103  C     C_R   0.685864 0.499515 0.687986 -0.083730
C104  C     C_R   0.185864 0.999515 0.687986 -0.083719
C105  C     C_R   0.718512 0.526981 0.759620 -0.215309
C106  C     C_R   0.218512 0.026979 0.759622 -0.215302
C107  C     C_3   0.529276 0.764716 0.478425 -0.162934
C108  C     C_3   0.531148 0.236808 0.481988 -0.163792
C109  C     C_3   0.030962 0.264721 0.481184 -0.163013
C110  C     C_3   0.026096 0.736787 0.474192 -0.163738
C111  C     C_R   0.282838 0.027008 0.823864 -0.222886
C112  C     C_R   0.782838 0.527009 0.823861 -0.222859
C113  C     C_R   0.313824 0.998632 0.817261 -0.094174
C114  C     C_R   0.813824 0.498632 0.817261 -0.094181
C115  C     C_R   0.280615 0.967599 0.752790 0.146144
C116  C     C_R   0.780614 0.467599 0.752792 0.146121
C117  C     C_3   0.284039 0.955058 0.690019 -0.505008
C118  C     C_3   0.784038 0.455055 0.690022 -0.504990
C119  C     C_3   0.713897 0.456043 0.618473 -0.472698
C120  C     C_3   0.213897 0.956046 0.618470 -0.472728
C121  C     C_1   0.499116 0.874153 0.498844 -0.186452
C122  C     C_1   0.500942 0.125847 0.501123 -0.189386
C123  C     C_1   0.999116 0.374153 0.498844 -0.186455
C124  C     C_1   0.000942 0.625847 0.501122 -0.189386
C125  C     C_1   0.499728 0.625870 0.498799 -0.186334
C126  C     C_1   0.500176 0.374131 0.501089 -0.189231
C127  C     C_1   0.999728 0.125870 0.498799 -0.186332
C128  C     C_1   0.000176 0.874131 0.501089 -0.189221
C129  C     C_3   0.440362 0.763442 0.437731 -0.163122
C130  C     C_3   0.442433 0.235489 0.441843 -0.165816
C131  C     C_3   0.940436 0.263462 0.435815 -0.163079
C132  C     C_3   0.942620 0.735435 0.447754 -0.165725
C133  C     C_3   0.498837 0.791078 0.498008 0.206020
C134  C     C_3   0.501165 0.208923 0.501882 0.206730
C135  C     C_3   0.998836 0.291077 0.498007 0.206007
C136  C     C_3   0.001165 0.708923 0.501880 0.206685
H1    H     H_    0.554085 0.777549 0.462370 0.133488
H2    H     H_    0.555916 0.225230 0.465679 0.132976
H3    H     H_    0.057154 0.277559 0.467393 0.133492
H4    H     H_    0.046723 0.725191 0.451491 0.132731
H5    H     H_    0.367174 0.042761 0.170475 0.212141
H6    H     H_    0.428194 0.085256 0.233033 0.198688
H7    H     H_    0.867306 0.542945 0.170613 0.212170
H8    H     H_    0.928455 0.585355 0.233301 0.198642
H9    H     H_    0.568876 0.950307 0.763320 0.154082
H10   H     H_    0.068883 0.450312 0.763327 0.154090
H11   H     H_    0.400927 0.077058 0.703866 0.208971
H12   H     H_    0.376471 0.020375 0.682486 0.191649
H13   H     H_    0.900915 0.577051 0.703854 0.208982
H14   H     H_    0.876468 0.520366 0.682483 0.191644
H15   H     H_    0.398539 0.075477 0.590841 0.200659
H16   H     H_    0.374194 0.018716 0.569349 0.216759
H17   H     H_    0.898528 0.575470 0.590830 0.200650
H18   H     H_    0.874191 0.518707 0.569346 0.216751
H19   H     H_    0.308484 0.547582 0.381226 0.160052
H20   H     H_    0.808484 0.047574 0.381237 0.160042
H21   H     H_    0.694385 0.047922 0.266796 0.158249
H22   H     H_    0.194386 0.547931 0.266784 0.158256
H23   H     H_    0.690857 0.956368 0.060042 0.198026
H24   H     H_    0.692537 0.913542 0.122243 0.210706
H25   H     H_    0.190858 0.456353 0.060054 0.198021
H26   H     H_    0.192538 0.413533 0.122266 0.210712
H27   H     H_    0.303291 0.457101 0.170572 0.212064
H28   H     H_    0.304854 0.414666 0.233255 0.198649
H29   H     H_    0.803291 0.957117 0.170560 0.212073
H30   H     H_    0.804853 0.914674 0.233232 0.198584
H31   H     H_    0.694464 0.549686 0.763243 0.154171
H32   H     H_    0.194464 0.049684 0.763247 0.154159
H33   H     H_    0.447681 0.724243 0.352676 0.135215
H34   H     H_    0.448997 0.276552 0.356396 0.132937
H35   H     H_    0.950885 0.224289 0.354212 0.135230
H36   H     H_    0.940139 0.776413 0.352968 0.132743
H37   H     H_    0.308160 0.049663 0.876862 0.155449
H38   H     H_    0.808160 0.549666 0.876857 0.155445
H39   H     H_    0.302898 0.922958 0.703655 0.208877
H40   H     H_    0.305923 0.979641 0.682209 0.191734
H41   H     H_    0.802898 0.422954 0.703661 0.208894
H42   H     H_    0.805923 0.479636 0.682211 0.191727
H43   H     H_    0.692267 0.424513 0.590731 0.200463
H44   H     H_    0.695069 0.481272 0.569164 0.216824
H45   H     H_    0.192267 0.924517 0.590725 0.200396
H46   H     H_    0.195069 0.981276 0.569163 0.216838
H47   H     H_    0.605770 0.724809 0.607672 0.132662
H48   H     H_    0.607455 0.277168 0.611152 0.133148
H49   H     H_    0.105634 0.224774 0.611158 0.132632
H50   H     H_    0.107117 0.777263 0.600395 0.132973
H51   H     H_    0.550353 0.775762 0.643316 0.132588
H52   H     H_    0.552895 0.223410 0.647357 0.134169
H53   H     H_    0.047148 0.275717 0.641778 0.132565
H54   H     H_    0.061755 0.723549 0.650785 0.134362
H55   H     H_    0.443953 0.722480 0.533627 0.133846
H56   H     H_    0.445973 0.274751 0.538062 0.134111
H57   H     H_    0.940882 0.222469 0.528604 0.133810
H58   H     H_    0.955166 0.774791 0.552248 0.134308
H59   H     H_    0.392264 0.775225 0.388324 0.135130
H60   H     H_    0.394444 0.222825 0.392597 0.133522
H61   H     H_    0.892398 0.275261 0.384837 0.135157
H62   H     H_    0.894781 0.722729 0.403351 0.133539
H63   H     H_    0.572840 0.952493 0.381310 0.159989
H64   H     H_    0.072706 0.452398 0.381182 0.159926
H65   H     H_    0.572472 0.952140 0.266834 0.158170
H66   H     H_    0.072337 0.452044 0.266705 0.158216
H67   H     H_    0.369063 0.043506 0.059922 0.198137
H68   H     H_    0.429495 0.086384 0.122009 0.210653
H69   H     H_    0.869196 0.543689 0.060059 0.198121
H70   H     H_    0.929758 0.586482 0.122279 0.210627
O1    O     O_R   0.448310 0.000000 0.356640 -0.622018
O2    O     O_R   0.948310 0.500000 0.356640 -0.622005
O3    O     O_R   0.500000 0.561620 0.551710 -0.621273
O4    O     O_R   0.500000 0.438380 0.551710 -0.614573
O5    O     O_R   1.000000 0.061620 0.551710 -0.621273
O6    O     O_R   1.000000 0.938380 0.551710 -0.614590
O7    O     O_R   0.591480 0.500000 0.539730 -0.624791
O8    O     O_R   0.091480 0.000000 0.539730 -0.624791
O9    O     O_R   0.591580 0.500000 0.643270 -0.622531
O10   O     O_R   0.091580 0.000000 0.643270 -0.622531
O11   O     O_R   0.591630 0.965220 0.091680 -0.626102
O12   O     O_R   0.591630 0.034780 0.091680 -0.623196
O13   O     O_R   0.091630 0.465220 0.091680 -0.626106
O14   O     O_R   0.091630 0.534780 0.091680 -0.623198
O15   O     O_R   0.500040 0.965230 0.091630 -0.623177
O16   O     O_R   0.500040 0.034770 0.091630 -0.626113
O17   O     O_R   0.000040 0.465230 0.091630 -0.623193
O18   O     O_R   0.000040 0.534770 0.091630 -0.626121
O19   O     O_R   0.408450 0.965250 0.908360 -0.619310
O20   O     O_R   0.408450 0.034750 0.908360 -0.625967
O21   O     O_R   0.908450 0.465250 0.908360 -0.619310
O22   O     O_R   0.908450 0.534750 0.908360 -0.625969
O23   O     O_R   0.500040 0.965230 0.908410 -0.626002
O24   O     O_R   0.500040 0.034770 0.908410 -0.619418
O25   O     O_R   0.000040 0.465230 0.908410 -0.626002
O26   O     O_R   0.000040 0.534770 0.908410 -0.619410
O27   O     O_R   0.551720 0.000000 0.460130 -0.624317
O28   O     O_R   0.051720 0.500000 0.460130 -0.624297
O29   O     O_R   0.448310 0.938390 0.448250 -0.616272
O30   O     O_R   0.448310 0.061610 0.448250 -0.620158
O31   O     O_R   0.948310 0.438390 0.448250 -0.616268
O32   O     O_R   0.948310 0.561610 0.448250 -0.620152
O33   O     O_R   0.551720 0.938410 0.551740 -0.621200
O34   O     O_R   0.551720 0.061590 0.551740 -0.614492
O35   O     O_R   0.051720 0.438410 0.551740 -0.621202
O36   O     O_R   0.051720 0.561590 0.551740 -0.614499
O37   O     O_R   0.448310 0.000000 0.539870 -0.624915
O38   O     O_R   0.948310 0.500000 0.539870 -0.624922
O39   O     O_R   0.551720 0.000000 0.643360 -0.622740
O40   O     O_R   0.051720 0.500000 0.643360 -0.622744
O41   O     O_R   0.408300 0.500000 0.356580 -0.622127
O42   O     O_R   0.908300 0.000000 0.356580 -0.622125
O43   O     O_R   0.408400 0.500000 0.460120 -0.624355
O44   O     O_R   0.908400 0.000000 0.460120 -0.624354
O45   O     O_R   0.499900 0.561630 0.448170 -0.616254
O46   O     O_R   0.499900 0.438370 0.448170 -0.620112
O47   O     O_R   0.999900 0.061630 0.448170 -0.616255
O48   O     O_R   0.999900 0.938370 0.448170 -0.620090
Zn1   Zn    Zn3+2 0.430960 0.000000 0.430900 0.948565
Zn2   Zn    Zn3+2 0.930960 0.500000 0.430900 0.948583
Zn3   Zn    Zn3+2 0.569060 0.000000 0.569100 0.954515
Zn4   Zn    Zn3+2 0.069060 0.500000 0.569100 0.954519
Zn5   Zn    Zn3+2 0.499870 0.500000 0.430790 0.948671
Zn6   Zn    Zn3+2 0.999870 0.000000 0.430790 0.948699
Zn7   Zn    Zn3+2 0.500010 0.500000 0.569060 0.954551
Zn8   Zn    Zn3+2 0.000010 0.000000 0.569060 0.954536
Zn9   Zn    Zn3+2 0.500030 0.953570 0.000010 0.946579
Zn10  Zn    Zn3+2 0.500030 0.046430 0.000010 0.946514
Zn11  Zn    Zn3+2 0.000030 0.453570 0.000010 0.946558
Zn12  Zn    Zn3+2 0.000030 0.546430 0.000010 0.946503
H71   H     H_    0.568881 0.950350 0.877024 0.155454
H72   H     H_    0.068887 0.450355 0.877031 0.155452

loop_
_geom_bond_atom_site_label_1
_geom_bond_atom_site_label_2
_ccdc_geom_bond_type
C58   C62   S    
C112  H38   S    
C5    C13   S    
C66   O44   A    
C77   O19   A    
O11   Zn9   S    
C62   H13   S    
C65   O43   A    
C27   C29   A    
O12   Zn10  S    
C74   C94   S    
O31   Zn2   S    
C110  C136  S    
C73   C93   S    
C4    C8    S    
C68   O4    A    
C70   O48   A    
C94   C96   A    
C31   H63   S    
C90   C91   A    
C3    C129  S    
C9    C25   S    
C110  H4    S    
C39   C41   A    
C66   O42   A    
C76   O18   A    
C60   O40   A    
C28   C46   S    
C85   H35   S    
C68   C126  S    
C119  H43   S    
C11   H51   S    
C97   H23   S    
C100  H30   S    
C131  H61   S    
C61   H12   S    
C34   H66   S    
C86   C110  S    
C83   C129  S    
C3    C7    S    
C11   C133  S    
C66   C88   S    
O17   Zn11  S    
C71   O9    A    
C89   H19   S    
C109  C135  S    
C51   H9    S    
C12   H52   S    
C64   H18   S    
C57   C61   S    
C13   H53   S    
C59   O37   A    
C8    C16   S    
C15   C107  S    
C38   O32   A    
C61   C63   S    
C4    H56   S    
C118  C119  S    
O44   Zn8   S    
C92   H22   S    
C62   C64   S    
C102  C115  A    
C48   C64   S    
C9    C85   S    
C37   C123  S    
C33   C39   A    
C11   C15   S    
C2    O28   A    
C79   O23   A    
C12   C16   S    
C75   O16   A    
C17   H49   S    
C28   C30   A    
C49   C51   A    
C96   C98   S    
C74   O13   A    
O9    Zn7   S    
C50   C52   A    
C31   C33   A    
C69   O5    A    
C39   C75   S    
O34   Zn3   S    
C4    C12   S    
O39   Zn3   S    
C120  H45   S    
O36   Zn4   S    
C20   C122  T    
C36   O34   A    
C7    C23   S    
C4    C130  S    
C49   C59   S    
C23   C125  T    
O45   Zn5   S    
C27   C45   S    
O4    Zn7   S    
C40   C42   A    
C101  C116  A    
C65   O41   A    
C53   C55   A    
O14   Zn12  S    
C77   O20   A    
C101  C103  A    
O42   Zn6   S    
C104  C106  A    
O7    Zn5   S    
C24   C126  T    
C41   C43   S    
C73   O11   A    
O8    Zn6   S    
C78   C114  S    
C42   C44   S    
C80   O26   A    
C77   C113  S    
C112  C114  A    
C56   C58   A    
C129  H59   S    
C44   C46   S    
C65   C87   S    
C85   C109  S    
C54   C56   A    
C106  C111  A    
O23   Zn9   S    
C76   O17   A    
C78   O22   A    
C38   O36   A    
O24   Zn10  S    
C60   O38   A    
C37   O35   A    
O35   Zn4   S    
C98   H26   S    
C69   O47   A    
C22   C124  T    
C101  C119  S    
C97   H24   S    
C70   O6    A    
C35   C121  S    
C35   O33   A    
C6    C132  S    
C116  C118  S    
C13   C135  S    
C117  C120  S    
C1    O27   A    
C81   C96   A    
O21   Zn11  S    
C2    C30   S    
O27   Zn3   S    
C7    C15   S    
C72   C104  S    
C115  C117  S    
C71   O7    A    
C84   H34   S    
C64   H17   S    
C18   H50   S    
C54   H72   S    
C40   C76   S    
C22   C136  S    
C100  H29   S    
C51   C53   A    
C106  H32   S    
C72   O8    A    
C107  H1    S    
C36   C122  S    
C79   O24   A    
C5    C9    S    
O40   Zn4   S    
C30   C32   A    
C3    H55   S    
C47   C57   A    
C55   C79   S    
C27   C41   A    
C68   O46   A    
C37   O31   A    
O48   Zn6   S    
C132  C136  S    
C69   C127  S    
O6    Zn8   S    
C46   H8    S    
C92   C94   A    
C10   C26   S    
C52   C54   A    
C111  C113  A    
C55   C57   A    
C26   C128  T    
C89   C92   A    
C102  C104  A    
C48   C50   A    
C43   C45   S    
C63   H15   S    
C81   C87   A    
O22   Zn12  S    
C45   H5    S    
C99   H27   S    
C118  H42   S    
C117  H40   S    
C9    C17   S    
C98   H25   S    
C84   C130  S    
C105  C112  A    
C111  H37   S    
C130  H60   S    
O25   Zn11  S    
C2    O2    A    
C43   H67   S    
C45   H6    S    
C86   H36   S    
C103  C105  A    
C129  C133  S    
C35   O29   A    
C119  H44   S    
C1    C29   S    
C80   O25   A    
C90   H20   S    
O20   Zn10  S    
C6    H58   S    
C97   C100  S    
C102  C120  S    
C5    H57   S    
C70   C128  S    
C78   O21   A    
O28   Zn4   S    
C114  C116  A    
C71   C103  S    
C95   C97   S    
C19   C121  T    
O5    Zn8   S    
C52   H10   S    
C82   C95   A    
C62   H14   S    
C72   O10   A    
C91   C93   A    
C8    C84   S    
O37   Zn1   S    
C82   C100  S    
C14   C18   S    
O33   Zn3   S    
C18   C110  S    
C88   C90   A    
O15   Zn9   S    
C108  C134  S    
C17   C109  S    
C6    C10   S    
O41   Zn5   S    
C48   C58   A    
C16   H48   S    
C10   C86   S    
O3    Zn7   S    
C46   H7    S    
O1    Zn1   S    
C47   C49   A    
C19   C133  S    
C81   C99   S    
C44   H70   S    
C117  H39   S    
C131  C135  S    
C56   C80   S    
C13   C17   S    
C109  H3    S    
C50   C60   S    
O13   Zn11  S    
C67   C125  S    
C25   C127  T    
O10   Zn8   S    
C6    C14   S    
C32   H64   S    
C53   H71   S    
C107  C133  S    
C85   C131  S    
C1    O1    A    
C47   C63   S    
C59   O39   A    
O47   Zn6   S    
C86   C132  S    
C7    C83   S    
C93   C95   A    
C113  C115  A    
C14   C136  S    
C10   C18   S    
C82   C88   A    
C83   H33   S    
C33   H65   S    
C44   H69   S    
C8    C24   S    
C83   C107  S    
C73   O12   A    
C67   O3    A    
O30   Zn1   S    
C61   H11   S    
O32   Zn2   S    
C130  C134  S    
C15   H47   S    
C63   H16   S    
C91   H21   S    
C3    C11   S    
C16   C108  S    
O29   Zn1   S    
C99   H28   S    
C14   H54   S    
C118  H41   S    
C105  H31   S    
C5    C131  S    
C36   O30   A    
C75   O15   A    
C29   C31   A    
C98   C99   S    
O38   Zn2   S    
C74   O14   A    
C43   H68   S    
O26   Zn12  S    
C87   C89   A    
O19   Zn9   S    
C34   C40   A    
O18   Zn12  S    
C12   C134  S    
C21   C123  T    
O2    Zn2   S    
C20   C134  S    
C132  H62   S    
O43   Zn7   S    
C84   C108  S    
C120  H46   S    
C21   C135  S    
C38   C124  S    
O46   Zn5   S    
C32   C34   A    
O16   Zn10  S    
C108  H2    S    
C28   C42   A    
C67   O45   A    
