data_mof_unit_36962.cif
_audit_creation_date              2013-03-05T16:30:29-0500
_audit_creation_method            fapswitch 2.2
_symmetry_space_group_name_H-M    P1
_symmetry_Int_Tables_number       1
_space_group_crystal_system       triclinic
_cell_length_a                    8.59047
_cell_length_b                    14.902412
_cell_length_c                    14.165395
_cell_angle_alpha                 89.297281
_cell_angle_beta                  98.595452
_cell_angle_gamma                 90.094875
_cell_volume                      1792.93283258

loop_
_atom_site_label
_atom_site_type_symbol
_atom_site_description
_atom_site_fract_x
_atom_site_fract_y
_atom_site_fract_z
_atom_type_partial_charge
O1    O     O_R   0.500010 0.369070 0.579480 -0.569376
O2    O     O_R   0.499990 0.630930 0.420520 -0.568164
O3    O     O_R   0.500010 0.369060 0.420520 -0.629981
O4    O     O_R   0.499990 0.630940 0.579480 -0.631297
C1    C     C_R   0.494225 0.327509 0.500186 0.934913
C2    C     C_R   0.494085 0.672498 0.498746 0.928870
O5    O     O_R   0.271750 0.500000 0.560890 -0.625181
O6    O     O_R   0.728250 0.500000 0.439110 -0.630927
O7    O     O_R   0.271750 0.499990 0.401930 -0.628608
O8    O     O_R   0.728250 0.500010 0.598070 -0.636116
C3    C     C_R   0.201010 0.500074 0.475083 1.015856
C4    C     C_R   0.799003 0.500013 0.524918 0.964672
Zn1   Zn    Zn3+2 0.500000 0.500010 0.606140 1.000519
Zn2   Zn    Zn3+2 0.500000 0.499990 0.393860 1.004735
C5    C     C_2   0.036034 0.500326 0.461606 -0.308988
C6    C     C_2   0.964016 0.499960 0.538402 -0.322978
H1    H     H_    0.974331 0.500871 0.388726 0.168924
H2    H     H_    0.025768 0.499531 0.611285 0.173406
C7    C     C_R   0.351123 0.097833 0.557770 0.242519
C8    C     C_R   0.352473 0.902291 0.414400 0.241154
C9    C     C_R   0.376124 0.190598 0.562094 0.226914
C10   C     C_R   0.377215 0.809490 0.414828 0.227743
C11   C     C_R   0.469435 0.231666 0.499520 -0.198411
C12   C     C_R   0.469113 0.768352 0.494842 -0.195987
C13   C     C_R   0.533382 0.181414 0.432223 -0.194953
C14   C     C_R   0.531613 0.818574 0.574063 -0.203210
C15   C     C_R   0.509671 0.090072 0.428355 -0.120932
C16   C     C_R   0.507957 0.909929 0.573470 -0.121218
C17   C     C_R   0.420867 0.048425 0.491193 0.000221
C18   C     C_R   0.420759 0.951645 0.494000 0.003518
C19   C     C_R   0.364685 0.524544 0.092406 -0.242733
C20   C     C_R   0.632023 0.529398 0.906629 -0.245620
H3    H     H_    0.258012 0.544912 0.046510 0.146290
H4    H     H_    0.736130 0.553574 0.951780 0.148352
C21   C     C_R   0.367550 0.524403 0.192034 0.095335
C22   C     C_R   0.629359 0.529155 0.807031 0.029826
N1    N     N_R   0.500000 0.499980 0.252470 -0.102250
N2    N     N_R   0.500000 0.500020 0.747530 -0.102364
C23   C     C_R   0.632242 0.475588 0.216405 0.038412
C24   C     C_R   0.370601 0.470982 0.784404 0.094628
H5    H     H_    0.736540 0.455431 0.264340 0.130187
H6    H     H_    0.268822 0.447246 0.737075 0.160413
C25   C     C_R   0.634934 0.475846 0.117324 -0.242917
C26   C     C_R   0.367751 0.471048 0.883474 -0.245011
H7    H     H_    0.741492 0.455500 0.091142 0.145688
H8    H     H_    0.263653 0.446880 0.910390 0.149783
C27   C     C_R   0.499803 0.500303 0.053205 0.131322
C28   C     C_R   0.499810 0.500321 0.946700 0.130269
N3    N     N_R   0.252951 0.054267 0.618501 0.220465
O9    O     O_R   0.151310 0.993737 0.584187 -0.337640
O10   O     O_R   0.266452 0.073524 0.708669 -0.301885
N4    N     N_R   0.255934 0.945948 0.335256 0.222233
O11   O     O_R   0.153885 0.006581 0.350300 -0.331816
O12   O     O_R   0.271571 0.926797 0.247827 -0.297839
N5    N     N_R   0.297287 0.243438 0.624304 0.238613
O13   O     O_R   0.360069 0.253949 0.712891 -0.331693
O14   O     O_R   0.170987 0.288079 0.590048 -0.402554
N6    N     N_R   0.299327 0.756697 0.337991 0.240009
O15   O     O_R   0.174022 0.711105 0.349181 -0.393780
O16   O     O_R   0.363241 0.746263 0.261189 -0.326270
H9    H     H_    0.604217 0.212704 0.383771 0.187657
H10   H     H_    0.601317 0.787261 0.635766 0.184676
H11   H     H_    0.564691 0.051120 0.378250 0.186326
H12   H     H_    0.561863 0.948841 0.633859 0.183582
H13   H     H_    0.263270 0.544170 0.220884 0.159901
H14   H     H_    0.731251 0.552581 0.777392 0.132767

loop_
_geom_bond_atom_site_label_1
_geom_bond_atom_site_label_2
_geom_bond_distance
_ccdc_geom_bond_type
C10   N6    1.432796 S    
O5    C3    1.275096 A    
O7    Zn2   1.981088 S    
C19   H3    1.082836 S    
C17   C18   1.442326 S    
C15   C17   1.395473 A    
C20   C28   1.408883 A    
C7    N3    1.440188 S    
C14   C16   1.376563 A    
C27   C28   1.508695 S    
C1    C11   1.443663 S    
C24   C26   1.407233 A    
O6    C4    1.275164 A    
C2    C12   1.444000 S    
N5    O13   1.300907 A    
C16   C18   1.395398 A    
C3    C5    1.401468 S    
C14   H10   1.083861 S    
C9    N5    1.432657 S    
N1    C23   1.364947 A    
C19   C27   1.408941 A    
C8    C18   1.406304 A    
Zn2   N1    2.002848 S    
N2    C24   1.364612 A    
C25   H7    1.082853 S    
C12   C14   1.395311 A    
O7    C3    1.277243 A    
Zn1   N2    2.002848 S    
O2    C2    1.283725 A    
O3    Zn2   1.982827 S    
O8    C4    1.277281 A    
O1    C1    1.283739 A    
C20   C22   1.407659 A    
C10   C12   1.414509 A    
C22   N2    1.364262 A    
C7    C9    1.399343 A    
C8    C10   1.399345 A    
C19   C21   1.407781 A    
N5    O14   1.300886 A    
C9    C11   1.414284 A    
C23   C25   1.407118 A    
C4    C6    1.401775 S    
O2    Zn2   1.992075 S    
C22   H14   1.081451 S    
O4    C2    1.288171 A    
C13   C15   1.376585 A    
C21   H13   1.081451 S    
N6    O16   1.300847 A    
C5    C6    1.329361 D    
C7    C17   1.406377 A    
C16   H12   1.084134 S    
O5    Zn1   1.969726 S    
C11   C13   1.395263 A    
O1    Zn1   1.992075 S    
N4    O11   1.301375 A    
C23   H5    1.080778 S    
C6    H2    1.087885 S    
N3    O9    1.301385 A    
N3    O10   1.300706 A    
O4    Zn1   1.982827 S    
C5    H1    1.087684 S    
C8    N4    1.440106 S    
C15   H11   1.084153 S    
C13   H9    1.083892 S    
O6    Zn2   1.969724 S    
C21   N1    1.364748 A    
N6    O15   1.300526 A    
C25   C27   1.408359 A    
C26   H8    1.082715 S    
C26   C28   1.408428 A    
N4    O12   1.300700 A    
C24   H6    1.081041 S    
O3    C1    1.288001 A    
O8    Zn1   1.981086 S    
C20   H4    1.082731 S    
