data_mof_unit_37224.cif
_audit_creation_date              2012-12-10T16:58:56-0500
_audit_creation_method            fapswitch 2.2
_symmetry_space_group_name_H-M    P1
_symmetry_Int_Tables_number       1
_space_group_crystal_system       triclinic
_cell_length_a                    9.722009
_cell_length_b                    10.901164
_cell_length_c                    17.189239
_cell_angle_alpha                 90.920363
_cell_angle_beta                  85.255372
_cell_angle_gamma                 90.117749
_cell_volume                      1815.2591078

loop_
_atom_site_label
_atom_site_type_symbol
_atom_type_description
_atom_site_fract_x
_atom_site_fract_y
_atom_site_fract_z
_atom_type_partial_charge
C1    C     C_R   0.501342 0.734806 0.495696 0.816499
C2    C     C_R   0.431034 0.423330 0.783467 0.429934
C3    C     C_R   0.421680 0.454750 0.144590 -0.045261
C4    C     C_R   0.415543 0.454619 0.225503 -0.183933
C5    C     C_R   0.650919 0.530785 0.221061 -0.190097
C6    C     C_R   0.656226 0.532184 0.139721 -0.109260
C7    C     C_R   0.540057 0.497610 0.101701 0.210815
C8    C     C_2   0.453932 0.573217 0.980061 0.441820
C9    C     C_2   0.542520 0.504147 0.016808 -0.384190
C10   C     C_R   0.529291 0.494370 0.264393 -0.037179
C11   C     C_2   0.601958 0.070839 0.462407 -0.162898
C12   C     C_R   0.481166 0.502547 0.649700 0.886428
C13   C     C_2   0.499602 0.133190 0.501974 -0.308696
C14   C     C_2   0.617288 0.936327 0.467087 0.186551
C15   C     C_2   0.502663 0.867451 0.485342 -0.375077
C16   C     C_2   0.069046 0.572293 0.545436 0.249913
C17   C     C_2   0.913732 0.561922 0.550092 -0.069084
C18   C     C_R   0.499719 0.265444 0.500201 0.918251
C19   C     C_R   0.518772 0.498402 0.349772 0.784353
C20   C     C_R   0.469127 0.521692 0.733921 -0.213938
C21   C     C_R   0.496544 0.639862 0.764926 0.058815
C22   C     C_R   0.489481 0.655631 0.846364 -0.055257
C23   C     C_R   0.453285 0.557829 0.895312 -0.054945
C24   C     C_R   0.423225 0.442687 0.863970 -0.238638
Cu1   Cu    Cu3+1 0.361370 0.499980 0.499980 0.975258
Cu2   Cu    Cu3+1 0.638630 0.500020 0.500020 0.950490
H1    H     H_    0.749201 0.563012 0.106620 0.156136
H2    H     H_    0.679576 0.122369 0.427644 0.170745
H3    H     H_    0.417437 0.089399 0.537936 0.168651
H4    H     H_    0.401084 0.909013 0.489406 0.144589
H5    H     H_    0.110530 0.431779 0.469711 0.176446
H6    H     H_    0.854221 0.612660 0.596130 0.154715
H7    H     H_    0.901384 0.460124 0.453888 0.188896
H8    H     H_    0.321801 0.423247 0.257592 0.154856
H9    H     H_    0.740230 0.560779 0.249987 0.158632
H10   H     H_    0.618161 0.447428 0.982864 0.155848
H11   H     H_    0.395497 0.367812 0.902876 0.201793
H12   H     H_    0.333670 0.422497 0.115349 0.162157
H13   H     H_    0.514698 0.742578 0.872751 0.189777
N1    N     N_2   0.152990 0.501340 0.500850 -0.290208
N2    N     N_2   0.846850 0.501370 0.500880 -0.297249
O1    O     O_R   0.382960 0.678040 0.499990 -0.582667
O2    O     O_R   0.617100 0.678080 0.500010 -0.598157
O3    O     O_R   0.369350 0.500000 0.613580 -0.569070
O4    O     O_R   0.603500 0.500040 0.613610 -0.568999
O5    O     O_R   0.382900 0.321920 0.499990 -0.563582
O6    O     O_R   0.617040 0.321960 0.500010 -0.561029
O7    O     O_R   0.396500 0.499960 0.386390 -0.578370
O8    O     O_R   0.630650 0.500000 0.386420 -0.592469
C25   C     C_3   0.532257 0.745913 0.709774 -0.417439
C26   C     C_3   0.548438 0.872029 0.748235 -0.747489
H14   H     H_    0.452676 0.897617 0.784522 0.264660
H15   H     H_    0.637829 0.872498 0.784499 0.251277
H16   H     H_    0.567558 0.941918 0.702254 0.267889
H17   H     H_    0.630044 0.724313 0.674146 0.211189
H18   H     H_    0.449152 0.753914 0.669477 0.191414
C27   C     C_3   0.760332 0.878652 0.450314 -0.319617
C28   C     C_3   0.878092 0.966245 0.424721 -0.875687
H19   H     H_    0.859824 0.008586 0.368155 0.255603
H20   H     H_    0.889786 0.038375 0.470099 0.265904
H21   H     H_    0.976273 0.914004 0.416402 0.252247
H22   H     H_    0.789254 0.834448 0.504250 0.215725
H23   H     H_    0.755689 0.807751 0.403369 0.219264
C29   C     C_3   0.120295 0.670877 0.599347 -0.325522
C30   C     C_3   0.094948 0.799188 0.569311 -0.859183
H24   H     H_    0.138465 0.807544 0.507821 0.266602
H25   H     H_    0.982886 0.819154 0.573253 0.244269
H26   H     H_    0.145400 0.868394 0.605641 0.252920
H27   H     H_    0.065418 0.661822 0.658340 0.177775
H28   H     H_    0.229352 0.663904 0.608906 0.250597
S1    S     S_3+6 0.396868 0.274759 0.746325 -0.010524
O9    O     O_2   0.274588 0.280786 0.698424 -0.292735
O10   O     O_2   0.520405 0.230209 0.695423 -0.315458
O11   O     O_3   0.362778 0.176007 0.819635 -0.534977
H29   H     H_    0.326338 0.101633 0.794598 0.373490
S2    S     S_3+6 0.339506 0.681447 0.029166 0.007516
O12   O     O_2   0.214027 0.615678 0.064437 -0.301884
O13   O     O_2   0.409872 0.746504 0.092695 -0.276264
O14   O     O_3   0.289094 0.785083 0.965908 -0.537055
H30   H     H_    0.226500 0.841315 0.997737 0.383378

loop_
_geom_bond_atom_site_label_1
_geom_bond_atom_site_label_2
_ccdc_geom_bond_type
S2    O14   S    
C18   O6    A    
C27   H22   S    
C13   C18   S    
C13   H3    S    
S2    O13   D    
C3    C7    A    
Cu1   N1    S    
C5    C6    A    
C11   C14   S    
C28   H20   S    
C8    S2    S    
C8    C23   S    
H5    N1    S    
Cu2   O4    S    
C1    O2    A    
C3    H12   S    
C8    C9    D    
C30   H25   S    
C9    H10   S    
C23   C24   A    
C1    C15   S    
C29   H28   S    
C28   H21   S    
C21   C22   A    
C18   O5    A    
Cu1   O3    S    
C21   C25   S    
Cu2   O2    S    
C27   H23   S    
C4    H8    S    
O11   H29   S    
C2    C20   A    
C26   H14   S    
S2    O12   D    
C24   H11   S    
Cu2   O8    S    
S1    O10   D    
C19   O7    A    
C16   C17   S    
Cu1   Cu2   S    
C25   H18   S    
C26   H15   S    
C19   O8    A    
C6    H1    S    
C10   C19   S    
C30   H26   S    
C12   C20   S    
C25   C26   S    
C29   H27   S    
Cu1   O7    S    
Cu2   O6    S    
C16   N1    D    
C2    C24   A    
C4    C10   A    
C2    S1    S    
C15   H4    S    
C7    C9    S    
C14   C27   S    
C22   C23   A    
C12   O4    A    
Cu1   O1    S    
S1    O11   S    
C6    C7    A    
C25   H17   S    
C26   H16   S    
H7    N2    S    
C29   C30   S    
C28   H19   S    
S1    O9    D    
C12   O3    A    
C11   C13   D    
C27   C28   S    
C11   H2    S    
C22   H13   S    
C5    H9    S    
C17   N2    D    
O14   H30   S    
C1    O1    A    
C5    C10   A    
C20   C21   A    
C30   H24   S    
C17   H6    S    
C14   C15   D    
C16   C29   S    
Cu1   O5    S    
C3    C4    A    
Cu2   N2    S    
