data_mof_unit_45142.cif
_audit_creation_date              2012-12-10T17:28:30-0500
_audit_creation_method            fapswitch 2.2
_symmetry_space_group_name_H-M    P1
_symmetry_Int_Tables_number       1
_space_group_crystal_system       triclinic
_cell_length_a                    10.730943
_cell_length_b                    11.951241
_cell_length_c                    12.890899
_cell_angle_alpha                 92.495333
_cell_angle_beta                  89.356487
_cell_angle_gamma                 89.859762
_cell_volume                      1651.55417072

loop_
_atom_site_label
_atom_site_type_symbol
_atom_type_description
_atom_site_fract_x
_atom_site_fract_y
_atom_site_fract_z
_atom_type_partial_charge
C1    C     C_R   0.499551 0.521596 0.700373 1.028906
C2    C     C_R   0.518792 0.561743 0.131639 -0.258288
C3    C     C_R   0.496593 0.447001 0.975113 0.161257
C4    C     C_R   0.514217 0.553219 0.025071 0.175574
C5    C     C_R   0.456236 0.946465 0.368437 -0.319152
C6    C     C_R   0.538232 0.053301 0.631627 -0.293592
C7    C     C_R   0.455875 0.831555 0.384524 0.054564
C8    C     C_R   0.550821 0.167094 0.613603 0.099074
C9    C     C_R   0.489600 0.864438 0.564602 0.083980
C10   C     C_R   0.491219 0.137378 0.438057 -0.071755
C11   C     C_R   0.502027 0.979794 0.550486 0.081404
C12   C     C_R   0.502480 0.478590 0.299688 0.898844
C13   C     C_R   0.482888 0.021457 0.451324 0.096018
C14   C     C_R   0.740947 0.506167 0.514115 0.890887
C15   C     C_R   0.261804 0.499464 0.519891 0.910104
C16   C     C_R   0.862171 0.335060 0.637528 0.424150
C17   C     C_R   0.142885 0.701716 0.617688 0.449271
C18   C     C_R   0.911349 0.228284 0.645326 -0.169064
C19   C     C_R   0.105514 0.808717 0.596857 -0.183466
C20   C     C_R   0.038456 0.212373 0.632942 -0.293859
C21   C     C_R   0.989354 0.824314 0.555996 -0.305265
C22   C     C_R   0.115479 0.305558 0.619799 -0.081020
C23   C     C_R   0.504317 0.465943 0.188641 -0.053854
C24   C     C_R   0.904806 0.734710 0.548671 -0.081756
C25   C     C_R   0.061981 0.407056 0.585672 0.000304
C26   C     C_R   0.946023 0.620483 0.558179 -0.010309
C27   C     C_R   0.930756 0.418820 0.588434 0.026964
C28   C     C_R   0.074526 0.608065 0.579189 0.029246
C29   C     C_R   0.132337 0.502540 0.562933 -0.164962
C30   C     C_R   0.872829 0.518217 0.552697 -0.180270
C31   C     C_2   0.232652 0.305626 0.679300 0.995999
C32   C     C_2   0.777355 0.775055 0.555420 0.989040
C33   C     C_R   0.502220 0.534399 0.811534 0.007363
C34   C     C_R   0.525968 0.649325 0.967818 -0.204575
C35   C     C_R   0.485095 0.350775 0.032120 -0.176322
C36   C     C_R   0.520077 0.639900 0.860660 -0.114431
C37   C     C_R   0.488896 0.360236 0.139264 -0.195019
C38   C     C_R   0.490447 0.438539 0.868773 -0.139689
Cl1   Cl    Cl    0.750672 0.375155 0.731673 -0.686268
Cl2   Cl    Cl    0.254640 0.688791 0.714185 -0.640923
H1    H     H_    0.958780 0.909988 0.546998 0.167999
H2    H     H_    0.530390 0.714434 0.816480 0.186168
H3    H     H_    0.539674 0.731048 0.005722 0.144394
H4    H     H_    0.471991 0.269031 0.994062 0.150863
H5    H     H_    0.470310 0.171608 0.363866 0.128594
H6    H     H_    0.499420 0.831765 0.640982 0.163096
H7    H     H_    0.573712 0.223480 0.677787 0.191163
H8    H     H_    0.439962 0.774073 0.319217 0.131840
H9    H     H_    0.282356 0.148115 0.631775 0.290712
H10   H     H_    0.789419 0.847323 0.416447 0.298992
H11   H     H_    0.076110 0.133202 0.655977 0.162546
H12   H     H_    0.440151 0.975911 0.291401 0.143945
H13   H     H_    0.556070 0.023401 0.708222 0.160312
H14   H     H_    0.855905 0.162823 0.678427 0.169085
H15   H     H_    0.161340 0.880517 0.620774 0.162147
H16   H     H_    0.532534 0.643334 0.169950 0.151565
H17   H     H_    0.477155 0.356731 0.830776 0.195260
H18   H     H_    0.477836 0.285627 0.183231 0.154859
N1    N     N_R   0.523130 0.207800 0.519340 -0.106890
N2    N     N_R   0.476870 0.792200 0.480660 -0.082646
O1    O     O_R   0.506170 0.421700 0.658830 -0.602066
O2    O     O_R   0.305801 0.209484 0.684559 -0.808707
O3    O     O_2   0.715780 0.758999 0.633489 -0.612019
O4    O     O_R   0.730332 0.840841 0.477773 -0.805520
O5    O     O_R   0.493830 0.578300 0.341170 -0.639744
O6    O     O_R   0.491330 0.609310 0.646410 -0.593544
O7    O     O_R   0.508670 0.390690 0.353590 -0.631459
O8    O     O_R   0.690650 0.406190 0.506220 -0.601540
O9    O     O_R   0.309350 0.593810 0.493780 -0.612888
O10   O     O_R   0.675800 0.593810 0.493800 -0.604276
O11   O     O_R   0.324200 0.406190 0.506200 -0.633307
O12   O     O_2   0.260314 0.388594 0.732429 -0.594852
Zn1   Zn    Zn3+2 0.509910 0.374730 0.508290 0.986796
Zn2   Zn    Zn3+2 0.490090 0.625270 0.491710 1.010017

loop_
_geom_bond_atom_site_label_1
_geom_bond_atom_site_label_2
_ccdc_geom_bond_type
H10   O4    S    
C36   H2    S    
C1    C33   S    
C12   C23   S    
C28   C29   A    
C35   C37   A    
C24   C26   A    
C20   H11   S    
C8    N1    A    
O6    Zn2   S    
C33   C36   A    
C18   C20   A    
C3    C38   A    
C22   C25   A    
O10   Zn2   S    
C5    H12   S    
O7    Zn1   S    
N1    Zn1   S    
C5    C13   A    
C37   H18   S    
C16   C27   A    
C9    H6    S    
C27   C30   A    
C14   O10   A    
C31   O2    S    
C14   C30   S    
C15   C29   S    
C25   C29   A    
C15   O9    A    
C12   O7    A    
C4    C34   A    
C22   C31   S    
C32   O4    S    
C6    C11   A    
O11   Zn1   S    
C6    C8    A    
O1    Zn1   S    
O8    Zn1   S    
C23   C37   A    
O5    Zn2   S    
C17   Cl2   S    
C2    C4    A    
C24   C32   S    
C38   H17   S    
C3    C35   A    
C10   H5    S    
C1    O6    A    
O9    Zn2   S    
C35   H4    S    
C9    C11   A    
C21   H1    S    
C31   O12   D    
C20   C22   A    
C26   C30   A    
C6    H13   S    
C3    C4    A    
C7    N2    A    
C5    C7    A    
C19   H15   S    
H9    O2    S    
C19   C21   A    
C17   C28   A    
C34   H3    S    
C32   O3    D    
C10   C13   A    
C1    O1    A    
C25   C27   A    
C15   O11   A    
C12   O5    A    
C26   C28   A    
C33   C38   A    
C9    N2    A    
C7    H8    S    
C10   N1    A    
C8    H7    S    
C2    H16   S    
C11   C13   A    
N2    Zn2   S    
C17   C19   A    
C34   C36   A    
C18   H14   S    
C16   Cl1   S    
C16   C18   A    
C21   C24   A    
C2    C23   A    
C14   O8    A    
