data_mof_unit_41225.cif
_audit_creation_date              2013-03-05T15:41:56-0500
_audit_creation_method            fapswitch 2.2
_symmetry_space_group_name_H-M    P1
_symmetry_Int_Tables_number       1
_space_group_crystal_system       triclinic
_cell_length_a                    19.252872
_cell_length_b                    7.239902
_cell_length_c                    17.85192
_cell_angle_alpha                 90.18278
_cell_angle_beta                  107.73099
_cell_angle_gamma                 90.003368
_cell_volume                      2370.14135863

loop_
_atom_site_label
_atom_site_type_symbol
_atom_site_description
_atom_site_fract_x
_atom_site_fract_y
_atom_site_fract_z
_atom_type_partial_charge
O1    O     O_R   0.414820 0.494320 0.416790 -0.547948
O2    O     O_R   0.585180 0.994320 0.583210 -0.566893
O3    O     O_R   0.560270 0.819500 0.430140 -0.577090
O4    O     O_R   0.439730 0.319500 0.569860 -0.520023
C1    C     C_R   0.581472 0.655361 0.415383 0.876909
C2    C     C_R   0.419889 0.155197 0.586234 0.896266
O5    O     O_R   0.413840 0.823740 0.407440 -0.561315
O6    O     O_R   0.586160 0.323740 0.592560 -0.568674
O7    O     O_R   0.437710 0.998590 0.560350 -0.524200
O8    O     O_R   0.562290 0.498590 0.439650 -0.535432
C3    C     C_R   0.387606 0.654845 0.385176 0.890504
C4    C     C_R   0.612045 0.155125 0.615224 0.835608
O9    O     O_3   0.508000 0.662290 0.550200 -0.256450
O10   O     O_3   0.492000 0.162290 0.449800 -0.286996
V1    V     V_3+5 0.498520 0.935380 0.490690 1.205727
V2    V     V_3+5 0.501480 0.435380 0.509310 1.231118
C5    C     C_2   0.788250 0.271931 0.784753 -0.080719
C6    C     C_2   0.211492 0.772922 0.216076 -0.107864
C7    C     C_2   0.820299 0.112934 0.816950 -0.203432
C8    C     C_2   0.177933 0.614133 0.185079 -0.222621
H1    H     H_    0.813411 0.402528 0.808219 0.100585
H2    H     H_    0.188559 0.903681 0.190550 0.103385
H3    H     H_    0.797822 0.980722 0.792839 0.063065
H4    H     H_    0.198590 0.482330 0.210957 0.074301
C9    C     C_2   0.720898 0.284204 0.715993 -0.091628
C10   C     C_2   0.279009 0.784692 0.284697 -0.094012
C11   C     C_2   0.677231 0.140035 0.685088 -0.166992
C12   C     C_2   0.321294 0.639233 0.316468 -0.162043
H5    H     H_    0.707058 0.420139 0.690207 0.094504
H6    H     H_    0.294661 0.921662 0.308970 0.098061
H7    H     H_    0.689063 0.004093 0.710909 0.076768
H8    H     H_    0.307297 0.501883 0.292428 0.073467
C13   C     C_R   0.311663 0.265592 0.621800 0.411162
C14   C     C_R   0.708191 0.668628 0.401911 0.363531
C15   C     C_R   0.372258 0.147402 0.637675 -0.243617
C16   C     C_R   0.631640 0.648952 0.366993 -0.231976
C17   C     C_R   0.386340 0.021675 0.700619 0.311742
C18   C     C_R   0.601688 0.631368 0.284624 0.297376
C19   C     C_R   0.338784 0.011971 0.747751 -0.011322
C20   C     C_R   0.647990 0.619681 0.236092 -0.045173
C21   C     C_R   0.279674 0.139481 0.733545 -0.128881
C22   C     C_R   0.724273 0.645810 0.270626 -0.137661
C23   C     C_R   0.268809 0.274601 0.673588 -0.154082
C24   C     C_R   0.753679 0.680935 0.352568 -0.086143
C25   C     C_R   0.348813 0.880139 0.809136 0.433556
C26   C     C_R   0.620679 0.580098 0.154150 0.418284
C27   C     C_R   0.300150 0.876458 0.853685 -0.130364
C28   C     C_R   0.668085 0.576374 0.108091 -0.141709
C29   C     C_R   0.241427 0.998934 0.839457 -0.002444
C30   C     C_R   0.743152 0.604698 0.141195 -0.018159
C31   C     C_R   0.231864 0.133677 0.780171 -0.028313
C32   C     C_R   0.771524 0.638283 0.222984 -0.040605
C33   C     C_R   0.174995 0.264074 0.768504 -0.038889
C34   C     C_R   0.847286 0.666042 0.256891 -0.038153
C35   C     C_R   0.165758 0.401697 0.710605 0.347373
C36   C     C_R   0.875879 0.706050 0.337544 0.347141
C37   C     C_R   0.214814 0.413625 0.666142 0.289826
C38   C     C_R   0.828906 0.725240 0.383894 0.359965
C39   C     C_R   0.193317 0.991475 0.885495 0.412146
C40   C     C_R   0.790435 0.601003 0.093774 0.378860
C41   C     C_R   0.135492 0.119189 0.872158 -0.167979
C42   C     C_R   0.866141 0.622523 0.129024 -0.142886
C43   C     C_R   0.128877 0.257953 0.816270 -0.141271
C44   C     C_R   0.893505 0.659324 0.209238 -0.144842
H9    H     H_    0.310149 0.780189 0.901870 0.110334
H10   H     H_    0.645204 0.551077 0.045545 0.121709
H11   H     H_    0.086168 0.359359 0.809358 0.135517
H12   H     H_    0.951529 0.683010 0.233980 0.105457
O11   O     O_R   0.937810 0.773680 0.060480 -0.565544
O12   O     O_R   0.062190 0.273680 0.939520 -0.561724
O13   O     O_R   0.086190 0.439740 0.092580 -0.564061
O14   O     O_R   0.913810 0.939740 0.907420 -0.568314
C45   C     C_R   0.111958 0.608616 0.115443 0.828813
C46   C     C_R   0.887526 0.108145 0.885120 0.820561
O15   O     O_R   0.939760 0.444210 0.069890 -0.547621
O16   O     O_R   0.060240 0.944210 0.930110 -0.519696
O17   O     O_R   0.914790 0.269640 0.916760 -0.550505
O18   O     O_R   0.085210 0.769640 0.083240 -0.553059
C47   C     C_R   0.917394 0.612550 0.082384 0.845907
C48   C     C_R   0.082621 0.111949 0.917351 0.819211
O19   O     O_3   0.992050 0.601530 0.949880 -0.282592
O20   O     O_3   0.007950 0.101530 0.050120 -0.291146
V3    V     V_3+5 0.001480 0.328340 0.009300 1.141264
V4    V     V_3+5 0.998520 0.828340 0.990700 1.150242
O21   O     O_3   0.113856 0.538513 0.703661 -0.607593
C49   C     C_3   0.045027 0.472915 0.656610 0.301071
H13   H     H_    0.035388 0.324315 0.666594 0.003754
H14   H     H_    0.039934 0.490410 0.593422 0.111121
C50   C     C_3   0.985379 0.584607 0.675304 -0.274667
H15   H     H_    0.992003 0.733596 0.664509 0.170567
H16   H     H_    0.931123 0.537124 0.637599 0.105045
H17   H     H_    0.988159 0.566000 0.737860 0.095704
O22   O     O_3   0.948887 0.751029 0.369196 -0.608312
C51   C     C_3   0.989952 0.587039 0.390994 0.289175
H18   H     H_    0.969734 0.470435 0.348910 0.005090
H19   H     H_    0.988843 0.542095 0.450012 0.105127
C52   C     C_3   0.068488 0.625257 0.394396 -0.268414
H20   H     H_    0.089538 0.748074 0.431800 0.186359
H21   H     H_    0.102551 0.503747 0.419371 0.079601
H22   H     H_    0.072076 0.651536 0.334437 0.077179
N1    N     N_R   0.213817 0.576470 0.619612 0.117373
O23   O     O_R   0.152444 0.647346 0.577337 -0.383720
O24   O     O_R   0.273633 0.668962 0.627860 -0.345932
N2    N     N_R   0.855935 0.817594 0.458227 0.112533
O25   O     O_R   0.830053 0.979562 0.466837 -0.391246
O26   O     O_R   0.916122 0.763207 0.509348 -0.388019
O27   O     O_3   0.292192 0.362785 0.551829 -0.581562
C53   C     C_3   0.240356 0.257574 0.494311 0.284111
H23   H     H_    0.185642 0.272848 0.502484 0.060970
H24   H     H_    0.254496 0.107625 0.496526 0.025614
C54   C     C_3   0.236987 0.327189 0.413044 -0.332862
H25   H     H_    0.289151 0.296100 0.401273 0.119449
H26   H     H_    0.191951 0.257205 0.367720 0.058646
H27   H     H_    0.227539 0.478656 0.409295 0.138328
O28   O     O_3   0.741443 0.630569 0.481450 -0.628397
C55   C     C_3   0.722925 0.758723 0.532251 0.319043
H28   H     H_    0.674280 0.709671 0.547230 0.037414
H29   H     H_    0.712978 0.900384 0.506987 0.067100
C56   C     C_3   0.784284 0.766221 0.609923 -0.278584
H30   H     H_    0.834765 0.823229 0.601661 0.188435
H31   H     H_    0.768353 0.856011 0.652202 0.033674
H32   H     H_    0.795610 0.625563 0.635387 0.104621
N3    N     N_R   0.448761 0.903680 0.715397 0.116017
O29   O     O_R   0.442259 0.741077 0.682773 -0.316175
O30   O     O_R   0.513401 0.969723 0.750362 -0.393291
N4    N     N_R   0.523836 0.625812 0.251143 0.096578
O31   O     O_R   0.486937 0.486613 0.265151 -0.393461
O32   O     O_R   0.489312 0.769609 0.214524 -0.351616
O33   O     O_3   0.411066 0.771242 0.832380 -0.603880
C57   C     C_3   0.392284 0.581748 0.823107 0.308567
H33   H     H_    0.359880 0.551152 0.761414 0.095810
H34   H     H_    0.361051 0.537841 0.863068 -0.011424
C58   C     C_3   0.461582 0.466444 0.842936 -0.268732
H35   H     H_    0.495643 0.494579 0.904338 0.120746
H36   H     H_    0.447319 0.317341 0.836988 0.058970
H37   H     H_    0.493503 0.500016 0.802410 0.172605
O34   O     O_3   0.546856 0.555533 0.117063 -0.596646
C59   C     C_3   0.532643 0.366008 0.100074 0.309404
H38   H     H_    0.551453 0.281621 0.154667 0.070216
H39   H     H_    0.559768 0.316131 0.056929 0.009999
C60   C     C_3   0.450832 0.337662 0.064157 -0.267910
H40   H     H_    0.430412 0.418995 0.009194 0.098895
H41   H     H_    0.438946 0.189177 0.050176 0.070969
H42   H     H_    0.421868 0.382993 0.106137 0.166303
O35   O     O_3   0.202830 0.857546 0.942993 -0.629783
C61   C     C_3   0.246341 0.930025 0.015943 0.235921
H43   H     H_    0.210438 0.993543 0.047265 0.053048
H44   H     H_    0.286589 0.036020 0.010134 0.007511
C62   C     C_3   0.289248 0.773538 0.065865 -0.280817
H45   H     H_    0.329802 0.717466 0.038969 0.123927
H46   H     H_    0.318696 0.825552 0.125704 0.117863
H47   H     H_    0.251860 0.660501 0.070432 0.114572
O36   O     O_3   0.763181 0.569734 0.013540 -0.652933
C63   C     C_3   0.744985 0.741750 0.975314 0.231228
H48   H     H_    0.794349 0.829640 0.984535 0.055572
H49   H     H_    0.704411 0.817572 0.996893 0.048404
C64   C     C_3   0.711543 0.709633 0.887401 -0.280741
H50   H     H_    0.662255 0.621156 0.876099 0.142538
H51   H     H_    0.695712 0.843903 0.857093 0.089847
H52   H     H_    0.751705 0.641096 0.863264 0.106923

loop_
_geom_bond_atom_site_label_1
_geom_bond_atom_site_label_2
_geom_bond_distance
_ccdc_geom_bond_type
C25   O33   1.389086 S    
N4    O31   1.301001 A    
O19   V4    1.783263 S    
C53   H23   1.112066 S    
C33   C35   1.409737 A    
C57   H34   1.110983 S    
C54   H25   1.109829 S    
O1    C3    1.329607 A    
O2    C4    1.328600 A    
O16   V4    2.018483 S    
C2    O7    1.307693 A    
N2    O26   1.299578 A    
O35   C61   1.415694 S    
N3    O29   1.300742 A    
C27   C29   1.398446 A    
O21   C49   1.416508 S    
C55   H28   1.108092 S    
C20   C26   1.423812 A    
N1    O23   1.299404 A    
C44   H12   1.082312 S    
C27   H9    1.079696 S    
C15   C17   1.409145 A    
O33   C57   1.415046 S    
C60   H41   1.110755 S    
C49   H14   1.109800 S    
N3    O30   1.300737 A    
O17   V3    2.002855 S    
C41   C48   1.479957 S    
O28   C55   1.414933 S    
C1    C16   1.479635 S    
C2    C15   1.483480 S    
C40   C42   1.409036 A    
O6    V2    2.012955 S    
C25   C27   1.401757 A    
C41   C43   1.396408 A    
C40   O36   1.385030 S    
C42   C44   1.391807 A    
C52   H21   1.107810 S    
C17   N3    1.432513 S    
C64   H50   1.110852 S    
C8    H4    1.083105 S    
C24   C38   1.420831 A    
C29   C31   1.411949 A    
C46   O17   1.332945 A    
C13   O27   1.384346 S    
C58   H37   1.109998 S    
C30   C32   1.414665 A    
O27   C53   1.414665 S    
C36   C38   1.406020 A    
C50   H16   1.110224 S    
C61   H44   1.117805 S    
C19   C25   1.423712 A    
C28   C30   1.399648 A    
C64   H51   1.110663 S    
C21   C23   1.420108 A    
C22   C24   1.420636 A    
N2    O25   1.300988 A    
C18   N4    1.435138 S    
C32   C34   1.412733 A    
C52   H20   1.110000 S    
O13   V3    2.008975 S    
C56   H31   1.106456 S    
C9    H5    1.086127 S    
C36   O22   1.384229 S    
C34   C36   1.405183 A    
C39   C41   1.411080 A    
C4    C11   1.479877 S    
O12   C48   1.332035 A    
C13   C23   1.415618 A    
C42   C47   1.473853 S    
C12   H8    1.082786 S    
C14   C24   1.421688 A    
C63   C64   1.521139 S    
O4    C2    1.310165 A    
C60   H42   1.110537 S    
O13   C45   1.334536 A    
C49   H13   1.115795 S    
C5    C7    1.350729 D    
O5    V1    2.009067 S    
C51   C52   1.520022 S    
C14   O28   1.396718 S    
C45   O18   1.333719 A    
C11   H7    1.082589 S    
C59   C60   1.522542 S    
C5    H1    1.085334 S    
C31   C33   1.412765 A    
C35   O21   1.385821 S    
C7    H3    1.082884 S    
C43   H11   1.081303 S    
O12   V3    1.989560 S    
C61   C62   1.522616 S    
O5    C3    1.335227 A    
O6    C4    1.335182 A    
C6    C10   1.492335 S    
C54   H26   1.110498 S    
O1    V2    2.004966 S    
C50   H17   1.110254 S    
C51   H19   1.110070 S    
O2    V1    2.002681 S    
C63   H48   1.113208 S    
O14   V4    2.012856 S    
C59   H39   1.113387 S    
C55   H29   1.114598 S    
C26   O34   1.384257 S    
C39   O35   1.385346 S    
O14   C46   1.334755 A    
C10   H6    1.086103 S    
C64   H52   1.109681 S    
C35   C37   1.409468 A    
C58   H35   1.110747 S    
C62   H47   1.109348 S    
C57   C58   1.522030 S    
C38   N2    1.432644 S    
O4    V2    2.018433 S    
C16   C18   1.411835 A    
C52   H22   1.110417 S    
O3    V1    2.015624 S    
C61   H43   1.111639 S    
O34   C59   1.412940 S    
C56   H32   1.110783 S    
N4    O32   1.301063 A    
C6    H2    1.085844 S    
C63   H49   1.114419 S    
C7    C46   1.482663 S    
O16   C48   1.331854 A    
O3    C1    1.308340 A    
C49   C50   1.521818 S    
C56   H30   1.106502 S    
C53   C54   1.519967 S    
C9    C11   1.346967 D    
C37   N1    1.441137 S    
O22   C51   1.414839 S    
C10   C12   1.347647 D    
C29   C39   1.414321 A    
C55   C56   1.524121 S    
C30   C40   1.419640 A    
C62   H46   1.110361 S    
C57   H33   1.109581 S    
O7    V1    2.002452 S    
C5    C9    1.492431 S    
C1    O8    1.308751 A    
C17   C19   1.421540 A    
O11   V4    1.991113 S    
O8    V2    2.004233 S    
C62   H45   1.109996 S    
C18   C20   1.422123 A    
C33   C43   1.406727 A    
O15   V3    2.015672 S    
C34   C44   1.406669 A    
C3    C12   1.480706 S    
C20   C22   1.421477 A    
C13   C15   1.404923 A    
C14   C16   1.421567 A    
C53   H24   1.117132 S    
C8    C45   1.482665 S    
C54   H27   1.110494 S    
C6    C8    1.350320 D    
C51   H18   1.116424 S    
O11   C47   1.328443 A    
C59   H38   1.114947 S    
C23   C37   1.424157 A    
C26   C28   1.402419 A    
O18   V4    2.005132 S    
C19   C21   1.427414 A    
N1    O24   1.300895 A    
O20   V3    1.787553 S    
O9    V2    1.784357 S    
C58   H36   1.110612 S    
O10   V1    1.788653 S    
C28   H10   1.083248 S    
C50   H15   1.110496 S    
C60   H40   1.110308 S    
O15   C47   1.333184 A    
C21   C31   1.417295 A    
C22   C32   1.422979 A    
O36   C63   1.413944 S    
