data_mof_unit_13558.cif
_audit_creation_date              2012-12-11T18:07:14-0500
_audit_creation_method            fapswitch 2.2
_symmetry_space_group_name_H-M    P1
_symmetry_Int_Tables_number       1
_space_group_crystal_system       triclinic
_cell_length_a                    8.184549
_cell_length_b                    12.850571
_cell_length_c                    26.902815
_cell_angle_alpha                 96.471212
_cell_angle_beta                  92.44466
_cell_angle_gamma                 80.401395
_cell_volume                      2771.32270413

loop_
_atom_site_label
_atom_site_type_symbol
_atom_type_description
_atom_site_fract_x
_atom_site_fract_y
_atom_site_fract_z
_atom_type_partial_charge
Ba1   Ba    Ba6+2 0.859560 0.448380 0.523550 1.669566
Ba2   Ba    Ba6+2 0.330270 0.551530 0.476440 1.670951
C1    C     C_3   0.679525 0.091009 0.670538 -0.153721
C2    C     C_R   0.916528 0.610428 0.183300 0.628555
C3    C     C_2   0.731020 0.537335 0.268912 -0.047707
C4    C     C_3   0.195236 0.054355 0.641925 0.271978
C5    C     C_3   0.688688 0.522571 0.321631 -0.063481
C6    C     C_1   0.983734 0.471881 0.339723 -0.017059
C7    C     C_2   0.020392 0.464422 0.290833 -0.163596
C8    C     C_2   0.888733 0.506575 0.253332 0.193087
C9    C     C_R   0.014566 0.524191 0.101700 -0.073893
C10   C     C_R   0.027292 0.425209 0.121078 -0.027087
C11   C     C_R   0.091627 0.332097 0.091169 -0.028506
C12   C     C_3   0.617948 0.201142 0.653107 0.435125
C13   C     C_R   0.955273 0.618646 0.132486 -0.066071
C14   C     C_2   0.840087 0.525166 0.355851 -0.258209
C15   C     C_2   0.363431 0.490929 0.642068 -0.275182
C16   C     C_3   0.156463 0.036131 0.695076 -0.329709
C17   C     C_R   0.200736 0.438541 0.974931 0.031919
C18   C     C_R   0.058732 0.622006 0.976862 0.004438
C19   C     C_R   0.152305 0.531537 0.950720 0.056250
C20   C     C_R   0.309316 0.353726 0.949982 -0.099459
C21   C     C_R   0.361733 0.358777 0.901881 -0.047049
C22   C     C_R   0.303316 0.446941 0.875858 -0.018677
C23   C     C_3   0.425189 0.756502 0.626035 0.313121
C24   C     C_R   0.195617 0.533187 0.899849 -0.113412
C25   C     C_R   0.131151 0.620345 0.873126 -0.045573
C26   C     C_R   0.173822 0.617196 0.821915 0.606529
C27   C     C_R   0.350470 0.449582 0.826237 0.584797
C28   C     C_3   0.206876 0.226073 0.422386 0.293346
C29   C     C_2   0.478185 0.512167 0.729960 -0.110922
C30   C     C_3   0.515556 0.503832 0.674404 -0.050359
C31   C     C_1   0.215839 0.533562 0.658573 0.035258
C32   C     C_2   0.181009 0.539155 0.706729 -0.099829
C33   C     C_2   0.318970 0.528744 0.745795 0.191742
C34   C     C_3   0.463472 0.763661 0.681970 -0.387084
C35   C     C_R   0.138677 0.433240 0.023116 0.018271
C36   C     C_R   0.062149 0.527650 0.051439 0.067162
C37   C     C_R   0.035483 0.624875 0.029771 0.002367
C38   C     C_R   0.148821 0.336050 0.043631 -0.095801
C39   C     C_R   0.946269 0.717634 0.112269 -0.058045
C40   C     C_3   0.207751 0.107387 0.412096 -0.346747
C41   C     C_R   0.984567 0.704089 0.948580 -0.098383
C42   C     C_R   0.021373 0.705594 0.898145 0.207446
C43   C     C_R   0.991115 0.720698 0.062002 -0.170896
C44   C     C_R   0.750338 0.820217 0.472626 -0.266658
C45   C     C_3   0.977388 0.854737 0.340174 0.273452
C46   C     C_R   0.437933 0.188914 0.523785 -0.276070
C47   C     C_R   0.408404 0.009896 0.535347 -0.125491
C48   C     C_R   0.349143 0.118148 0.542154 -0.029735
C49   C     C_R   0.578556 0.152400 0.495011 0.074142
C50   C     C_R   0.638468 0.041041 0.486872 -0.043141
C51   C     C_R   0.552664 0.969563 0.508231 -0.047188
C52   C     C_3   0.969968 0.768184 0.575191 0.298259
C53   C     C_R   0.612170 0.859049 0.501512 0.037673
C54   C     C_R   0.841022 0.888894 0.453855 -0.034264
C55   C     C_R   0.783299 0.998505 0.459488 -0.101704
C56   C     C_3   0.028953 0.875552 0.289093 -0.268741
C57   C     C_3   0.902841 0.885770 0.586220 -0.428574
C58   C     C_3   0.715026 0.296814 0.373486 0.303789
C59   C     C_3   0.750720 0.252405 0.319421 -0.355974
C60   C     C_3   0.356712 0.255950 0.699746 -0.189479
C61   C     C_2   0.675742 0.086684 0.726155 0.908895
C62   C     C_2   0.181309 0.406066 0.271486 0.971126
C63   C     C_2   0.896720 0.819990 0.143527 0.934537
C64   C     C_3   0.035731 0.882240 0.879169 -0.132972
C65   C     C_2   0.016639 0.824516 0.046396 0.915038
C66   C     C_3   0.540373 0.816171 0.357350 0.376982
C67   C     C_3   0.537252 0.917905 0.333232 -0.347004
C68   C     C_R   0.976331 0.420600 0.170098 0.623427
H1    H     H_    0.660972 0.193222 0.613996 0.036005
H2    H     H_    0.829900 0.319186 0.391501 0.013190
H3    H     H_    0.615954 0.367351 0.374352 0.040370
H4    H     H_    0.608833 0.031744 0.650648 0.022717
H5    H     H_    0.845597 0.179508 0.318418 0.117647
H6    H     H_    0.798294 0.310761 0.299030 0.064553
H7    H     H_    0.635485 0.232465 0.300111 0.167559
H8    H     H_    0.301097 0.803576 0.619756 0.030491
H9    H     H_    0.425382 0.672063 0.611704 0.011509
H10   H     H_    0.474054 0.846412 0.696547 0.169720
H11   H     H_    0.363105 0.737951 0.701678 0.090077
H12   H     H_    0.300695 0.073099 0.383640 0.116573
H13   H     H_    0.583186 0.712429 0.689508 0.121821
H14   H     H_    0.809734 0.067530 0.659265 0.038178
H15   H     H_    0.265480 0.989338 0.712451 0.112921
H16   H     H_    0.935986 0.775929 0.336481 0.035185
H17   H     H_    0.874796 0.919002 0.352760 -0.025543
H18   H     H_    0.128313 0.810973 0.274428 0.174519
H19   H     H_    0.920598 0.879013 0.262755 0.128405
H20   H     H_    0.075224 0.952569 0.291918 0.104438
H21   H     H_    0.669418 0.787427 0.369831 -0.104874
H22   H     H_    0.457809 0.833964 0.390065 0.078740
H23   H     H_    0.239106 0.068459 0.446618 0.091443
H24   H     H_    0.622168 0.903112 0.301186 0.140250
H25   H     H_    0.576734 0.980091 0.361025 0.061423
H26   H     H_    0.328869 0.057230 0.640526 0.036354
H27   H     H_    0.410068 0.946129 0.319024 0.143282
H28   H     H_    0.101144 0.255116 0.104859 0.148723
H29   H     H_    0.580829 0.507107 0.756962 0.117031
H30   H     H_    0.446209 0.291697 0.884663 0.130397
H31   H     H_    0.360344 0.283636 0.967624 0.081721
H32   H     H_    0.195092 0.260913 0.022766 0.089485
H33   H     H_    0.632938 0.564473 0.242638 0.120345
H34   H     H_    0.083772 0.091853 0.397887 0.118346
H35   H     H_    0.891930 0.767179 0.964740 0.075109
H36   H     H_    0.170218 0.986455 0.615527 -0.008828
H37   H     H_    0.053112 0.549613 0.717988 0.119614
H38   H     H_    0.837026 0.583519 0.388469 0.062580
H39   H     H_    0.378008 0.455289 0.603611 0.070458
H40   H     H_    0.335902 0.957655 0.549353 0.087937
H41   H     H_    0.856303 0.048885 0.444038 0.099832
H42   H     H_    0.796462 0.735834 0.468755 0.054405
H43   H     H_    0.390052 0.273028 0.528577 0.060659
H44   H     H_    0.123759 0.112713 0.718771 0.162907
H45   H     H_    0.873103 0.726292 0.556496 0.025367
H46   H     H_    0.051936 0.991602 0.695168 0.103850
H47   H     H_    0.332336 0.241249 0.433522 -0.001764
H48   H     H_    0.120512 0.257137 0.453150 0.079630
H49   H     H_    0.392945 0.278013 0.626210 0.144482
H50   H     H_    0.369740 0.187173 0.721600 0.133609
H51   H     H_    0.222783 0.285011 0.693422 0.137250
H52   H     H_    0.410562 0.319630 0.721388 0.174181
H53   H     H_    0.589180 0.022765 0.782776 0.313579
H54   H     H_    0.134857 0.263563 0.285963 0.288119
H55   H     H_    0.966846 0.952415 0.179404 0.321371
H56   H     H_    0.075255 0.758605 0.549847 0.076781
H57   H     H_    0.821670 0.817492 0.880962 0.193048
H58   H     H_    0.036749 0.916456 0.919007 0.115393
H59   H     H_    0.974915 0.944670 0.855997 0.122249
H60   H     H_    0.165347 0.856410 0.866745 0.132822
H61   H     H_    0.775877 0.890704 0.053337 0.281863
H62   H     H_    0.767238 0.899931 0.589946 0.118285
H63   H     H_    0.936089 0.930982 0.556470 0.106628
H64   H     H_    0.953529 0.915981 0.622440 0.134815
N1    N     N_R   0.927917 0.512526 0.201268 -0.422956
N2    N     N_R   0.282077 0.532366 0.798967 -0.427469
N3    N     N_2   0.438160 0.227331 0.652371 -0.479533
N4    N     N_2   0.945450 0.793770 0.873103 -0.383073
O1    O     O_2   0.907040 0.557650 0.617910 -0.449719
O2    O     O_2   0.176731 0.880439 0.468524 -0.486176
O3    O     O_3   0.112796 0.856037 0.373654 -0.580238
O4    O     O_3   0.139040 0.557570 0.557730 -0.501794
O5    O     O_3   0.571310 0.369620 0.475470 -0.485650
O6    O     O_2   0.348200 0.764910 0.523260 -0.481261
O7    O     O_3   0.544955 0.799112 0.602811 -0.646926
O8    O     O_2   0.340599 0.581641 0.330026 -0.427912
O9    O     O_3   0.483488 0.741171 0.321875 -0.572850
O10   O     O_2   0.975307 0.334434 0.185153 -0.581890
O11   O     O_2   0.451865 0.377079 0.807242 -0.592988
O12   O     O_3   0.661804 0.217993 0.397308 -0.637748
O13   O     O_2   0.874346 0.690165 0.211888 -0.588024
O14   O     O_2   0.115825 0.690331 0.797834 -0.572465
O15   O     O_3   0.684960 0.360550 0.588460 -0.487210
O16   O     O_2   0.858561 0.420702 0.668988 -0.456102
O17   O     O_3   0.022681 0.727759 0.620330 -0.630659
O18   O     O_3   0.689913 0.278467 0.683690 -0.551878
O19   O     O_2   0.841490 0.235060 0.476710 -0.480153
O20   O     O_3   0.099640 0.305100 0.564190 -0.458747
O21   O     O_2   0.006498 0.120026 0.535443 -0.490856
O22   O     O_2   0.758716 0.139179 0.754640 -0.557761
O23   O     O_3   0.100527 0.149893 0.629298 -0.563403
O24   O     O_R   0.581150 0.019641 0.744945 -0.790969
O25   O     O_2   0.269202 0.451733 0.248912 -0.567156
O26   O     O_R   0.228655 0.297602 0.275149 -0.702383
O27   O     O_2   0.751519 0.849157 0.154456 -0.562150
O28   O     O_R   0.015894 0.883707 0.159227 -0.722743
O29   O     O_2   0.153701 0.835047 0.033534 -0.541884
O30   O     O_R   0.886555 0.910108 0.045787 -0.713792
O31   O     O_2   0.282660 0.442310 0.382060 -0.455142
O32   O     O_3   0.050670 0.442340 0.442260 -0.501399
O33   O     O_3   0.504750 0.639360 0.411530 -0.487129
O34   O     O_3   0.159681 0.271600 0.378188 -0.632592
O35   O     O_3   0.618400 0.630290 0.524520 -0.464326
O36   O     O_3   0.090070 0.694820 0.435810 -0.464853
P1    P     P_3+3 0.072810 0.589830 0.610360 0.999057
P2    P     P_3+3 0.661990 0.251250 0.462170 0.975525
P3    P     P_3+3 0.141339 0.168502 0.567707 0.974685
P4    P     P_3+3 0.116900 0.410080 0.389630 0.988623
P5    P     P_3+3 0.051679 0.832205 0.432229 0.956289
P6    P     P_3+3 0.685476 0.393008 0.653710 1.028277
P7    P     P_3+3 0.534671 0.764822 0.537990 0.935613
P8    P     P_3+3 0.506277 0.618982 0.346366 1.028879

loop_
_geom_bond_atom_site_label_1
_geom_bond_atom_site_label_2
_ccdc_geom_bond_type
C65   O30   S    
C61   O24   S    
O12   P2    S    
C19   C24   A    
C3    H33   S    
Ba1   P2    S    
O16   P6    D    
C40   H23   S    
Ba2   O6    S    
C12   H1    S    
Ba1   O32   S    
O33   P8    S    
O1    P1    D    
C40   H12   S    
C62   O26   S    
H54   O26   S    
C16   H44   S    
C47   H40   S    
C59   H5    S    
C52   H56   S    
Ba1   O35   S    
C24   C25   A    
C20   H31   S    
O32   P4    S    
C32   H37   S    
C61   O22   D    
Ba1   O20   S    
C17   C19   A    
O20   P3    S    
C22   C24   A    
C32   C33   S    
C35   C38   A    
C44   H42   S    
Ba2   O35   S    
C36   C37   A    
C58   H2    S    
C34   H13   S    
O34   P4    S    
C7    C62   S    
O7    P7    S    
C58   H3    S    
C66   H21   S    
C54   C55   A    
Ba1   Ba2   S    
C41   H35   S    
C11   H28   S    
C1    H4    S    
C22   C27   A    
C11   C38   A    
Ba1   O4    S    
C17   C35   A    
C9    C13   A    
C25   C42   A    
C46   C49   A    
C59   H7    S    
C6    C7    D    
C44   C53   A    
C43   C65   S    
C21   C22   A    
C4    O23   S    
H57   N4    S    
C29   H29   S    
C7    C8    S    
C60   H50   S    
Ba1   O1    S    
Ba2   O33   S    
C37   C43   A    
C64   H59   S    
C46   C48   A    
C21   H30   S    
O15   P6    S    
O35   P7    S    
C6    C14   D    
C26   N2    Am   
Ba2   O5    S    
C15   C31   D    
O5    P2    S    
O21   P3    D    
C62   O25   D    
C27   N2    Am   
C52   C57   S    
C51   C53   A    
C59   H6    S    
C53   P7    S    
C4    C16   S    
C57   H62   S    
C16   H15   S    
O8    P8    D    
C23   H8    S    
H49   N3    S    
C45   H16   S    
C17   C20   A    
C66   O9    S    
C8    N1    S    
C13   C39   A    
C67   H24   S    
C34   H10   S    
C16   H46   S    
C52   O17   S    
C3    C5    S    
H53   O24   S    
C66   C67   S    
C39   C63   S    
C28   H48   S    
C27   O11   D    
C63   O28   S    
C57   H63   S    
C49   C50   A    
C56   H18   S    
C58   C59   S    
C45   H17   S    
C9    C36   A    
C41   C42   A    
C35   C36   A    
Ba1   O5    S    
C29   C30   S    
C64   N4    S    
C12   N3    S    
C34   H11   S    
C52   H45   S    
C48   P3    S    
C31   C32   D    
C4    H36   S    
C58   O12   S    
C10   C11   A    
Ba1   O15   S    
C56   H20   S    
C28   O34   S    
C1    C12   S    
Ba2   O32   S    
C2    N1    Am   
O9    P8    S    
C5    C14   S    
H61   O30   S    
C26   O14   D    
C4    H26   S    
C68   N1    Am   
Ba2   O4    S    
C29   C33   D    
C68   O10   D    
O2    P5    D    
O23   P3    S    
O31   P4    D    
C60   H52   S    
C18   C41   A    
C50   C51   A    
O17   P1    S    
C18   C37   A    
C2    O13   D    
C10   C68   A    
O6    P7    D    
Ba1   P1    S    
C42   N4    S    
C5    P8    S    
C12   O18   S    
C23   C34   S    
C23   H9    S    
C15   H39   S    
C28   C40   S    
C67   H25   S    
C40   H34   S    
C33   N2    S    
C9    C10   A    
O4    P1    S    
C28   H47   S    
C1    C61   S    
C45   O3    S    
C57   H64   S    
C2    C13   A    
Ba1   O19   S    
H55   O28   S    
C3    C8    D    
C39   C43   A    
Ba2   O36   S    
C45   C56   S    
C65   O29   D    
O18   P6    S    
C55   H41   S    
O3    P5    S    
C47   C51   A    
C66   H22   S    
C64   H58   S    
C60   N3    S    
C49   P2    S    
C31   P1    S    
C56   H19   S    
C50   C55   A    
C14   H38   S    
Ba2   O31   S    
C38   H32   S    
C6    P4    S    
C63   O27   D    
C18   C19   A    
C47   C48   A    
C44   C54   A    
C1    H14   S    
C15   C30   S    
O19   P2    D    
C20   C21   A    
C30   P6    S    
C23   O7    S    
Ba2   P4    S    
C64   H60   S    
O36   P5    S    
C60   H51   S    
C46   H43   S    
C25   C26   A    
C54   P5    S    
C67   H27   S    
