data_mof_unit_21948.cif
_audit_creation_date              2012-12-10T17:49:42-0500
_audit_creation_method            fapswitch 2.2
_symmetry_space_group_name_H-M    P1
_symmetry_Int_Tables_number       1
_space_group_crystal_system       triclinic
_cell_length_a                    10.509141
_cell_length_b                    10.708696
_cell_length_c                    9.961718
_cell_angle_alpha                 87.580821
_cell_angle_beta                  90.645424
_cell_angle_gamma                 93.057404
_cell_volume                      1118.44460467

loop_
_atom_site_label
_atom_site_type_symbol
_atom_type_description
_atom_site_fract_x
_atom_site_fract_y
_atom_site_fract_z
_atom_type_partial_charge
C1    C     C_R   0.505197 0.259702 0.503950 0.890640
C2    C     C_R   0.470763 0.051434 0.629030 0.098905
C3    C     C_R   0.509616 0.125208 0.512625 -0.081108
C4    C     C_R   0.257789 0.499009 0.499208 0.915870
C5    C     C_R   0.536051 0.068529 0.393016 -0.205348
C6    C     C_R   0.519140 0.941672 0.384617 -0.163025
C7    C     C_R   0.470228 0.870388 0.493886 -0.094739
C8    C     C_R   0.316763 0.349838 0.143152 -0.199438
C9    C     C_R   0.220551 0.281326 0.075241 -0.059862
C10   C     C_R   0.223762 0.280266 0.935448 -0.194973
C11   C     C_R   0.320309 0.347135 0.864824 -0.161615
C12   C     C_3   0.952684 0.408787 0.423006 0.442794
C13   C     C_R   0.410703 0.425428 0.930027 0.165736
C14   C     C_R   0.409542 0.426549 0.073934 0.183038
C15   C     C_R   0.588682 0.568946 0.069265 -0.067081
C16   C     C_R   0.488099 0.738464 0.497483 0.887225
C17   C     C_R   0.586171 0.571848 0.925907 -0.053199
C18   C     C_R   0.742182 0.498644 0.500890 0.939385
C19   C     C_3   0.048481 0.588252 0.578533 -0.190575
C20   C     C_3   0.960716 0.475083 0.628528 -0.251969
C21   C     C_3   0.877002 0.496832 0.502801 -0.134763
C22   C     C_3   0.962520 0.609659 0.453095 -0.212480
C23   C     C_3   0.036808 0.387833 0.545844 0.444904
C24   C     C_3   0.039747 0.519757 0.371398 -0.266725
C25   C     C_2   0.693067 0.638902 0.137712 0.976402
C26   C     C_2   0.120572 0.205275 0.150476 0.992253
C27   C     C_2   0.675644 0.659330 0.851696 0.996818
C28   C     C_2   0.431930 0.064384 0.008634 0.883254
C29   C     C_3   0.123060 0.498461 0.497351 -0.067623
C30   C     C_R   0.474602 0.092922 0.762544 -0.267886
C31   C     C_R   0.423279 0.017618 0.870414 -0.075009
C32   C     C_R   0.361392 0.900958 0.843110 0.472884
C33   C     C_R   0.360820 0.859873 0.712610 -0.152886
C34   C     C_R   0.430666 0.927072 0.610522 0.040856
H1    H     H_    0.927359 0.452490 0.732393 0.226349
H2    H     H_    0.571240 0.122398 0.305393 0.220984
H3    H     H_    0.524334 0.179513 0.787311 0.219586
H4    H     H_    0.366615 0.822711 0.020885 0.360376
H5    H     H_    0.882241 0.660066 0.171040 0.340951
H6    H     H_    0.956898 0.098099 0.143680 0.372604
H7    H     H_    0.853201 0.694705 0.780884 0.344488
H8    H     H_    0.863740 0.355482 0.264383 0.365428
H9    H     H_    0.004363 0.221167 0.619434 0.352613
H10   H     H_    0.353917 0.066436 0.192740 0.347754
H11   H     H_    0.313297 0.769927 0.694061 0.163110
H12   H     H_    0.547000 0.899703 0.293448 0.229199
H13   H     H_    0.318754 0.338800 0.249753 0.226969
H14   H     H_    0.154671 0.223163 0.880472 0.216479
H15   H     H_    0.323893 0.332716 0.759620 0.228277
H16   H     H_    0.092017 0.662512 0.641526 0.173455
H17   H     H_    0.927365 0.701116 0.416725 0.183155
H18   H     H_    0.075219 0.536277 0.267245 0.191641
N1    N     N_R   0.498800 0.498800 0.142780 -0.158549
N2    N     N_R   0.498760 0.498720 0.857170 -0.167360
O1    O     O_R   0.500000 0.316780 0.614690 -0.661280
O2    O     O_2   0.672307 0.733639 0.195636 -0.640785
O3    O     O_R   0.817469 0.600525 0.127739 -0.790609
O4    O     O_2   0.127284 0.192373 0.272916 -0.586185
O5    O     O_R   0.018655 0.147198 0.081364 -0.774234
O6    O     O_2   0.644210 0.764942 0.820497 -0.627283
O7    O     O_R   0.799645 0.625402 0.828917 -0.779540
O8    O     O_3   0.898033 0.313121 0.346370 -0.727881
O9    O     O_3   0.081355 0.272649 0.591198 -0.746807
O10   O     O_2   0.517722 0.140173 0.038449 -0.637089
O11   O     O_R   0.340297 0.024713 0.104063 -0.792168
O12   O     O_R   0.499990 0.316750 0.385360 -0.629249
O13   O     O_R   0.313960 0.499980 0.614650 -0.645595
O14   O     O_R   0.313940 0.499960 0.385310 -0.649845
O15   O     O_R   0.500010 0.683250 0.614640 -0.605103
O16   O     O_R   0.500000 0.683220 0.385310 -0.588205
O17   O     O_R   0.686060 0.500040 0.614690 -0.605203
O18   O     O_R   0.686040 0.500020 0.385350 -0.611039
O19   O     O_3   0.309289 0.820022 0.941369 -0.731675
Zn1   Zn    Zn3+2 0.500010 0.500020 0.653130 0.972715
Zn2   Zn    Zn3+2 0.499990 0.499980 0.346870 0.988892

loop_
_geom_bond_atom_site_label_1
_geom_bond_atom_site_label_2
_ccdc_geom_bond_type
C24   H18   S    
C18   C21   S    
C33   H11   S    
C19   C20   S    
C25   O2    D    
H7    O7    S    
H9    O9    S    
O14   Zn2   S    
C12   C23   S    
C23   C29   S    
C27   O6    D    
C30   C31   A    
C15   C25   S    
H5    O3    S    
C5    H2    S    
C24   C29   S    
C27   O7    S    
N2    Zn1   S    
C20   H1    S    
C8    C9    A    
C9    C10   A    
H8    O8    S    
C4    C29   S    
C2    C34   A    
C23   O9    S    
H6    O5    S    
C13   C14   A    
O1    Zn1   S    
H10   O11   S    
N1    Zn2   S    
C25   O3    S    
O18   Zn2   S    
C9    C26   S    
C33   C34   A    
C18   O18   A    
C17   C27   S    
C19   C22   S    
C16   O16   A    
C32   O19   S    
C4    O14   A    
C12   C21   S    
C30   H3    S    
C1    C3    S    
C11   H15   S    
C4    O13   A    
C12   O8    S    
C31   C32   A    
C20   C23   S    
C1    O12   A    
O15   Zn1   S    
O13   Zn1   S    
C26   O4    D    
C28   O10   D    
C7    C16   S    
C10   H14   S    
C7    C34   A    
C22   C24   S    
C19   C29   S    
C15   N1    A    
C13   N2    A    
C26   O5    S    
C18   O17   A    
C15   C17   A    
C8    C14   A    
C6    H12   S    
C28   C31   S    
C16   O15   A    
C3    C5    A    
O17   Zn1   S    
C6    C7    A    
C12   C24   S    
C2    C30   A    
C32   C33   A    
C2    C3    A    
C1    O1    A    
C8    H13   S    
C11   C13   A    
C19   H16   S    
C5    C6    A    
O12   Zn2   S    
C28   O11   S    
C10   C11   A    
C14   N1    A    
C20   C21   S    
O16   Zn2   S    
C21   C22   S    
C17   N2    A    
C22   H17   S    
H4    O19   S    
