data_mof_unit_14997.cif
_audit_creation_date              2012-12-10T19:03:38-0500
_audit_creation_method            fapswitch 2.2
_symmetry_space_group_name_H-M    P1
_symmetry_Int_Tables_number       1
_space_group_crystal_system       triclinic
_cell_length_a                    15.876593
_cell_length_b                    10.816685
_cell_length_c                    9.563154
_cell_angle_alpha                 89.873856
_cell_angle_beta                  89.917483
_cell_angle_gamma                 90.295553
_cell_volume                      1642.27301008

loop_
_atom_site_label
_atom_site_type_symbol
_atom_type_description
_atom_site_fract_x
_atom_site_fract_y
_atom_site_fract_z
_atom_type_partial_charge
C1    C     C_R   0.501398 0.262389 0.500096 0.797915
C2    C     C_3   0.949130 0.467432 0.663928 0.228709
C3    C     C_3   0.916955 0.494535 0.507137 0.262703
C4    C     C_3   0.951161 0.623790 0.460066 -0.451057
C5    C     C_3   0.048286 0.623050 0.455675 -0.413109
C6    C     C_1   0.824598 0.498708 0.502345 -0.031868
C7    C     C_1   0.175313 0.498540 0.503913 -0.080438
C8    C     C_1   0.250787 0.499228 0.501072 -0.203710
C9    C     C_R   0.508808 0.063344 0.625621 0.079942
C10   C     C_R   0.509525 0.129340 0.500110 -0.086633
C11   C     C_R   0.522036 0.064863 0.374250 -0.215012
C12   C     C_R   0.340316 0.499905 0.500193 0.839630
C13   C     C_R   0.521953 0.935968 0.374066 -0.231248
C14   C     C_R   0.509333 0.870696 0.499716 -0.090273
C15   C     C_R   0.508393 0.936150 0.625359 0.103318
C16   C     C_3   0.450037 0.929725 0.748636 -0.031878
C17   C     C_3   0.450640 0.070843 0.748433 -0.513726
C18   C     C_R   0.573007 0.484271 0.073184 0.200157
C19   C     C_R   0.426928 0.510162 0.074193 -0.089515
C20   C     C_R   0.426952 0.510580 0.926024 -0.073968
C21   C     C_R   0.572771 0.481766 0.925906 0.197820
C22   C     C_3   0.651133 0.557786 0.915300 -0.448642
C23   C     C_R   0.501418 0.737581 0.499845 0.815648
C24   C     C_3   0.650688 0.564780 0.073832 -0.084739
C25   C     C_R   0.659669 0.500618 0.499890 0.812847
C26   C     C_3   0.049787 0.466789 0.660445 -0.070207
C27   C     C_3   0.050282 0.394674 0.409018 -0.470396
C28   C     C_3   0.951775 0.397078 0.396893 0.316747
C29   C     C_1   0.749158 0.500309 0.500193 -0.194428
C30   C     C_3   0.083104 0.497608 0.509196 0.227888
Cu1   Cu    Cu3+1 0.500000 0.499980 0.640670 0.946414
Cu2   Cu    Cu3+1 0.500000 0.500020 0.359330 0.927739
H1    H     H_    0.926250 0.650037 0.355734 0.185910
H2    H     H_    0.527932 0.113282 0.275435 0.165631
H3    H     H_    0.527754 0.888192 0.275182 0.162980
H4    H     H_    0.479550 0.887253 0.842475 0.160013
H5    H     H_    0.389299 0.114188 0.721843 0.193967
H6    H     H_    0.482443 0.110676 0.841621 0.187280
H7    H     H_    0.367660 0.520239 0.128287 0.146782
H8    H     H_    0.068212 0.368401 0.675137 0.111570
H9    H     H_    0.367742 0.521273 0.872090 0.146829
H10   H     H_    0.704885 0.503479 0.873716 0.182100
H11   H     H_    0.640634 0.647666 0.861364 0.218999
H12   H     H_    0.706301 0.520303 0.123165 0.172539
H13   H     H_    0.080006 0.405670 0.304129 0.162595
H14   H     H_    0.071784 0.302873 0.447481 0.159340
H15   H     H_    0.073074 0.702539 0.515571 0.166373
H16   H     H_    0.069464 0.638294 0.345907 0.170510
H17   H     H_    0.928314 0.700403 0.526330 0.169462
N1    N     N_R   0.500530 0.500930 0.147930 -0.184785
N2    N     N_R   0.500530 0.500890 0.852020 -0.177611
O1    O     O_R   0.500000 0.319640 0.618810 -0.573697
O2    O     O_R   0.500010 0.319680 0.381230 -0.583341
O3    O     O_R   0.379430 0.499990 0.618840 -0.581361
O4    O     O_R   0.379440 0.500030 0.381260 -0.585220
O5    O     O_R   0.499990 0.680320 0.618770 -0.560014
O6    O     O_R   0.500000 0.680360 0.381190 -0.598676
O7    O     O_R   0.620560 0.499970 0.618740 -0.578930
O8    O     O_R   0.620570 0.500010 0.381160 -0.590183
C31   C     C_3   0.914827 0.337994 0.717462 -0.368791
C32   C     C_3   0.922776 0.312538 0.875569 -0.405897
C33   C     C_3   0.900096 0.178559 0.910504 -0.856317
H18   H     H_    0.834624 0.157500 0.876940 0.259346
H19   H     H_    0.944155 0.114282 0.857614 0.251766
H20   H     H_    0.904679 0.163699 0.025178 0.238549
H21   H     H_    0.988164 0.330107 0.911120 0.209916
H22   H     H_    0.878783 0.372375 0.934881 0.233499
H23   H     H_    0.847163 0.327589 0.690380 0.211373
H24   H     H_    0.949165 0.262196 0.665090 0.216987
C34   C     C_3   0.098407 0.527214 0.786274 -0.396309
C35   C     C_3   0.120233 0.665915 0.777738 -0.318559
C36   C     C_3   0.159745 0.710719 0.914190 -0.879572
H25   H     H_    0.114770 0.698655 0.002351 0.248198
H26   H     H_    0.218240 0.658422 0.936860 0.251123
H27   H     H_    0.176022 0.810377 0.904979 0.238464
H28   H     H_    0.166904 0.682721 0.693330 0.225631
H29   H     H_    0.063995 0.722745 0.757146 0.206598
H30   H     H_    0.064773 0.508088 0.885511 0.182988
H31   H     H_    0.159461 0.477930 0.797649 0.190043
N3    N     N_3   0.914797 0.563744 0.757828 -0.584198
H32   H     H_    0.938857 0.650750 0.735248 0.211988
H33   H     H_    0.931138 0.549041 0.861901 0.215215
N4    N     N_3   0.367822 0.875567 0.714317 -0.568923
H34   H     H_    0.327557 0.891167 0.798975 0.219240
H35   H     H_    0.341825 0.920446 0.627542 0.223904
N5    N     N_3   0.636378 0.691395 0.122613 -0.568761
H36   H     H_    0.576600 0.721852 0.092493 0.229954
H37   H     H_    0.638744 0.692017 0.231630 0.254512
N6    N     N_3   0.917414 0.272805 0.424901 -0.646972
H38   H     H_    0.853055 0.271120 0.401667 0.231719
H39   H     H_    0.945910 0.208616 0.358422 0.212053
N7    N     N_3   0.926878 0.432389 0.253115 -0.608879
H40   H     H_    0.965530 0.502794 0.213676 0.203144
H41   H     H_    0.936643 0.357635 0.185988 0.211278

loop_
_geom_bond_atom_site_label_1
_geom_bond_atom_site_label_2
_ccdc_geom_bond_type
C34   H30   S    
C18   C21   A    
C19   C20   A    
C21   N2    A    
Cu1   O1    S    
C3    C6    S    
C20   H9    S    
C7    C8    T    
Cu1   Cu2   S    
C5    H15   S    
C18   C24   S    
Cu1   O7    S    
C3    C28   S    
C13   H3    S    
C20   N2    A    
C35   H28   S    
N5    H37   S    
C15   C16   S    
C1    O2    A    
C33   H19   S    
C32   H21   S    
N4    H34   S    
C16   C17   S    
C28   N6    S    
Cu1   O5    S    
N6    H39   S    
C9    C10   A    
Cu2   O4    S    
C27   H13   S    
C7    C30   S    
C21   C22   S    
C27   C30   S    
Cu2   O6    S    
C36   H27   S    
C25   C29   S    
C5    H16   S    
C23   O5    A    
C36   H26   S    
N5    H36   S    
C36   H25   S    
C16   N4    S    
C31   C32   S    
C14   C23   S    
C33   H18   S    
C32   H22   S    
C22   H11   S    
C8    C12   S    
N7    H41   S    
C2    C26   S    
C17   H5    S    
Cu2   N1    S    
C34   C35   S    
C19   H7    S    
C27   H14   S    
C9    C17   S    
N4    H35   S    
C26   C30   S    
C26   C34   S    
C22   C24   S    
C25   O7    A    
C3    C4    S    
Cu2   O2    S    
C35   H29   S    
C18   N1    A    
C5    C30   S    
C23   O6    A    
C4    H1    S    
C33   H20   S    
C34   H31   S    
C11   H2    S    
C1    C10   S    
Cu1   N2    S    
N3    H32   S    
C4    H17   S    
C2    C3    S    
C9    C15   A    
C35   C36   S    
C16   H4    S    
C11   C13   A    
C19   N1    A    
C26   H8    S    
C22   H10   S    
C31   H24   S    
C24   H12   S    
N7    H40   S    
N3    H33   S    
C2    C31   S    
C17   H6    S    
Cu1   O3    S    
C32   C33   S    
C1    O1    A    
C12   O4    A    
C2    N3    S    
C10   C11   A    
C28   N7    S    
C4    C5    S    
C6    C29   T    
C31   H23   S    
C27   C28   S    
C14   C15   A    
C25   O8    A    
Cu2   O8    S    
N6    H38   S    
C13   C14   A    
C24   N5    S    
C12   O3    A    
