data_mof_unit_30795.cif
_audit_creation_date              2012-10-26T18:52:42-0400
_audit_creation_method            fapswitch 2.2
_symmetry_space_group_name_H-M    P1
_symmetry_Int_Tables_number       1
_space_group_crystal_system       triclinic
_cell_length_a                    10.893988
_cell_length_b                    14.651048
_cell_length_c                    15.08151
_cell_angle_alpha                 63.707219
_cell_angle_beta                  106.13173
_cell_angle_gamma                 101.939359
_cell_volume                      2063.28636946

loop_
_atom_site_label
_atom_site_type_symbol
_atom_type_description
_atom_site_fract_x
_atom_site_fract_y
_atom_site_fract_z
_atom_type_partial_charge
C1    C     C_R   0.476308 0.120413 0.312201 0.549803
C2    C     C_R   0.412167 0.357822 0.069791 0.032016
C3    C     C_R   0.386834 0.316881 0.996705 0.047122
C4    C     C_R   0.261173 0.999056 0.502974 0.590427
C5    C     C_R   0.404489 0.463552 0.037959 0.022165
C6    C     C_R   0.410550 0.530229 0.936588 0.011999
C7    C     C_R   0.380989 0.487775 0.864380 -0.139551
C8    C     C_R   0.365395 0.382277 0.894099 -0.138783
C9    C     C_R   0.382912 0.504867 0.101071 0.014389
C10   C     C_R   0.420698 0.609870 0.078339 0.142037
C11   C     C_R   0.460913 0.673308 0.986907 0.030082
C12   C     C_3   0.879173 0.002096 0.500119 -0.003748
C13   C     C_R   0.445725 0.636132 0.912066 -0.026449
C14   C     C_R   0.511339 0.774865 0.967676 -0.124768
C15   C     C_R   0.532698 0.843611 0.872179 0.115227
C16   C     C_R   0.516698 0.879375 0.687658 0.554482
C17   C     C_R   0.472441 0.705173 0.817095 -0.185592
C18   C     C_R   0.757135 0.318962 0.603910 -0.135769
C19   C     C_R   0.702897 0.218830 0.619541 0.162185
C20   C     C_R   0.510274 0.284020 0.503089 0.012045
C21   C     C_R   0.555344 0.384692 0.495890 -0.006691
C22   C     C_R   0.685588 0.401448 0.540002 0.015698
C23   C     C_3   0.953749 0.935056 0.610613 0.067669
C24   C     C_R   0.478209 0.469220 0.448748 0.012232
C25   C     C_R   0.534115 0.564892 0.451818 0.027145
C26   C     C_R   0.668508 0.582571 0.470423 -0.139938
C27   C     C_R   0.743290 0.501032 0.519788 -0.148301
C28   C     C_R   0.739610 0.001521 0.497765 0.561264
C29   C     C_R   0.348349 0.462587 0.400660 -0.172043
C30   C     C_R   0.274533 0.544553 0.363940 -0.145784
C31   C     C_R   0.325673 0.632696 0.381154 0.026439
C32   C     C_R   0.454202 0.640744 0.432433 0.031353
C33   C     C_R   0.249201 0.711750 0.350169 -0.183286
C34   C     C_3   0.949271 0.115046 0.461151 0.010350
C35   C     C_R   0.298083 0.794717 0.375892 0.022584
C36   C     C_R   0.491256 0.717032 0.472730 0.152201
C37   C     C_3   0.032961 0.973078 0.416267 -0.011876
C38   C     C_3   0.890412 0.959756 0.424795 -0.254698
C39   C     C_3   0.087977 0.909473 0.608681 0.287044
C40   C     C_3   0.097745 0.109752 0.489506 -0.093352
C41   C     C_3   0.124568 0.998822 0.506695 0.035336
C42   C     C_3   0.860164 0.277722 0.418502 -0.286156
C43   C     C_3   0.192382 0.817797 0.791981 -0.288839
C44   C     C_3   0.474026 0.009494 0.831513 -0.304531
C45   C     C_R   0.450106 0.188009 0.203379 -0.007636
C46   C     C_3   0.315641 0.712560 0.120121 -0.321925
C47   C     C_3   0.013822 0.015599 0.234898 -0.319136
C48   C     C_3   0.296102 0.444675 0.176936 -0.277247
C49   C     C_3   0.169240 0.398777 0.130754 -0.441856
C50   C     C_3   0.597942 0.699759 0.566369 -0.243006
C51   C     C_3   0.572825 0.598927 0.655481 -0.454209
C52   C     C_3   0.767644 0.127767 0.705175 -0.252775
C53   C     C_3   0.899567 0.150466 0.765568 -0.512008
C54   C     C_3   0.007869 0.716904 0.643520 -0.299854
C55   C     C_3   0.838543 0.843608 0.752207 -0.333145
C56   C     C_R   0.510236 0.809472 0.794317 0.024014
C57   C     C_3   0.167249 0.147334 0.576000 -0.258815
C58   C     C_3   0.178206 0.263683 0.541542 -0.425035
C59   C     C_R   0.385387 0.211393 0.027520 -0.143861
C60   C     C_R   0.414152 0.147135 0.130254 -0.140488
C61   C     C_R   0.453548 0.293516 0.172077 -0.141600
Cu1   Cu    Cu3+1 0.465900 0.918260 0.475680 0.904154
Cu2   Cu    Cu3+1 0.534100 0.081740 0.524320 0.904720
H1    H     H_    0.053218 0.898315 0.423785 0.183841
H2    H     H_    0.846132 0.515777 0.543434 0.100648
H3    H     H_    0.239868 0.856864 0.348841 0.134349
H4    H     H_    0.175498 0.537310 0.325135 0.102061
H5    H     H_    0.853714 0.333959 0.642346 0.099300
H6    H     H_    0.417761 0.268328 0.460132 0.123120
H7    H     H_    0.828557 0.999502 0.349317 0.126852
H8    H     H_    0.716203 0.659211 0.447816 0.102075
H9    H     H_    0.303602 0.395985 0.387325 0.086122
H10   H     H_    0.152141 0.709519 0.306196 0.085989
H11   H     H_    0.853903 0.877450 0.451097 0.124754
H12   H     H_    0.975012 0.985669 0.651044 0.117596
H13   H     H_    0.136208 0.165880 0.422123 0.130220
H14   H     H_    0.919675 0.148497 0.377148 0.123829
H15   H     H_    0.912176 0.161513 0.568239 0.267991
H16   H     H_    0.869638 0.332341 0.453090 0.138462
H17   H     H_    0.757125 0.260623 0.388423 0.189001
H18   H     H_    0.911892 0.314842 0.355304 0.115075
H19   H     H_    0.188996 0.971277 0.715498 0.208129
H20   H     H_    0.263983 0.833020 0.853423 0.126863
H21   H     H_    0.224000 0.755548 0.783443 0.173987
H22   H     H_    0.099431 0.792832 0.815831 0.153702
H23   H     H_    0.342690 0.352137 0.836864 0.101148
H24   H     H_    0.647881 0.953242 0.914989 0.231693
H25   H     H_    0.419563 0.978001 0.892910 0.115992
H26   H     H_    0.408358 0.013894 0.759397 0.189544
H27   H     H_    0.515812 0.088393 0.821620 0.125750
H28   H     H_    0.442575 0.603691 0.222894 0.265539
H29   H     H_    0.224081 0.662854 0.129205 0.134182
H30   H     H_    0.304690 0.770405 0.040701 0.136972
H31   H     H_    0.335371 0.753918 0.169657 0.153766
H32   H     H_    0.033807 0.121816 0.294746 0.237605
H33   H     H_    0.050041 0.074510 0.167734 0.145668
H34   H     H_    0.463292 0.679154 0.759040 0.132643
H35   H     H_    0.052975 0.942831 0.256241 0.134172
H36   H     H_    0.907415 0.005279 0.214111 0.132252
H37   H     H_    0.121869 0.458566 0.059439 0.151688
H38   H     H_    0.184275 0.335183 0.115176 0.166183
H39   H     H_    0.104097 0.367425 0.184827 0.118353
H40   H     H_    0.344474 0.384367 0.246128 0.129942
H41   H     H_    0.267904 0.495230 0.202836 0.158987
H42   H     H_    0.469871 0.585460 0.658327 0.145275
H43   H     H_    0.599181 0.533353 0.649061 0.165316
H44   H     H_    0.631342 0.601890 0.727528 0.130678
H45   H     H_    0.362730 0.178732 0.972256 0.096699
H46   H     H_    0.693193 0.706076 0.552195 0.085698
H47   H     H_    0.607921 0.759469 0.591694 0.213136
H48   H     H_    0.969736 0.189995 0.715919 0.133259
H49   H     H_    0.892051 0.197680 0.804286 0.151040
H50   H     H_    0.936278 0.077324 0.824453 0.133994
H51   H     H_    0.703989 0.090880 0.758936 0.186594
H52   H     H_    0.777550 0.071767 0.678502 0.181288
H53   H     H_    0.178279 0.796795 0.605022 0.272869
H54   H     H_    0.049898 0.652288 0.646663 0.110998
H55   H     H_    0.912598 0.720499 0.592315 0.137703
H56   H     H_    0.410347 0.065674 0.152211 0.128159
H57   H     H_    0.000894 0.698174 0.721641 0.177302
H58   H     H_    0.808437 0.813129 0.624787 0.252671
H59   H     H_    0.791358 0.766817 0.793141 0.138926
H60   H     H_    0.770440 0.901180 0.725070 0.157891
H61   H     H_    0.922709 0.861097 0.805618 0.133124
H62   H     H_    0.141499 0.303528 0.459023 0.161964
H63   H     H_    0.121494 0.283732 0.580209 0.144711
H64   H     H_    0.279499 0.292797 0.562490 0.134315
H65   H     H_    0.115745 0.114660 0.638598 0.112794
H66   H     H_    0.265274 0.123766 0.610659 0.167836
H67   H     H_    0.492805 0.325629 0.227360 0.119674
H68   H     H_    0.364627 0.534335 0.784353 0.097839
H69   H     H_    0.529878 0.803382 0.025746 0.146761
N1    N     N_R   0.585360 0.204570 0.560800 -0.239217
N2    N     N_R   0.414550 0.795430 0.439160 -0.234328
N3    N     N_2   0.915004 0.184476 0.493894 -0.500264
N4    N     N_2   0.184279 0.910091 0.698950 -0.512502
N5    N     N_2   0.575562 0.946740 0.856487 -0.519391
N6    N     N_2   0.420869 0.652160 0.147382 -0.535430
N7    N     N_2   0.054726 0.048567 0.316975 -0.530053
N8    N     N_2   0.088280 0.811231 0.602262 -0.503428
N9    N     N_2   0.877184 0.844855 0.667252 -0.529440
O1    O     O_R   0.455060 0.022100 0.338110 -0.496117
O2    O     O_R   0.512640 0.160150 0.379180 -0.516648
O3    O     O_R   0.288900 0.930980 0.479450 -0.511713
O4    O     O_R   0.346480 0.069030 0.520520 -0.521608
O5    O     O_R   0.487360 0.839850 0.620820 -0.536643
O6    O     O_R   0.544940 0.977900 0.661890 -0.480856
O7    O     O_R   0.653520 0.930970 0.479480 -0.530742
O8    O     O_R   0.711100 0.069020 0.520550 -0.499617

loop_
_geom_bond_atom_site_label_1
_geom_bond_atom_site_label_2
_ccdc_geom_bond_type
C38   H7    S    
C45   C60   A    
C42   H17   S    
C44   N5    S    
C55   N9    S    
C54   H57   S    
C43   H20   S    
C57   H65   S    
C44   H27   S    
C7    C8    A    
C39   C41   S    
C14   H69   S    
C12   C23   S    
C26   C27   A    
C37   C38   S    
C47   H35   S    
C58   H64   S    
C12   C28   S    
C16   O6    A    
C1    O2    A    
Cu2   N1    S    
C57   H66   S    
H24   N5    S    
C34   H14   S    
C49   H38   S    
C30   C31   A    
C11   C14   A    
C46   H29   S    
C4    C41   S    
C18   H5    S    
C48   H41   S    
C50   H47   S    
C47   H36   S    
C60   H56   S    
C16   O5    A    
C18   C19   A    
C24   C29   A    
Cu2   O8    S    
H53   N8    S    
C1    O1    A    
C39   N8    S    
C19   C52   S    
C54   N8    S    
C47   H33   S    
C31   C33   A    
C20   N1    A    
C29   C30   A    
C9    C10   A    
C7    H68   S    
C30   H4    S    
C2    C61   A    
C46   N6    S    
C29   H9    S    
C53   H48   S    
C25   C32   A    
C55   H59   S    
C59   C60   A    
Cu1   O7    S    
C21   C22   A    
H19   N4    S    
C26   H8    S    
C42   H18   S    
Cu1   O1    S    
C35   N2    A    
Cu2   O6    S    
C53   H50   S    
C39   N4    S    
C55   H60   S    
C28   O7    A    
C43   H22   S    
H58   N9    S    
C24   C25   A    
C3    C8    A    
C43   H21   S    
C49   H39   S    
C35   H3    S    
C25   C26   A    
C48   H40   S    
C50   H46   S    
C40   H13   S    
C42   N3    S    
C16   C56   S    
C5    C9    A    
Cu1   Cu2   S    
C27   H2    S    
H28   N6    S    
C23   H12   S    
C28   O8    A    
C31   C32   A    
C46   H31   S    
C51   H42   S    
C50   C51   S    
C17   C56   A    
C61   H67   S    
C9    C48   S    
C53   H49   S    
C33   H10   S    
C48   C49   S    
C58   H63   S    
C22   C27   A    
C54   H55   S    
C37   N7    S    
C34   C40   S    
C20   H6    S    
C54   H54   S    
C2    C5    A    
C12   C34   S    
C12   C38   S    
C32   C36   A    
C37   H1    S    
C36   C50   S    
C52   C53   S    
H15   N3    S    
C52   H52   S    
C55   H61   S    
C40   C41   S    
C40   C57   S    
C18   C22   A    
Cu1   O3    S    
C36   N2    A    
C4    O3    A    
C6    C7    A    
C52   H51   S    
C19   N1    A    
H32   N7    S    
C59   H45   S    
C13   C17   A    
C15   C56   A    
Cu1   N2    S    
C2    C3    A    
C6    C13   A    
C11   C13   A    
C1    C45   S    
C57   C58   S    
C5    C6    A    
C46   H30   S    
C34   N3    S    
C51   H43   S    
C23   C39   S    
C4    O4    A    
C45   C61   A    
C33   C35   A    
C38   H11   S    
C8    H23   S    
C37   C41   S    
C43   N4    S    
C10   C11   A    
C42   H16   S    
C20   C21   A    
C58   H62   S    
C51   H44   S    
Cu1   O5    S    
C21   C24   A    
C47   N7    S    
Cu2   O2    S    
C14   C15   A    
C23   N9    S    
C10   N6    S    
C15   N5    S    
C44   H25   S    
C17   H34   S    
Cu2   O4    S    
C44   H26   S    
C49   H37   S    
C3    C59   A    
