data_mof_unit_66719.cif
_audit_creation_date              2012-12-11T14:04:14-0500
_audit_creation_method            fapswitch 2.2
_symmetry_space_group_name_H-M    P1
_symmetry_Int_Tables_number       1
_space_group_crystal_system       triclinic
_cell_length_a                    20.013366
_cell_length_b                    22.3523
_cell_length_c                    8.916626
_cell_angle_alpha                 89.938146
_cell_angle_beta                  104.490945
_cell_angle_gamma                 90.039905
_cell_volume                      3861.90820846

loop_
_atom_site_label
_atom_site_type_symbol
_atom_type_description
_atom_site_fract_x
_atom_site_fract_y
_atom_site_fract_z
_atom_type_partial_charge
Ba1   Ba    Ba6+2 0.999900 0.456810 0.844860 1.756556
Ba2   Ba    Ba6+2 0.999900 0.543190 0.344860 1.752158
Ba3   Ba    Ba6+2 0.499900 0.956810 0.844860 1.756555
Ba4   Ba    Ba6+2 0.499900 0.043190 0.344860 1.752157
C1    C     C_3   0.007031 0.160517 0.506854 0.687360
C2    C     C_3   0.006442 0.839238 0.005642 0.689735
C3    C     C_3   0.507031 0.660517 0.506854 0.687360
C4    C     C_3   0.506443 0.339238 0.005642 0.689735
C5    C     C_R   0.130600 0.689195 0.846578 0.046194
C6    C     C_R   0.130546 0.310894 0.346830 0.043761
C7    C     C_R   0.630600 0.189195 0.846578 0.046195
C8    C     C_R   0.630547 0.810894 0.346830 0.043762
C9    C     C_R   0.181619 0.731486 0.909919 -0.010780
C10   C     C_R   0.181494 0.268585 0.410266 -0.011752
C11   C     C_R   0.681619 0.231486 0.909919 -0.010780
C12   C     C_R   0.681494 0.768585 0.410266 -0.011751
C13   C     C_R   0.219853 0.729341 0.066690 0.035406
C14   C     C_R   0.219670 0.270613 0.567032 0.034410
C15   C     C_R   0.719853 0.229341 0.066690 0.035407
C16   C     C_R   0.719670 0.770613 0.567032 0.034410
C17   C     C_R   0.207035 0.678291 0.155042 0.382779
C18   C     C_R   0.206909 0.321638 0.655325 0.384852
C19   C     C_R   0.707035 0.178291 0.155042 0.382779
C20   C     C_R   0.706909 0.821638 0.655325 0.384852
C21   C     C_R   0.150085 0.639281 0.095780 0.159057
C22   C     C_R   0.150036 0.360719 0.595937 0.158769
C23   C     C_R   0.650085 0.139281 0.095780 0.159058
C24   C     C_R   0.650036 0.860720 0.595937 0.158769
C25   C     C_R   0.804550 0.283008 0.290576 -0.038007
C26   C     C_R   0.804140 0.716675 0.790908 -0.037205
C27   C     C_R   0.304550 0.783008 0.290576 -0.038007
C28   C     C_R   0.304140 0.216675 0.790908 -0.037205
C29   C     C_R   0.864628 0.316145 0.348431 0.011534
C30   C     C_R   0.864068 0.683386 0.848818 0.010138
C31   C     C_R   0.364628 0.816145 0.348431 0.011534
C32   C     C_R   0.364068 0.183386 0.848818 0.010138
C33   C     C_R   0.850614 0.362075 0.095834 0.099210
C34   C     C_R   0.849986 0.637611 0.596258 0.095842
C35   C     C_R   0.350614 0.862075 0.095834 0.099210
C36   C     C_R   0.349986 0.137611 0.596258 0.095842
C37   C     C_R   0.795954 0.321693 0.034343 -0.046527
C38   C     C_R   0.795432 0.678079 0.534709 -0.049201
C39   C     C_R   0.295954 0.821693 0.034343 -0.046526
C40   C     C_R   0.295432 0.178079 0.534709 -0.049202
C41   C     C_R   0.774486 0.277753 0.129985 0.084810
C42   C     C_R   0.774104 0.722038 0.630329 0.086058
C43   C     C_R   0.274486 0.777753 0.129985 0.084810
C44   C     C_R   0.274104 0.222038 0.630330 0.086058
C45   C     C_3   0.000317 0.228140 0.989948 0.660301
C46   C     C_3   0.000206 0.771685 0.489384 0.664372
C47   C     C_3   0.500317 0.728140 0.989947 0.660302
C48   C     C_3   0.500206 0.271685 0.489384 0.664372
C49   C     C_R   0.889029 0.354227 0.249187 -0.201255
C50   C     C_R   0.888305 0.645251 0.749727 -0.200416
C51   C     C_R   0.389029 0.854227 0.249187 -0.201255
C52   C     C_R   0.388304 0.145251 0.749727 -0.200416
C53   C     C_3   0.995871 0.165904 0.915951 0.350121
C54   C     C_3   0.995523 0.833917 0.415019 0.338700
C55   C     C_3   0.495872 0.665904 0.915950 0.350120
C56   C     C_3   0.495523 0.333917 0.415019 0.338699
C57   C     C_3   0.228090 0.466755 0.265733 0.607028
C58   C     C_3   0.228154 0.533213 0.765655 0.607532
C59   C     C_3   0.728090 0.966755 0.265733 0.607029
C60   C     C_3   0.728154 0.033213 0.765655 0.607532
C61   C     C_3   0.300256 0.441703 0.259546 0.713895
C62   C     C_3   0.300407 0.558276 0.759892 0.713517
C63   C     C_3   0.800256 0.941703 0.259546 0.713895
C64   C     C_3   0.800407 0.058277 0.759892 0.713517
C65   C     C_3   0.773079 0.530884 0.895540 0.474747
C66   C     C_3   0.775913 0.467039 0.400535 0.515393
C67   C     C_3   0.273079 0.030884 0.895540 0.474747
C68   C     C_3   0.275913 0.967039 0.400535 0.515393
C69   C     C_3   0.704637 0.561592 0.916141 0.159264
C70   C     C_3   0.711461 0.435017 0.435237 0.162473
C71   C     C_3   0.204637 0.061592 0.916141 0.159261
C72   C     C_3   0.211461 0.935017 0.435237 0.162474
C73   C     C_3   0.000611 0.227243 0.542381 0.491666
C74   C     C_3   0.000001 0.772504 0.041525 0.493462
C75   C     C_3   0.500611 0.727243 0.542381 0.491665
C76   C     C_3   0.500002 0.272504 0.041525 0.493462
C77   C     C_R   0.110970 0.646915 0.942521 -0.258748
C78   C     C_R   0.110953 0.353152 0.442643 -0.259857
C79   C     C_R   0.610970 0.146915 0.942520 -0.258748
C80   C     C_R   0.610954 0.853152 0.442643 -0.259857
H1    H     H_    0.340593 0.460234 0.357395 0.153487
H2    H     H_    0.340619 0.539807 0.858106 0.152517
H3    H     H_    0.840593 0.960234 0.357394 0.153487
H4    H     H_    0.840619 0.039807 0.858106 0.152517
H5    H     H_    0.686749 0.594554 0.820646 0.108329
H6    H     H_    0.701209 0.392952 0.365962 0.075301
H7    H     H_    0.186749 0.094554 0.820646 0.108332
H8    H     H_    0.201209 0.892952 0.365962 0.075301
H9    H     H_    0.999088 0.253176 0.434809 0.020685
H10   H     H_    0.998409 0.746587 0.934038 0.021743
H11   H     H_    0.499088 0.753176 0.434808 0.020685
H12   H     H_    0.498409 0.246587 0.934038 0.021742
H13   H     H_    0.012628 0.133335 0.613084 0.035703
H14   H     H_    0.012013 0.866426 0.111711 0.036413
H15   H     H_    0.512628 0.633335 0.613084 0.035703
H16   H     H_    0.512013 0.366426 0.111711 0.036413
H17   H     H_    0.781254 0.262955 0.374559 0.146966
H18   H     H_    0.780959 0.736778 0.874872 0.146663
H19   H     H_    0.281254 0.762955 0.374559 0.146966
H20   H     H_    0.280959 0.236778 0.874872 0.146664
H21   H     H_    0.190929 0.765499 0.832127 0.112407
H22   H     H_    0.190767 0.234615 0.332537 0.120775
H23   H     H_    0.690929 0.265499 0.832127 0.112407
H24   H     H_    0.690767 0.734615 0.332537 0.120775
H25   H     H_    0.770036 0.327182 0.913901 0.087359
H26   H     H_    0.769612 0.672735 0.414175 0.094396
H27   H     H_    0.270036 0.827182 0.913901 0.087359
H28   H     H_    0.269612 0.172735 0.414175 0.094396
H29   H     H_    0.934040 0.381629 0.295289 0.039265
H30   H     H_    0.933151 0.617689 0.796023 0.039053
H31   H     H_    0.434040 0.881629 0.295289 0.039265
H32   H     H_    0.433151 0.117689 0.796023 0.039053
H33   H     H_    0.070281 0.615559 0.892664 0.049087
H34   H     H_    0.070311 0.384526 0.392683 0.048731
H35   H     H_    0.570281 0.115559 0.892664 0.049088
H36   H     H_    0.570311 0.884526 0.392683 0.048730
H37   H     H_    0.992448 0.262403 0.897003 0.045187
H38   H     H_    0.992326 0.737438 0.396573 0.047124
H39   H     H_    0.492448 0.762403 0.897003 0.045187
H40   H     H_    0.492326 0.237438 0.396573 0.047124
H41   H     H_    0.947609 0.161557 0.823231 0.107560
H42   H     H_    0.947192 0.838137 0.322444 0.113995
H43   H     H_    0.447609 0.661557 0.823230 0.107560
H44   H     H_    0.447192 0.338137 0.322443 0.113995
H45   H     H_    0.040545 0.159435 0.865622 0.049925
H46   H     H_    0.040111 0.840509 0.364401 0.040430
H47   H     H_    0.540546 0.659435 0.865622 0.049924
H48   H     H_    0.540111 0.340509 0.364401 0.040430
O1    O     O_2   0.866180 0.413660 0.823810 -0.477071
O2    O     O_2   0.866180 0.586340 0.323810 -0.486120
O3    O     O_2   0.366180 0.913660 0.823810 -0.477071
O4    O     O_2   0.366180 0.086340 0.323810 -0.486119
O5    O     O_3   0.223601 0.469784 0.749942 -0.507344
O6    O     O_3   0.223562 0.530191 0.249815 -0.507639
O7    O     O_3   0.723601 0.969784 0.749942 -0.507343
O8    O     O_3   0.723562 0.030191 0.249815 -0.507639
O9    O     O_3   0.065286 0.233540 0.093991 -0.574354
O10   O     O_3   0.065283 0.766439 0.593091 -0.584163
O11   O     O_3   0.565286 0.733540 0.093992 -0.574355
O12   O     O_3   0.565283 0.266439 0.593091 -0.584163
O13   O     O_3   0.077880 0.530130 0.092320 -0.542578
O14   O     O_3   0.077880 0.469870 0.592320 -0.542445
O15   O     O_3   0.577880 0.030130 0.092320 -0.542578
O16   O     O_3   0.577880 0.969870 0.592320 -0.542446
O17   O     O_3   0.922050 0.469730 0.097400 -0.525888
O18   O     O_3   0.922050 0.530270 0.597400 -0.527193
O19   O     O_3   0.422050 0.969730 0.097400 -0.525888
O20   O     O_3   0.422050 0.030270 0.597400 -0.527193
O21   O     O_3   0.976760 0.360270 0.628090 -0.467247
O22   O     O_3   0.976760 0.639730 0.128090 -0.465536
O23   O     O_3   0.476760 0.860270 0.628090 -0.467247
O24   O     O_3   0.476760 0.139730 0.128090 -0.465536
O25   O     O_2   0.858397 0.315874 0.659189 -0.447475
O26   O     O_2   0.858214 0.683477 0.159976 -0.444173
O27   O     O_2   0.358398 0.815874 0.659189 -0.447474
O28   O     O_2   0.358215 0.183478 0.159976 -0.444173
O29   O     O_3   0.778533 0.471843 0.955278 -0.627792
O30   O     O_3   0.779496 0.526951 0.453592 -0.632782
O31   O     O_3   0.278533 0.971843 0.955278 -0.627792
O32   O     O_3   0.279496 0.026951 0.453592 -0.632783
O33   O     O_3   0.941528 0.236331 0.598979 -0.587524
O34   O     O_3   0.940937 0.763352 0.098307 -0.588331
O35   O     O_3   0.441528 0.736331 0.598979 -0.587524
O36   O     O_3   0.440937 0.263352 0.098306 -0.588331
O37   O     O_2   0.133470 0.412980 0.865660 -0.413695
O38   O     O_2   0.133470 0.587020 0.365660 -0.413768
O39   O     O_2   0.633470 0.912980 0.865660 -0.413695
O40   O     O_2   0.633470 0.087020 0.365660 -0.413768
O41   O     O_3   0.022720 0.360150 0.061220 -0.494773
O42   O     O_3   0.022720 0.639850 0.561220 -0.492105
O43   O     O_3   0.522720 0.860150 0.061220 -0.494773
O44   O     O_3   0.522720 0.139850 0.561220 -0.492105
O45   O     O_2   0.145676 0.317982 0.046006 -0.367202
O46   O     O_2   0.145694 0.682051 0.545707 -0.368867
O47   O     O_2   0.645676 0.817982 0.046006 -0.367202
O48   O     O_2   0.645694 0.182051 0.545707 -0.368866
P1    P     P_3+3 0.859590 0.433890 0.993820 0.955032
P2    P     P_3+3 0.859590 0.566110 0.493820 0.942729
P3    P     P_3+3 0.359590 0.933890 0.993820 0.955032
P4    P     P_3+3 0.359590 0.066110 0.493820 0.942729
P5    P     P_3+3 0.140130 0.433190 0.695710 1.129384
P6    P     P_3+3 0.140130 0.566810 0.195710 1.129414
P7    P     P_3+3 0.640130 0.933190 0.695710 1.129384
P8    P     P_3+3 0.640130 0.066810 0.195710 1.129414
P9    P     P_3+3 0.089596 0.308440 0.135998 1.063790
P10   P     P_3+3 0.089640 0.691586 0.635702 1.059262
P11   P     P_3+3 0.589596 0.808440 0.135998 1.063789
P12   P     P_3+3 0.589640 0.191586 0.635702 1.059261
P13   P     P_3+3 0.909450 0.690311 0.056659 1.038747
P14   P     P_3+3 0.909867 0.309256 0.556468 1.037797
P15   P     P_3+3 0.409450 0.190311 0.056659 1.038746
P16   P     P_3+3 0.409867 0.809256 0.556468 1.037797
Cl1   Cl    Cl    0.074778 0.248417 0.689432 -0.799928
Cl2   Cl    Cl    0.074279 0.751349 0.188416 -0.800654
Cl3   Cl    Cl    0.574778 0.748417 0.689432 -0.799929
Cl4   Cl    Cl    0.574279 0.251350 0.188416 -0.800654
Cl5   Cl    Cl    0.303481 0.361749 0.278538 -0.542424
Cl6   Cl    Cl    0.303639 0.638235 0.778316 -0.543679
Cl7   Cl    Cl    0.803481 0.861749 0.278537 -0.542424
Cl8   Cl    Cl    0.803639 0.138235 0.778316 -0.543680
Cl9   Cl    Cl    0.328945 0.458261 0.092007 -0.442753
Cl10  Cl    Cl    0.329341 0.541626 0.592788 -0.440872
Cl11  Cl    Cl    0.828945 0.958261 0.092007 -0.442753
Cl12  Cl    Cl    0.829341 0.041626 0.592789 -0.440872
N1    N     N_3   0.766161 0.527050 0.731702 -0.446405
H49   H     H_    0.761150 0.570351 0.686418 0.129173
H50   H     H_    0.812225 0.509166 0.718841 0.193745
N2    N     N_3   0.764706 0.468474 0.235192 -0.497398
H51   H     H_    0.760031 0.424690 0.193302 0.135737
H52   H     H_    0.809216 0.487467 0.216314 0.173921
N3    N     N_3   0.266161 0.027050 0.731702 -0.446406
H53   H     H_    0.261151 0.070351 0.686417 0.129173
H54   H     H_    0.312225 0.009166 0.718841 0.193745
N4    N     N_3   0.264706 0.968474 0.235192 -0.497400
H55   H     H_    0.260031 0.924690 0.193302 0.135737
H56   H     H_    0.309216 0.987467 0.216313 0.173922
N5    N     N_3   0.833184 0.567372 0.965692 -0.545780
H57   H     H_    0.875363 0.554397 0.924437 0.140162
H58   H     H_    0.847427 0.557787 0.081741 0.223971
N6    N     N_3   0.838418 0.432903 0.467061 -0.536210
H59   H     H_    0.878738 0.447203 0.420876 0.140198
H60   H     H_    0.854165 0.442049 0.583119 0.235594
N7    N     N_3   0.333184 0.067372 0.965691 -0.545782
H61   H     H_    0.375363 0.054397 0.924437 0.140163
H62   H     H_    0.347427 0.057787 0.081741 0.223972
N8    N     N_3   0.338419 0.932903 0.467060 -0.536209
H63   H     H_    0.378738 0.947203 0.420876 0.140198
H64   H     H_    0.354165 0.942049 0.583119 0.235594
N9    N     N_3   0.648085 0.518641 0.902386 -0.380261
H65   H     H_    0.642066 0.494592 0.799281 0.241585
H66   H     H_    0.659986 0.488192 0.994102 0.249304
N10   N     N_3   0.649201 0.472195 0.388964 -0.410870
H67   H     H_    0.640708 0.483885 0.272152 0.232409
H68   H     H_    0.655978 0.511618 0.454062 0.267186
N11   N     N_3   0.148085 0.018641 0.902386 -0.380263
H69   H     H_    0.142065 0.994593 0.799281 0.241585
H70   H     H_    0.159986 0.988192 0.994102 0.249303
N12   N     N_3   0.149201 0.972195 0.388966 -0.410870
H71   H     H_    0.140708 0.983885 0.272153 0.232409
H72   H     H_    0.155978 0.011618 0.454064 0.267185
N13   N     N_3   0.712808 0.596036 0.059234 -0.434800
H73   H     H_    0.739729 0.571727 0.154357 0.222222
H74   H     H_    0.740807 0.634893 0.051707 0.196713
N14   N     N_3   0.722754 0.418263 0.598332 -0.454008
H75   H     H_    0.675400 0.405909 0.618937 0.240798
H76   H     H_    0.752630 0.379463 0.617377 0.200446
N15   N     N_3   0.212808 0.096037 0.059233 -0.434802
H77   H     H_    0.239725 0.071726 0.154358 0.222223
H78   H     H_    0.240812 0.134891 0.051710 0.196714
N16   N     N_3   0.222754 0.918262 0.598332 -0.454008
H79   H     H_    0.175400 0.905909 0.618938 0.240798
H80   H     H_    0.252630 0.879463 0.617377 0.200445
Cl13  Cl    Cl    0.080551 0.146748 0.432633 -0.613458
Cl14  Cl    Cl    0.080000 0.853060 0.931439 -0.628199
Cl15  Cl    Cl    0.580551 0.646748 0.432633 -0.613457
Cl16  Cl    Cl    0.580001 0.353060 0.931438 -0.628200
Cl17  Cl    Cl    0.999528 0.106443 0.051510 -0.396321
Cl18  Cl    Cl    0.999153 0.893356 0.550307 -0.421265
Cl19  Cl    Cl    0.499528 0.606443 0.051509 -0.396321
Cl20  Cl    Cl    0.499152 0.393356 0.550307 -0.421264
Cl21  Cl    Cl    0.266048 0.655140 0.327474 -0.458123
Cl22  Cl    Cl    0.265786 0.344602 0.828028 -0.457798
Cl23  Cl    Cl    0.766048 0.155140 0.327474 -0.458122
Cl24  Cl    Cl    0.765786 0.844602 0.828029 -0.457798
Cl25  Cl    Cl    0.932433 0.134111 0.370038 -0.347744
Cl26  Cl    Cl    0.931888 0.865601 0.868591 -0.346944
Cl27  Cl    Cl    0.432433 0.634112 0.370037 -0.347745
Cl28  Cl    Cl    0.431888 0.365601 0.868591 -0.346944
Cl29  Cl    Cl    0.933956 0.235436 0.088561 -0.633328
Cl30  Cl    Cl    0.934004 0.764102 0.588465 -0.631115
Cl31  Cl    Cl    0.433955 0.735437 0.088559 -0.633326
Cl32  Cl    Cl    0.434004 0.264102 0.588465 -0.631115
Cl33  Cl    Cl    0.223431 0.447576 0.448183 -0.744707
Cl34  Cl    Cl    0.223083 0.552376 0.947714 -0.745980
Cl35  Cl    Cl    0.723431 0.947576 0.448184 -0.744707
Cl36  Cl    Cl    0.723082 0.052376 0.947714 -0.745980
N17   N     N_3   0.174180 0.436412 0.155612 -0.416174
H81   H     H_    0.129425 0.434675 0.195716 0.156636
H82   H     H_    0.163953 0.465786 0.064410 0.237532
N18   N     N_3   0.174434 0.563530 0.654991 -0.415389
H83   H     H_    0.129572 0.565363 0.694662 0.157561
H84   H     H_    0.164314 0.534067 0.564116 0.237152
N19   N     N_3   0.674180 0.936412 0.155612 -0.416174
H85   H     H_    0.629425 0.934675 0.195717 0.156636
H86   H     H_    0.663953 0.965785 0.064410 0.237532
N20   N     N_3   0.674434 0.063530 0.654991 -0.415389
H87   H     H_    0.629572 0.065363 0.694662 0.157561
H88   H     H_    0.664314 0.034067 0.564116 0.237152

loop_
_geom_bond_atom_site_label_1
_geom_bond_atom_site_label_2
_ccdc_geom_bond_type
C80   H36   S    
O17   P1    S    
Ba3   O15   S    
Ba2   O14   S    
C77   H33   S    
C64   Cl8   S    
C57   N17   S    
C47   H39   S    
O35   P16   S    
C56   Cl20  S    
O14   P5    S    
C71   N11   S    
N11   H69   S    
C46   H38   S    
O34   P13   S    
O3    P3    D    
C68   C72   S    
C57   Cl33  S    
N6    H59   S    
C56   H48   S    
N8    H64   S    
N4    H55   S    
C45   C53   S    
N15   H77   S    
O18   P2    S    
O16   P7    S    
C11   C15   A    
C24   C80   A    
C53   Cl17  S    
Ba3   O20   S    
C48   O12   S    
C67   O31   S    
C33   C37   A    
O32   P4    S    
Ba3   P7    S    
C60   C64   S    
C55   Cl19  S    
N18   H83   S    
O6    P6    S    
C65   O29   S    
C79   H35   S    
O30   P2    S    
N3    H54   S    
C53   H41   S    
O46   P10   D    
C22   P5    S    
O7    P7    S    
C57   O6    S    
C2    C74   S    
C61   Cl9   S    
C55   H43   S    
O10   P10   S    
Ba1   O1    S    
C25   C29   A    
C66   N2    S    
N10   H67   S    
C8    C80   A    
C60   N20   S    
C7    P12   S    
C59   O8    S    
C11   H23   S    
C8    P11   S    
C5    C9    A    
N16   H80   S    
O23   P16   S    
C48   C56   S    
C65   N5    S    
O22   P13   S    
C3    Cl15  S    
C35   C51   A    
O21   P14   S    
C8    C12   A    
C13   C43   S    
N14   H76   S    
C59   N19   S    
C36   C52   A    
O36   P15   S    
C45   O9    S    
C64   Cl12  S    
C66   N6    S    
C28   H20   S    
C65   C69   S    
C72   N12   S    
C19   C23   A    
C2    Cl26  S    
O20   P4    S    
C14   C18   A    
C72   N16   S    
N9    H65   S    
C69   N9    S    
C17   Cl21  S    
Ba4   O4    S    
C33   C49   A    
Ba2   O17   S    
C27   H19   S    
N19   H86   S    
C48   Cl32  S    
C33   P1    S    
Ba3   O16   S    
C22   C78   A    
C37   H25   S    
N13   H73   S    
C20   Cl24  S    
C21   C77   A    
C28   C44   A    
O4    P4    D    
Ba1   O14   S    
C38   C42   A    
O2    P2    D    
C71   N15   S    
C66   O30   S    
Ba1   O41   S    
C1    Cl13  S    
C49   H29   S    
N12   H71   S    
O5    P5    S    
C29   C49   A    
O27   P16   D    
C59   C63   S    
C74   O34   S    
C6    P9    S    
C75   Cl3   S    
C26   C30   A    
O31   P3    S    
O25   P14   D    
O26   P13   D    
C16   C20   A    
C56   H44   S    
O24   P15   S    
O9    P9    S    
C9    H21   S    
C6    C10   A    
C24   P7    S    
C26   H18   S    
C5    P10   S    
C58   C62   S    
C35   C39   A    
O12   P12   S    
C3    H15   S    
C7    C79   A    
N17   H81   S    
Ba4   O15   S    
C31   C51   A    
C6    C78   A    
C46   O10   S    
C13   C17   A    
C25   C41   A    
C63   H3    S    
Ba2   O13   S    
O8    P8    S    
C76   H12   S    
C4    Cl16  S    
C15   C19   A    
N3    H53   S    
Ba2   P6    S    
C66   C70   S    
N16   H79   S    
C32   C52   A    
N5    H57   S    
C70   N14   S    
Ba2   P2    S    
C18   Cl22  S    
N12   H72   S    
N7    H61   S    
C34   C50   A    
Ba3   O3    S    
C10   H22   S    
C12   C16   A    
C73   Cl1   S    
C55   H47   S    
O38   P6    D    
C67   N3    S    
Ba3   O23   S    
N1    H49   S    
C52   H32   S    
C46   C54   S    
C25   H17   S    
Ba1   O18   S    
N11   H70   S    
Ba2   O2    S    
Ba4   P4    S    
Ba1   O21   S    
C45   Cl29  S    
N9    H66   S    
C18   C22   A    
C68   N8    S    
C31   P16   S    
C72   H8    S    
O28   P15   D    
C40   H28   S    
C30   P13   S    
C2    H14   S    
Ba4   O24   S    
O44   P12   S    
O42   P10   S    
C29   P14   S    
C54   H42   S    
C12   H24   S    
C47   O11   S    
N18   H84   S    
N13   H74   S    
N19   H85   S    
O48   P12   D    
C64   H4    S    
C1    C73   S    
C27   C31   A    
C16   C42   S    
C47   C55   S    
Ba1   O13   S    
C78   H34   S    
C23   C79   A    
C46   Cl30  S    
Ba3   Ba4   S    
C28   C32   A    
Ba1   O37   S    
N6    H60   S    
N14   H75   S    
C73   H9    S    
C3    C75   S    
C74   H10   S    
Ba3   O43   S    
Ba1   Ba2   S    
Ba4   O19   S    
C17   C21   A    
C63   Cl11  S    
Ba1   P1    S    
Ba4   O40   S    
C76   Cl4   S    
N7    H62   S    
O47   P11   D    
Ba2   O38   S    
C69   N13   S    
C67   N7    S    
C10   C14   A    
C26   C42   A    
C20   C24   A    
C58   N18   S    
C39   C43   A    
O41   P9    S    
C14   C44   S    
C62   H2    S    
C15   C41   S    
O19   P3    S    
C68   O32   S    
O1    P1    D    
C71   H7    S    
O15   P8    S    
N17   H82   S    
C68   N4    S    
O13   P6    S    
C73   O33   S    
C1    Cl25  S    
C34   P2    S    
C63   Cl7   S    
C47   Cl31  S    
N4    H56   S    
C2    Cl14  S    
C62   Cl6   S    
Ba1   P5    S    
Ba4   P8    S    
C70   N10   S    
C3    Cl27  S    
C38   H26   S    
C32   P15   S    
O37   P5    D    
N5    H58   S    
C61   H1    S    
C37   C41   A    
Ba2   O42   S    
C67   C71   S    
C48   H40   S    
C30   C50   A    
Ba3   O39   S    
C4    H16   S    
Ba2   O22   S    
O45   P9    D    
C51   H31   S    
C54   H46   S    
C62   Cl10  S    
C70   H6    S    
C50   H30   S    
C19   Cl23  S    
N1    H50   S    
N10   H68   S    
C1    H13   S    
C65   N1    S    
N20   H88   S    
C23   P8    S    
C45   H37   S    
C58   O5    S    
O29   P1    S    
N8    H63   S    
O43   P11   S    
C35   P3    S    
C74   Cl2   S    
O40   P8    D    
N15   H78   S    
C21   P6    S    
N2    H52   S    
C69   H5    S    
C9    C13   A    
C39   H27   S    
C34   C38   A    
C57   C61   S    
C7    C11   A    
C36   C40   A    
C61   Cl5   S    
N2    H51   S    
C4    Cl28  S    
O33   P14   S    
Ba4   O44   S    
C60   Cl36  S    
C4    C76   S    
C53   H45   S    
N20   H87   S    
C27   C43   A    
C59   Cl35  S    
C58   Cl34  S    
O11   P11   S    
C75   O35   S    
C75   H11   S    
Ba3   P3    S    
O39   P7    D    
C76   O36   S    
C54   Cl18  S    
C40   C44   A    
C5    C77   A    
C36   P4    S    
C60   O7    S    
Ba4   O16   S    
