data_mof_unit_62681.cif
_audit_creation_date              2012-12-10T17:04:22-0500
_audit_creation_method            fapswitch 2.2
_symmetry_space_group_name_H-M    P1
_symmetry_Int_Tables_number       1
_space_group_crystal_system       triclinic
_cell_length_a                    11.705802
_cell_length_b                    10.831385
_cell_length_c                    9.84177
_cell_angle_alpha                 109.686511
_cell_angle_beta                  98.874528
_cell_angle_gamma                 90.539205
_cell_volume                      1158.30729781

loop_
_atom_site_label
_atom_site_type_symbol
_atom_type_description
_atom_site_fract_x
_atom_site_fract_y
_atom_site_fract_z
_atom_type_partial_charge
C1    C     C_R   0.489353 0.253333 0.442854 0.771299
C2    C     C_R   0.501738 0.746610 0.556791 0.781927
C3    C     C_R   0.284100 0.499930 0.500368 0.788737
C4    C     C_R   0.715900 0.500002 0.499616 0.808094
C5    C     C_1   0.162498 0.499975 0.500947 -0.102902
C6    C     C_1   0.837524 0.499829 0.499014 -0.109161
C7    C     C_1   0.059969 0.499907 0.500469 0.047568
C8    C     C_1   0.940059 0.499821 0.499485 0.047010
C9    C     C_2   0.479603 0.112077 0.417862 -0.219765
C10   C     C_2   0.489087 0.887118 0.579696 -0.222855
C11   C     C_2   0.412522 0.063778 0.491617 -0.115127
C12   C     C_2   0.414392 0.925540 0.483086 -0.098038
C13   C     C_2   0.507759 0.513526 0.081251 0.685183
C14   C     C_2   0.488200 0.492124 0.920575 0.680655
Cu1   Cu    Cu3+1 0.519790 0.521810 0.644910 1.123606
Cu2   Cu    Cu3+1 0.480210 0.478190 0.355090 1.128232
N1    N     N_2   0.450460 0.445430 0.137370 0.042625
N2    N     N_2   0.549540 0.554570 0.862630 0.041328
O1    O     O_R   0.510560 0.332330 0.577400 -0.553820
O2    O     O_R   0.489440 0.667670 0.422600 -0.543529
O3    O     O_R   0.477140 0.295500 0.332650 -0.536825
O4    O     O_R   0.522860 0.704500 0.667350 -0.541586
O5    O     O_R   0.353910 0.518430 0.622380 -0.543273
O6    O     O_R   0.646090 0.481570 0.377620 -0.543088
O7    O     O_R   0.320490 0.481600 0.377630 -0.543986
O8    O     O_R   0.679510 0.518400 0.622370 -0.538601
C15   C     C_1   0.330742 0.834320 0.367827 0.310700
N3    N     N_1   0.263953 0.761715 0.275847 -0.232390
C16   C     C_1   0.326610 0.140428 0.568332 0.358758
N4    N     N_1   0.256633 0.200210 0.628154 -0.158883
C17   C     C_1   0.560892 0.982699 0.704647 0.330421
N5    N     N_1   0.618184 0.059177 0.804488 -0.213092
C18   C     C_1   0.549634 0.027979 0.319871 0.293436
N6    N     N_1   0.605514 0.960676 0.241555 -0.150082
F1    F     F_    0.401757 0.405108 0.831280 -0.630159
F2    F     F_    0.587559 0.608767 0.172960 -0.620968
F3    F     F_    0.636492 0.639298 0.948901 -0.508278
F4    F     F_    0.373405 0.349242 0.048358 -0.513168

loop_
_geom_bond_atom_site_label_1
_geom_bond_atom_site_label_2
_ccdc_geom_bond_type
C2    O4    A    
Cu1   N2    S    
C9    C18   S    
C11   C12   S    
C1    O3    A    
Cu2   O3    S    
Cu2   O7    S    
C14   N2    D    
C3    O5    A    
C17   N5    T    
C13   N1    D    
Cu2   O2    S    
Cu1   O5    S    
C18   N6    T    
C7    C8    S    
Cu2   O6    S    
C13   C14   S    
Cu1   O1    S    
C9    C11   D    
C16   N4    T    
C10   C12   D    
N2    F3    S    
N1    F4    S    
C4    O6    A    
C4    O8    A    
C1    O1    A    
C12   C15   S    
C2    O2    A    
Cu1   Cu2   S    
C2    C10   S    
C3    O7    A    
C1    C9    S    
C11   C16   S    
C13   F2    S    
C4    C6    S    
C15   N3    T    
C5    C7    T    
Cu1   O8    S    
C6    C8    T    
C10   C17   S    
C14   F1    S    
Cu1   O4    S    
Cu2   N1    S    
C3    C5    S    
