data_mof_unit_55849.cif
_audit_creation_date              2012-12-10T18:57:10-0500
_audit_creation_method            fapswitch 2.2
_symmetry_space_group_name_H-M    P1
_symmetry_Int_Tables_number       1
_space_group_crystal_system       triclinic
_cell_length_a                    10.657552
_cell_length_b                    9.839907
_cell_length_c                    10.718641
_cell_angle_alpha                 90.555588
_cell_angle_beta                  90.617174
_cell_angle_gamma                 90.438836
_cell_volume                      1123.90466522

loop_
_atom_site_label
_atom_site_type_symbol
_atom_type_description
_atom_site_fract_x
_atom_site_fract_y
_atom_site_fract_z
_atom_type_partial_charge
C1    C     C_R   0.260192 0.499366 0.503110 0.912541
C2    C     C_R   0.520416 0.623204 0.938391 0.070139
C3    C     C_R   0.510976 0.498105 0.128644 -0.097842
C4    C     C_R   0.517078 0.501034 0.871711 -0.124778
C5    C     C_R   0.530888 0.376202 0.063549 -0.240252
C6    C     C_R   0.531426 0.377335 0.934624 -0.233914
C7    C     C_3   0.443508 0.750600 0.928474 -0.129853
C8    C     C_3   0.424665 0.741351 0.069750 -0.134765
C9    C     C_R   0.065344 0.410125 0.590364 0.137681
C10   C     C_R   0.934756 0.414144 0.593439 0.163439
C11   C     C_R   0.872224 0.501973 0.511289 -0.078026
C12   C     C_R   0.739826 0.500483 0.503394 0.912101
C13   C     C_R   0.127815 0.498290 0.508781 -0.080191
C14   C     C_R   0.935966 0.591499 0.434339 -0.252011
C15   C     C_R   0.064155 0.590444 0.433980 -0.253142
C16   C     C_3   0.517860 0.878614 0.888789 -0.393610
C17   C     C_3   0.656947 0.881929 0.930321 -0.315164
C18   C     C_3   0.717604 0.019803 0.905558 -0.925476
C19   C     C_3   0.286476 0.715501 0.107805 -0.412932
C20   C     C_3   0.225614 0.582253 0.058186 -0.304020
C21   C     C_3   0.082763 0.587341 0.064851 -0.921840
C22   C     C_3   0.156005 0.188892 0.635925 -0.748904
C23   C     C_R   0.596534 0.073361 0.553851 -0.077371
C24   C     C_3   0.833048 0.404840 0.792967 -0.803133
C25   C     C_R   0.404646 0.070524 0.444013 -0.095686
C26   C     C_R   0.596893 0.929507 0.553281 -0.106233
C27   C     C_R   0.404280 0.926695 0.444595 -0.076912
C28   C     C_R   0.499977 0.499312 0.260061 0.873909
C29   C     C_R   0.502202 0.500572 0.740063 0.883008
C30   C     C_R   0.509059 0.620005 0.064841 0.082572
H1    H     H_    0.538523 0.279862 0.111005 0.172781
H2    H     H_    0.327637 0.871273 0.400366 0.118526
H3    H     H_    0.708794 0.045861 0.805510 0.257446
H4    H     H_    0.672515 0.099754 0.962992 0.260081
H5    H     H_    0.818809 0.016579 0.930953 0.252318
H6    H     H_    0.665952 0.861123 0.031634 0.219647
H7    H     H_    0.709259 0.802536 0.878355 0.221283
H8    H     H_    0.513123 0.884765 0.785739 0.219042
H9    H     H_    0.469210 0.969651 0.926229 0.198017
H10   H     H_    0.052416 0.611184 0.161137 0.266930
H11   H     H_    0.045810 0.665713 0.000542 0.260747
H12   H     H_    0.537097 0.281320 0.884859 0.178159
H13   H     H_    0.042620 0.487040 0.036889 0.249397
H14   H     H_    0.251245 0.561515 0.959873 0.219857
H15   H     H_    0.258165 0.495671 0.115370 0.217392
H16   H     H_    0.281761 0.715853 0.211260 0.198135
H17   H     H_    0.230867 0.803710 0.075135 0.204336
H18   H     H_    0.108756 0.337098 0.767631 0.221895
H19   H     H_    0.092256 0.118477 0.685601 0.205736
H20   H     H_    0.254140 0.161323 0.659482 0.257188
H21   H     H_    0.141173 0.175238 0.533690 0.236637
H22   H     H_    0.902612 0.238883 0.696033 0.230644
H23   H     H_    0.356398 0.736219 0.871667 0.161333
H24   H     H_    0.918841 0.437524 0.844974 0.228048
H25   H     H_    0.777801 0.336171 0.853130 0.250509
H26   H     H_    0.775841 0.495612 0.771378 0.238699
H27   H     H_    0.468006 0.826848 0.123951 0.159517
H28   H     H_    0.886371 0.660013 0.372760 0.163708
H29   H     H_    0.113916 0.659782 0.373718 0.154845
H30   H     H_    0.673666 0.129015 0.596851 0.141205
H31   H     H_    0.328631 0.123809 0.398796 0.127585
H32   H     H_    0.674060 0.876252 0.596651 0.139422
N1    N     N_R   0.500000 0.857200 0.500000 -0.079204
N2    N     N_R   0.500000 0.142810 0.500000 -0.077949
N3    N     N_2   0.134330 0.327917 0.675479 -0.308650
N4    N     N_2   0.866065 0.333655 0.679489 -0.307373
O1    O     O_R   0.316770 0.614620 0.499990 -0.638838
O2    O     O_R   0.683230 0.614620 0.500010 -0.634729
O3    O     O_R   0.316800 0.385290 0.500000 -0.602455
O4    O     O_R   0.683200 0.385290 0.500000 -0.602109
O5    O     O_R   0.500000 0.614690 0.316780 -0.623417
O6    O     O_R   0.500000 0.614690 0.683220 -0.627480
O7    O     O_R   0.500020 0.385360 0.316780 -0.626288
O8    O     O_R   0.499980 0.385360 0.683220 -0.609873
Zn1   Zn    Zn3+2 0.500000 0.653120 0.500000 0.927877
Zn2   Zn    Zn3+2 0.500000 0.346880 0.500000 0.950086

loop_
_geom_bond_atom_site_label_1
_geom_bond_atom_site_label_2
_ccdc_geom_bond_type
C25   H31   S    
C3    C30   A    
C2    C4    A    
C26   N1    A    
C22   N3    S    
C25   C27   A    
C17   H6    S    
C8    H27   S    
C24   H26   S    
C18   H4    S    
C9    C10   A    
C4    C29   S    
C24   N4    S    
C2    C30   A    
C29   O6    A    
C8    C30   S    
C10   N4    S    
C17   C18   S    
N2    Zn2   S    
C19   H16   S    
H22   N4    S    
C7    C8    S    
C17   H7    S    
C20   C21   S    
C24   H25   S    
O5    Zn1   S    
C12   O2    A    
C16   H9    S    
C23   H30   S    
C21   H10   S    
C27   N1    A    
O6    Zn1   S    
C21   H11   S    
C28   O7    A    
C23   N2    A    
C1    O1    A    
C5    H1    S    
C19   H17   S    
C13   C15   A    
C26   H32   S    
C5    C6    A    
C14   H28   S    
C18   H3    S    
C9    N3    S    
C23   C26   A    
C28   O5    A    
C1    C13   S    
C10   C11   A    
O8    Zn2   S    
O4    Zn2   S    
C24   H24   S    
C8    C19   S    
C3    C5    A    
C22   H20   S    
C1    O3    A    
O1    Zn1   S    
O7    Zn2   S    
N1    Zn1   S    
O3    Zn2   S    
C4    C6    A    
C18   H5    S    
C20   H15   S    
C22   H19   S    
C11   C14   A    
C9    C13   A    
C14   C15   A    
C3    C28   S    
C12   O4    A    
C29   O8    A    
C7    H23   S    
C2    C7    S    
C20   H14   S    
C27   H2    S    
C21   H13   S    
H18   N3    S    
C15   H29   S    
C22   H21   S    
C7    C16   S    
C19   C20   S    
C11   C12   S    
C16   H8    S    
C16   C17   S    
O2    Zn1   S    
C25   N2    A    
C6    H12   S    
