data_mof_unit_16529.cif
_audit_creation_date              2012-12-10T20:27:15-0500
_audit_creation_method            fapswitch 2.2
_symmetry_space_group_name_H-M    P1
_symmetry_Int_Tables_number       1
_space_group_crystal_system       triclinic
_cell_length_a                    10.612131
_cell_length_b                    10.688978
_cell_length_c                    9.899214
_cell_angle_alpha                 90.207972
_cell_angle_beta                  103.186633
_cell_angle_gamma                 90.905041
_cell_volume                      1093.12099127

loop_
_atom_site_label
_atom_site_type_symbol
_atom_type_description
_atom_site_fract_x
_atom_site_fract_y
_atom_site_fract_z
_atom_type_partial_charge
C1    C     C_R   0.501726 0.260182 0.500332 0.871288
C2    C     C_R   0.586037 0.571016 0.094654 -0.110391
C3    C     C_R   0.587617 0.570875 0.952007 0.131020
C4    C     C_R   0.257691 0.495836 0.442624 0.877731
C5    C     C_R   0.422119 0.418300 0.909601 0.187630
C6    C     C_3   0.278243 0.411437 0.869959 -0.540141
C7    C     C_3   0.278084 0.412431 0.022986 -0.500320
C8    C     C_R   0.503671 0.739706 0.501170 0.894409
C9    C     C_R   0.741637 0.495004 0.556912 0.951795
C10   C     C_2   0.118046 0.475709 0.411863 -0.076853
C11   C     C_2   0.068167 0.413615 0.505530 -0.231266
C12   C     C_R   0.515312 0.128656 0.504964 -0.081971
C13   C     C_2   0.880051 0.478020 0.585998 -0.094989
C14   C     C_2   0.930172 0.408006 0.497462 0.138507
C15   C     C_R   0.491885 0.063658 0.618540 0.018404
C16   C     C_R   0.559443 0.065323 0.400827 -0.220596
C17   C     C_R   0.560930 0.935787 0.401596 -0.227822
C18   C     C_R   0.519190 0.871393 0.507108 -0.115277
C19   C     C_R   0.495942 0.936114 0.620890 0.052962
C20   C     C_3   0.388194 0.925097 0.696596 0.220379
C21   C     C_3   0.382082 0.068747 0.691657 -0.192691
C22   C     C_R   0.421850 0.418727 0.051832 0.210548
H1    H     H_    0.242264 0.321072 0.818828 0.196169
H2    H     H_    0.235736 0.498528 0.056291 0.214642
H3    H     H_    0.241985 0.323225 0.058911 0.197016
H4    H     H_    0.129718 0.378569 0.599542 0.141432
H5    H     H_    0.025650 0.600853 0.670147 0.200588
H6    H     H_    0.009312 0.475383 0.770754 0.194570
H7    H     H_    0.055311 0.620659 0.285592 0.180399
H8    H     H_    0.065108 0.483966 0.202836 0.185101
H9    H     H_    0.588085 0.886657 0.316875 0.166537
H10   H     H_    0.193899 0.880775 0.658667 0.194563
H11   H     H_    0.252818 0.880172 0.513808 0.166953
H12   H     H_    0.586418 0.114896 0.316109 0.168707
H13   H     H_    0.517233 0.922713 0.888377 0.159882
H14   H     H_    0.362072 0.893297 0.892290 0.178422
H15   H     H_    0.269119 0.214511 0.609238 0.195432
H16   H     H_    0.252977 0.092409 0.500909 0.187358
H17   H     H_    0.883522 0.237170 0.410162 0.171585
H18   H     H_    0.858796 0.356298 0.296187 0.214781
H19   H     H_    0.410008 0.115719 0.794972 0.157208
H20   H     H_    0.654061 0.629652 0.166855 0.158429
H21   H     H_    0.642774 0.706447 0.832624 0.236473
H22   H     H_    0.751425 0.588601 0.881105 0.222476
H23   H     H_    0.236546 0.496928 0.814969 0.222706
N1    N     N_R   0.499160 0.499140 0.142600 -0.125110
N2    N     N_R   0.499160 0.499180 0.856960 -0.115475
N3    N     N_3   0.849340 0.328379 0.394431 -0.436565
N4    N     N_3   0.684904 0.646487 0.911973 -0.475178
N5    N     N_3   0.959165 0.542317 0.703639 -0.497164
N6    N     N_3   0.037131 0.524355 0.287508 -0.455872
N7    N     N_3   0.273326 0.856237 0.618778 -0.419881
N8    N     N_3   0.432782 0.875273 0.836822 -0.430634
N9    N     N_3   0.261898 0.117124 0.605044 -0.468188
O1    O     O_R   0.500020 0.316790 0.614700 -0.621131
O2    O     O_R   0.500000 0.316760 0.385350 -0.617529
O3    O     O_R   0.317820 0.500020 0.571850 -0.610830
O4    O     O_R   0.317800 0.499980 0.342510 -0.613333
O5    O     O_R   0.500000 0.683240 0.614650 -0.602998
O6    O     O_R   0.499980 0.683210 0.385300 -0.624884
O7    O     O_R   0.682200 0.500020 0.657490 -0.630540
O8    O     O_R   0.682180 0.499980 0.428150 -0.604209
Zn1   Zn    Zn3+2 0.500010 0.500020 0.653140 0.938314
Zn2   Zn    Zn3+2 0.499990 0.499980 0.346860 0.937425

loop_
_geom_bond_atom_site_label_1
_geom_bond_atom_site_label_2
_ccdc_geom_bond_type
H22   N4    S    
C4    O3    A    
C14   N3    S    
H8    N6    S    
O2    Zn2   S    
O3    Zn1   S    
C6    C7    S    
C6    H23   S    
C7    H2    S    
H13   N8    S    
C7    C22   S    
O5    Zn1   S    
C19   C20   S    
H16   N9    S    
C12   C15   A    
O6    Zn2   S    
C8    C18   S    
C2    C3    A    
C1    O1    A    
C20   N7    S    
O1    Zn1   S    
C13   C14   D    
C8    O6    A    
H11   N7    S    
C15   C19   A    
C5    N2    A    
C5    C6    S    
C1    C12   S    
C2    H20   S    
C21   H19   S    
H15   N9    S    
C3    N2    A    
C22   N1    A    
C1    O2    A    
C17   C18   A    
C8    O5    A    
O4    Zn2   S    
C21   N9    S    
C17   H9    S    
C11   C14   S    
C9    O7    A    
C16   C17   A    
C10   C11   D    
C10   N6    S    
C4    C10   S    
C9    O8    A    
C3    N4    S    
H10   N7    S    
C15   C21   S    
C20   C21   S    
H5    N5    S    
O7    Zn1   S    
C18   C19   A    
H7    N6    S    
C4    O4    A    
H18   N3    S    
C9    C13   S    
H21   N4    S    
O8    Zn2   S    
H14   N8    S    
C12   C16   A    
C11   H4    S    
C16   H12   S    
C6    H1    S    
H6    N5    S    
C2    N1    A    
C5    C22   A    
C13   N5    S    
N2    Zn1   S    
N1    Zn2   S    
C20   N8    S    
H17   N3    S    
C7    H3    S    
