data_mof_unit_60201.cif
_audit_creation_date              2012-10-26T17:21:01-0400
_audit_creation_method            fapswitch 2.2
_symmetry_space_group_name_H-M    P1
_symmetry_Int_Tables_number       1
_space_group_crystal_system       triclinic
_cell_length_a                    18.841694
_cell_length_b                    18.776953
_cell_length_c                    18.746522
_cell_angle_alpha                 109.366591
_cell_angle_beta                  109.359874
_cell_angle_gamma                 109.390093
_cell_volume                      5124.20042134

loop_
_atom_site_label
_atom_site_type_symbol
_atom_type_description
_atom_site_fract_x
_atom_site_fract_y
_atom_site_fract_z
_atom_type_partial_charge
C1    C     C_R   0.118930 0.118798 0.500151 0.591797
C2    C     C_R   0.325762 0.320845 0.584044 0.019588
C3    C     C_R   0.261848 0.253457 0.582167 -0.000536
C4    C     C_R   0.121283 0.002365 0.618680 0.553029
C5    C     C_R   0.186627 0.186391 0.501392 -0.051245
C6    C     C_R   0.738059 0.913786 0.241575 0.028199
C7    C     C_R   0.674067 0.913652 0.175450 0.028477
C8    C     C_R   0.684329 0.994070 0.181475 -0.012319
C9    C     C_R   0.756163 0.072515 0.252291 -0.159682
C10   C     C_R   0.817432 0.072659 0.318356 -0.128441
C11   C     C_R   0.809453 0.994287 0.313356 0.014543
C12   C     C_R   0.262404 0.002377 0.674643 0.046439
C13   C     C_R   0.812353 0.740190 0.489612 -0.161488
C14   C     C_R   0.751196 0.678486 0.493929 -0.155504
C15   C     C_R   0.684461 0.689751 0.502923 -0.013820
C16   C     C_R   0.879242 0.881307 0.498374 0.581226
C17   C     C_R   0.678894 0.764664 0.508993 0.029244
C18   C     C_R   0.741605 0.828027 0.505207 0.038526
C19   C     C_R   0.808916 0.815164 0.496079 -0.012845
C20   C     C_R   0.501995 0.881363 0.882990 0.591023
C21   C     C_R   0.381524 0.998114 0.879100 0.526557
C22   C     C_R   0.499865 0.118849 0.118897 0.538085
C23   C     C_R   0.191852 0.005151 0.684807 0.029151
C24   C     C_R   0.618516 0.998169 0.117348 0.597449
C25   C     C_R   0.499886 0.618781 0.618939 0.601425
C26   C     C_R   0.381457 0.382839 0.501925 0.565960
C27   C     C_R   0.499961 0.381158 0.381172 0.535847
C28   C     C_R   0.879393 0.998093 0.381052 0.624024
C29   C     C_R   0.618512 0.620043 0.501001 0.566879
C30   C     C_R   0.583783 0.820687 0.824602 0.049099
C31   C     C_R   0.580558 0.755355 0.757948 -0.092915
C32   C     C_R   0.501122 0.686447 0.686079 0.034823
C33   C     C_R   0.423532 0.681650 0.679509 -0.114153
C34   C     C_R   0.185315 0.005191 0.756911 -0.145204
C35   C     C_R   0.425262 0.744945 0.745771 -0.157132
C36   C     C_R   0.504571 0.814728 0.818069 0.003700
C37   C     C_R   0.500528 0.257791 0.178547 -0.124301
C38   C     C_R   0.499120 0.321214 0.241953 -0.125062
C39   C     C_R   0.499871 0.314148 0.314215 0.028003
C40   C     C_R   0.274807 0.008706 0.606061 -0.060535
C41   C     C_R   0.500456 0.242748 0.322167 -0.122712
C42   C     C_R   0.498841 0.177811 0.257243 -0.124917
C43   C     C_R   0.499662 0.185666 0.185763 0.026081
C44   C     C_R   0.341966 0.001057 0.594876 -0.109869
C45   C     C_R   0.246679 0.000824 0.818427 -0.143990
C46   C     C_R   0.397928 0.987023 0.651368 -0.111128
C47   C     C_R   0.388961 0.983631 0.721215 -0.097063
C48   C     C_R   0.323253 0.994405 0.735808 0.024032
C49   C     C_2   0.273226 0.254006 0.664822 0.629128
C50   C     C_2   0.730516 0.830238 0.235304 0.628453
C51   C     C_2   0.596739 0.829939 0.101110 0.633633
C52   C     C_2   0.608050 0.776680 0.519414 0.626731
C53   C     C_2   0.736969 0.907360 0.511725 0.638023
C54   C     C_2   0.670374 0.891511 0.900155 0.604068
C55   C     C_2   0.095310 0.122098 0.337138 0.591059
C56   C     C_R   0.315718 0.996045 0.808995 0.005750
C57   C     C_2   0.402811 0.394124 0.668582 0.636365
C58   C     C_R   0.175439 0.186413 0.422951 0.015437
C59   C     C_R   0.240801 0.251696 0.425870 -0.154886
C60   C     C_R   0.315060 0.318122 0.504779 -0.050488
Cu1   Cu    Cu3+1 0.999980 0.061790 0.561790 1.048966
Cu2   Cu    Cu3+1 0.000020 0.938210 0.438210 1.024362
Cu3   Cu    Cu3+1 0.438200 0.938230 0.000040 1.005567
Cu4   Cu    Cu3+1 0.561800 0.061850 0.000040 0.996782
Cu5   Cu    Cu3+1 0.438190 0.500100 0.438300 1.010904
Cu6   Cu    Cu3+1 0.561810 0.500080 0.561880 1.016571
H1    H     H_    0.863898 0.730288 0.483213 0.140301
H2    H     H_    0.131527 0.007243 0.764958 0.138095
H3    H     H_    0.296213 0.319954 0.786927 0.348575
H4    H     H_    0.730313 0.756631 0.292912 0.340871
H5    H     H_    0.520082 0.753062 0.970909 0.346826
H6    H     H_    0.763761 0.134141 0.257514 0.138482
H7    H     H_    0.872604 0.134285 0.372700 0.149006
H8    H     H_    0.512549 0.804376 0.478447 0.341923
H9    H     H_    0.726832 0.009537 0.577518 0.342667
H10   H     H_    0.743685 0.976065 0.029390 0.343073
H11   H     H_    0.234034 0.020967 0.561234 0.158076
H12   H     H_    0.755015 0.620768 0.488649 0.136327
H13   H     H_    0.498982 0.376428 0.235517 0.133022
H14   H     H_    0.498524 0.122368 0.263444 0.131625
H15   H     H_    0.433289 0.971387 0.762580 0.136808
H16   H     H_    0.240829 0.002249 0.874424 0.140052
H17   H     H_    0.042089 0.054764 0.206569 0.352763
H18   H     H_    0.233458 0.251570 0.365930 0.178954
H19   H     H_    0.503437 0.432132 0.782435 0.350948
H20   H     H_    0.640154 0.757781 0.761945 0.168786
H21   H     H_    0.361770 0.628185 0.623958 0.140060
H22   H     H_    0.364506 0.740391 0.739862 0.132524
H23   H     H_    0.500837 0.264150 0.123264 0.134298
H24   H     H_    0.500672 0.236665 0.377718 0.130893
H25   H     H_    0.350230 0.005442 0.541742 0.127037
H26   H     H_    0.448950 0.979378 0.641439 0.133866
O1    O     O_R   0.090150 0.142360 0.552170 -0.494739
O2    O     O_R   0.552200 0.590240 0.642450 -0.490107
O3    O     O_R   0.357640 0.409920 0.447920 -0.516430
O4    O     O_R   0.090180 0.037990 0.447810 -0.497104
O5    O     O_R   0.462030 0.409900 0.552280 -0.487173
O6    O     O_R   0.447800 0.409940 0.357730 -0.511393
O7    O     O_R   0.552190 0.409920 0.462090 -0.518213
O8    O     O_R   0.537970 0.590270 0.447900 -0.491549
O9    O     O_R   0.642360 0.590260 0.552260 -0.510939
O10   O     O_R   0.090170 0.052200 0.642360 -0.495319
O11   O     O_R   0.090200 0.947840 0.538010 -0.540288
O12   O     O_R   0.552230 0.962090 0.909900 -0.491771
O13   O     O_R   0.909820 0.962010 0.552190 -0.495746
O14   O     O_R   0.909850 0.857640 0.447830 -0.509208
O15   O     O_R   0.909800 0.052160 0.461990 -0.496439
O16   O     O_R   0.909830 0.947800 0.357640 -0.470599
O17   O     O_R   0.447850 0.857690 0.909890 -0.498894
O18   O     O_2   0.268542 0.190448 0.671951 -0.526800
O19   O     O_R   0.289504 0.327397 0.734340 -0.655022
O20   O     O_2   0.718603 0.774083 0.168997 -0.475233
O21   O     O_R   0.736802 0.815889 0.305086 -0.650397
O22   O     O_2   0.553411 0.776859 0.114859 -0.471140
O23   O     O_R   0.357630 0.947820 0.909860 -0.515018
O24   O     O_R   0.573716 0.811917 0.015659 -0.640949
O25   O     O_2   0.593323 0.768338 0.575819 -0.512636
O26   O     O_R   0.558475 0.797684 0.464789 -0.656235
O27   O     O_2   0.739366 0.928662 0.457243 -0.461270
O28   O     O_R   0.729661 0.957450 0.580233 -0.666702
O29   O     O_2   0.733073 0.914884 0.889557 -0.501008
O30   O     O_R   0.681469 0.929661 0.983718 -0.637930
O31   O     O_2   0.024460 0.092503 0.332405 -0.514609
O32   O     O_R   0.100776 0.097943 0.260924 -0.692992
O33   O     O_2   0.421976 0.469204 0.686718 -0.498698
O34   O     O_R   0.462000 0.052220 0.909860 -0.515357
O35   O     O_R   0.453064 0.377054 0.727285 -0.661155
O36   O     O_R   0.447770 0.037990 0.090190 -0.510702
O37   O     O_R   0.552150 0.142390 0.090190 -0.513461
O38   O     O_R   0.538000 0.947860 0.090220 -0.488140
O39   O     O_R   0.642370 0.052260 0.090230 -0.492975
O40   O     O_R   0.447810 0.590260 0.538090 -0.496292

loop_
_geom_bond_atom_site_label_1
_geom_bond_atom_site_label_2
_ccdc_geom_bond_type
C27   O6    A    
C42   H14   S    
Cu2   O4    S    
C41   C42   A    
C45   H16   S    
C9    H6    S    
C21   O23   A    
C3    C49   S    
C53   O28   S    
C7    C8    A    
C39   C41   A    
C30   C54   S    
C12   C23   A    
C27   O7    A    
C5    C58   A    
C1    C5    S    
Cu6   O5    S    
Cu5   O6    S    
C1    O4    A    
C57   O33   D    
C30   C31   A    
C10   H7    S    
Cu1   O1    S    
C46   H26   S    
C38   H13   S    
C28   O15   A    
C4    O11   A    
C15   C17   A    
C18   C19   A    
Cu3   O38   S    
C18   C53   S    
C8    C24   S    
C55   O32   S    
C47   C48   A    
C45   C56   A    
C27   C39   S    
C8    C9    A    
C4    O10   A    
H17   O32   S    
Cu1   O13   S    
C9    C10   A    
C40   C44   A    
Cu3   O36   S    
C16   O14   A    
Cu6   O2    S    
Cu3   O23   S    
C52   O25   D    
C25   C32   S    
C47   H15   S    
C41   H24   S    
C54   O30   S    
C59   C60   A    
C31   H20   S    
C13   C14   A    
Cu6   O9    S    
C17   C52   S    
C44   C46   A    
C15   C29   S    
H4    O21   S    
H8    O26   S    
C55   O31   D    
C2    C57   S    
C51   O22   D    
C13   C19   A    
C59   H18   S    
C34   H2    S    
C6    C11   A    
C4    C23   S    
C58   C59   A    
Cu3   Cu4   S    
C35   C36   A    
Cu6   O7    S    
C12   C40   A    
C30   C36   A    
C37   C38   A    
C35   H22   S    
C22   O36   A    
C22   C43   S    
Cu4   O39   S    
Cu5   O3    S    
C23   C34   A    
C50   O20   D    
C17   C18   A    
C29   O9    A    
C34   C45   A    
C6    C50   S    
C44   H25   S    
C16   O13   A    
Cu2   O14   S    
C54   O29   D    
Cu4   O34   S    
C22   O37   A    
C37   C43   A    
H19   O35   S    
C42   C43   A    
Cu5   O40   S    
Cu2   O11   S    
C13   H1    S    
C26   O3    A    
C48   C56   A    
C46   C47   A    
C29   O8    A    
C14   C15   A    
C31   C32   A    
Cu4   O12   S    
H9    O28   S    
Cu5   O8    S    
C3    C5    A    
C57   O35   S    
C21   C56   S    
C53   O27   D    
C6    C7    A    
C20   O12   A    
C37   H23   S    
C51   O24   S    
C49   O19   S    
C50   O21   S    
H10   O30   S    
C32   C33   A    
Cu1   O10   S    
C33   H21   S    
C7    C51   S    
H3    O19   S    
C24   O39   A    
C38   C39   A    
C11   C28   S    
C28   O16   A    
C16   C19   S    
C33   C35   A    
C12   C48   A    
H5    O24   S    
C2    C3    A    
C2    C60   A    
C14   H12   S    
Cu1   Cu2   S    
Cu1   O15   S    
C10   C11   A    
C26   O5    A    
C20   O17   A    
C20   C36   S    
C24   O38   A    
C25   O2    A    
Cu2   O16   S    
Cu4   O37   S    
C1    O1    A    
Cu5   Cu6   S    
C55   C58   S    
C40   H11   S    
C49   O18   D    
C21   O34   A    
C25   O40   A    
C26   C60   S    
Cu3   O17   S    
C52   O26   S    
