data_mof_unit_22665.cif
_audit_creation_date              2012-12-11T14:45:27-0500
_audit_creation_method            fapswitch 2.2
_symmetry_space_group_name_H-M    P1
_symmetry_Int_Tables_number       1
_space_group_crystal_system       triclinic
_cell_length_a                    24.946481
_cell_length_b                    7.177079
_cell_length_c                    14.366225
_cell_angle_alpha                 90.001856
_cell_angle_beta                  102.907274
_cell_angle_gamma                 89.998979
_cell_volume                      2507.17865662

loop_
_atom_site_label
_atom_site_type_symbol
_atom_type_description
_atom_site_fract_x
_atom_site_fract_y
_atom_site_fract_z
_atom_type_partial_charge
O1    O     O_R   0.319150 0.364170 0.330530 -0.516261
O2    O     O_R   0.680850 0.635830 0.669470 -0.516257
O3    O     O_R   0.180850 0.864170 0.169470 -0.516266
O4    O     O_R   0.819150 0.135830 0.830530 -0.516268
O5    O     O_R   0.210330 0.696850 0.354180 -0.535569
O6    O     O_R   0.789670 0.303150 0.645820 -0.535562
O7    O     O_R   0.289670 0.196850 0.145820 -0.535572
O8    O     O_R   0.710330 0.803150 0.854180 -0.535578
C1    C     C_R   0.197327 0.525478 0.378295 0.715607
C2    C     C_R   0.802673 0.474521 0.621704 0.715629
C3    C     C_R   0.302674 0.025473 0.121705 0.715579
C4    C     C_R   0.697326 0.974528 0.878294 0.715568
O9    O     O_R   0.320550 0.694110 0.341970 -0.548659
O10   O     O_R   0.679450 0.305890 0.658030 -0.548659
O11   O     O_R   0.179450 0.194110 0.158030 -0.548657
O12   O     O_R   0.820550 0.805890 0.841970 -0.548655
O13   O     O_R   0.291860 0.861000 0.157170 -0.542675
O14   O     O_R   0.708140 0.139000 0.842830 -0.542675
O15   O     O_R   0.208140 0.361000 0.342830 -0.542674
O16   O     O_R   0.791860 0.639000 0.657170 -0.542677
C5    C     C_R   0.341840 0.526348 0.362082 0.717855
C6    C     C_R   0.658160 0.473651 0.637919 0.717862
C7    C     C_R   0.158160 0.026347 0.137919 0.717819
C8    C     C_R   0.841840 0.973653 0.862082 0.717794
O17   O     O_3   0.240460 0.529330 0.189380 -0.378283
O18   O     O_3   0.759540 0.470670 0.810620 -0.378288
O19   O     O_3   0.259540 0.029330 0.310620 -0.378276
O20   O     O_3   0.740460 0.970670 0.689380 -0.378271
V1    V     V_3+5 0.251770 0.805510 0.261240 1.455506
V2    V     V_3+5 0.748230 0.194490 0.738760 1.455512
V3    V     V_3+5 0.248230 0.305510 0.238760 1.455489
V4    V     V_3+5 0.751770 0.694490 0.761240 1.455471
C9    C     C_R   0.102528 0.025237 0.074790 -0.130006
C10   C     C_R   0.897471 0.974763 0.925211 -0.129973
C11   C     C_R   0.397471 0.525241 0.425211 -0.130033
C12   C     C_R   0.602528 0.474758 0.574791 -0.130057
C13   C     C_R   0.960963 0.841164 0.062515 -0.152434
C14   C     C_R   0.039037 0.158837 0.937487 -0.152401
C15   C     C_R   0.539036 0.341142 0.437489 -0.152332
C16   C     C_R   0.460963 0.658853 0.562515 -0.152351
C17   C     C_R   0.908064 0.858220 0.005632 -0.252790
C18   C     C_R   0.091935 0.141779 0.994369 -0.252737
C19   C     C_R   0.591934 0.358200 0.494372 -0.252582
C20   C     C_R   0.408065 0.641794 0.505632 -0.252647
C21   C     C_R   0.941312 0.073150 0.900472 0.420426
C22   C     C_R   0.058687 0.926852 0.099531 0.420430
C23   C     C_R   0.558687 0.573151 0.599531 0.420436
C24   C     C_R   0.441312 0.426850 0.400470 0.420437
C25   C     C_R   0.995015 0.058928 0.959262 -0.000679
C26   C     C_R   0.004985 0.941074 0.040740 -0.000660
C27   C     C_R   0.504984 0.558931 0.540741 -0.000694
C28   C     C_R   0.495014 0.441066 0.459262 -0.000714
H1    H     H_    0.124930 0.221538 0.975800 0.142590
H2    H     H_    0.875070 0.778460 0.024201 0.142532
H3    H     H_    0.375070 0.721562 0.524201 0.142669
H4    H     H_    0.624928 0.278430 0.475804 0.142721
H5    H     H_    0.967191 0.748754 0.123600 0.166042
H6    H     H_    0.032808 0.251247 0.876403 0.166055
H7    H     H_    0.532807 0.248719 0.376407 0.166059
H8    H     H_    0.467191 0.751273 0.623598 0.166049
C29   C     C_R   0.664986 0.981122 0.951344 -0.086993
C30   C     C_R   0.335016 0.018890 0.048659 -0.087045
C31   C     C_R   0.835014 0.481069 0.548659 -0.087220
C32   C     C_R   0.164987 0.518913 0.451342 -0.087144
C33   C     C_R   0.658828 0.949646 0.116502 0.453533
C34   C     C_R   0.341178 0.050421 0.883512 0.453602
C35   C     C_R   0.841191 0.449101 0.383559 0.453903
C36   C     C_R   0.158816 0.550712 0.616460 0.453796
C37   C     C_R   0.690116 0.949968 0.046786 -0.261128
C38   C     C_R   0.309887 0.050036 0.953215 -0.261146
C39   C     C_R   0.809895 0.449694 0.453230 -0.261150
C40   C     C_R   0.190109 0.550217 0.546775 -0.261132
C41   C     C_R   0.608212 0.006615 0.923833 -0.238088
C42   C     C_R   0.391793 0.993446 0.076174 -0.238084
C43   C     C_R   0.891789 0.506619 0.576167 -0.238032
C44   C     C_R   0.108213 0.493353 0.423834 -0.238049
C45   C     C_R   0.574574 0.994531 0.990965 0.016318
C46   C     C_R   0.425432 0.005564 0.009046 0.016358
C47   C     C_R   0.925433 0.494389 0.509046 0.016409
C48   C     C_R   0.074572 0.505491 0.490960 0.016365
C49   C     C_R   0.600981 0.967022 0.088524 0.051859
C50   C     C_R   0.399026 0.033076 0.911487 0.051781
C51   C     C_R   0.899035 0.466578 0.411507 0.051555
C52   C     C_R   0.100971 0.533244 0.588503 0.051644
C53   C     C_R   0.515760 0.006567 0.964202 0.090880
C54   C     C_R   0.484246 0.993553 0.035810 0.090875
C55   C     C_R   0.984244 0.506530 0.535803 0.090871
C56   C     C_R   0.015761 0.493312 0.464205 0.090883
C57   C     C_R   0.512614 0.970720 0.131919 -0.223749
C58   C     C_R   0.487392 0.029425 0.868094 -0.223673
C59   C     C_R   0.987399 0.470083 0.368117 -0.223447
C60   C     C_R   0.012607 0.529691 0.631894 -0.223561
C61   C     C_R   0.569433 0.957298 0.157285 -0.177327
C62   C     C_R   0.430574 0.042840 0.842727 -0.177516
C63   C     C_R   0.930582 0.456572 0.342758 -0.178056
C64   C     C_R   0.069423 0.543180 0.657256 -0.177831
H9    H     H_    0.588675 0.938807 0.232160 0.168152
H10   H     H_    0.411330 0.061353 0.767855 0.168115
H11   H     H_    0.911339 0.437768 0.267905 0.168006
H12   H     H_    0.088666 0.561917 0.732114 0.168053
H13   H     H_    0.408186 0.969804 0.151123 0.129525
H14   H     H_    0.591818 0.030255 0.848884 0.129514
H15   H     H_    0.091823 0.469651 0.348888 0.129501
H16   H     H_    0.908178 0.530401 0.651106 0.129496
H17   H     H_    0.265962 0.074729 0.932934 0.111252
H18   H     H_    0.734036 0.925190 0.067043 0.111103
H19   H     H_    0.234034 0.574916 0.567080 0.111498
H20   H     H_    0.765967 0.425045 0.432905 0.111692
H21   H     H_    0.492310 0.962605 0.190424 0.136031
H22   H     H_    0.507696 0.037571 0.809590 0.136012
H23   H     H_    0.007707 0.461675 0.309626 0.135929
H24   H     H_    0.992299 0.538026 0.690388 0.135962
O21   O     O_3   0.068360 0.816468 0.180649 -0.559228
C65   C     C_3   0.061569 0.926671 0.258613 -0.264760
H25   H     H_    0.019286 0.985376 0.246858 0.135883
H26   H     H_    0.092463 0.040860 0.273642 0.131502
H27   H     H_    0.067906 0.837413 0.323120 0.174498
O22   O     O_3   0.931639 0.183547 0.819358 -0.559231
C66   C     C_3   0.938426 0.073356 0.741388 -0.264766
H28   H     H_    0.907517 0.959219 0.726335 0.131525
H29   H     H_    0.980702 0.014584 0.753151 0.135892
H30   H     H_    0.932110 0.162639 0.676893 0.174496
O23   O     O_3   0.431639 0.316473 0.319346 -0.559251
C67   C     C_3   0.438437 0.426679 0.241391 -0.264802
H31   H     H_    0.480733 0.485277 0.253140 0.136006
H32   H     H_    0.407566 0.540942 0.226395 0.131499
H33   H     H_    0.432071 0.337451 0.176868 0.174495
O24   O     O_3   0.568361 0.683540 0.680651 -0.559245
C68   C     C_3   0.561567 0.573345 0.758612 -0.264794
H34   H     H_    0.592446 0.459107 0.773620 0.131504
H35   H     H_    0.519276 0.514711 0.746865 0.135973
H36   H     H_    0.567925 0.662590 0.823128 0.174494
O25   O     O_3   0.683889 0.914841 0.211083 -0.575140
C69   C     C_3   0.716734 0.069142 0.248593 -0.260506
H37   H     H_    0.692937 0.201776 0.237344 0.146230
H38   H     H_    0.753740 0.079207 0.217820 0.172809
H39   H     H_    0.731302 0.049478 0.326765 0.168954
O26   O     O_3   0.316101 0.085223 0.788944 -0.575047
C70   C     C_3   0.283532 0.930402 0.751324 -0.261283
H40   H     H_    0.246629 0.918983 0.782305 0.173254
H41   H     H_    0.307617 0.798350 0.762251 0.145803
H42   H     H_    0.268798 0.950420 0.673211 0.169070
O27   O     O_3   0.816073 0.414000 0.289060 -0.574796
C71   C     C_3   0.784268 0.570136 0.251004 -0.263730
H43   H     H_    0.809192 0.700413 0.260648 0.144820
H44   H     H_    0.747761 0.585852 0.282749 0.174393
H45   H     H_    0.768914 0.548629 0.173127 0.169425
O28   O     O_3   0.183915 0.585724 0.710984 -0.574906
C72   C     C_3   0.216039 0.430137 0.748870 -0.262804
H46   H     H_    0.252702 0.416131 0.717412 0.173892
H47   H     H_    0.191453 0.299124 0.738740 0.145235
H48   H     H_    0.231153 0.451101 0.826838 0.169272

loop_
_geom_bond_atom_site_label_1
_geom_bond_atom_site_label_2
_ccdc_geom_bond_type
C21   O22   S    
O17   V3    S    
C55   C56   A    
O1    C5    A    
C16   H8    S    
O19   V1    S    
C1    C32   S    
O13   V1    S    
O3    C7    A    
C2    C31   S    
C60   C64   A    
C48   C52   A    
C3    C30   S    
C35   O27   S    
O24   C68   S    
C69   H39   S    
C47   C55   A    
C65   H25   S    
O23   C67   S    
C14   C25   A    
C34   C38   A    
C53   C54   A    
O7    C3    A    
O5    C1    A    
C50   C62   A    
C9    C18   A    
O9    V1    S    
O10   V2    S    
C14   C18   A    
C72   H47   S    
C18   H1    S    
O4    C8    A    
C70   H42   S    
C63   H11   S    
C62   H10   S    
O27   C71   S    
C57   H21   S    
O1    V3    S    
C30   C38   A    
C12   C23   A    
O2    V4    S    
C52   C64   A    
C59   H23   S    
O3    V1    S    
O22   C66   S    
C14   H6    S    
C1    O15   A    
C2    O16   A    
C7    C9    S    
O2    C6    A    
C56   C59   A    
O14   V2    S    
C45   C49   A    
C16   C20   A    
C36   O28   S    
C36   C40   A    
C68   H36   S    
C46   C54   A    
C44   H15   S    
O11   C7    A    
C15   C28   A    
O15   V3    S    
O12   C8    A    
C55   C60   A    
C57   C61   A    
C9    C22   A    
C10   C17   A    
C24   O23   S    
C71   H45   S    
C11   C24   A    
C58   C62   A    
O5    V1    S    
C66   H29   S    
C53   C58   A    
O7    V3    S    
C27   C28   A    
O8    V4    S    
C23   O24   S    
O28   C72   S    
C71   H44   S    
C72   H48   S    
O18   V4    S    
C60   H24   S    
C15   C19   A    
C29   C41   A    
C59   C63   A    
C54   C57   A    
C8    C10   S    
C65   H26   S    
C36   C52   A    
C69   H38   S    
C34   C50   A    
C49   C61   A    
C46   C50   A    
C33   C49   A    
C34   O26   S    
C40   H19   S    
C21   C25   A    
O8    C4    A    
C15   H7    S    
C32   C44   A    
O9    C5    A    
C10   C21   A    
C51   C63   A    
C66   H28   S    
C11   C20   A    
C67   H33   S    
C33   O25   S    
C41   H14   S    
O6    V2    S    
C31   C39   A    
C42   H13   S    
C43   H16   S    
C58   H22   S    
C61   H9    S    
C35   C51   A    
C67   H32   S    
O21   C65   S    
O16   V4    S    
C66   H30   S    
C29   C37   A    
C3    O13   A    
C37   H18   S    
C22   O21   S    
C44   C48   A    
C71   H43   S    
C38   H17   S    
O6    C2    A    
C23   C27   A    
C70   H40   S    
O11   V3    S    
C69   H37   S    
C5    C11   S    
O12   V4    S    
C16   C27   A    
C6    C12   S    
C22   C26   A    
O10   C6    A    
O20   V2    S    
C68   H34   S    
C48   C56   A    
C72   H46   S    
C47   C51   A    
C4    C29   S    
C70   H41   S    
C20   H3    S    
O25   C69   S    
C31   C43   A    
C33   C37   A    
C64   H12   S    
C13   C26   A    
C35   C39   A    
C32   C40   A    
C13   C17   A    
O4    V2    S    
C17   H2    S    
C65   H27   S    
O26   C70   S    
C45   C53   A    
C19   H4    S    
C24   C28   A    
C25   C26   A    
C42   C46   A    
C4    O14   A    
C41   C45   A    
C30   C42   A    
C12   C19   A    
C39   H20   S    
C43   C47   A    
C13   H5    S    
C67   H31   S    
C68   H35   S    
