data_mof_unit_31905.cif
_audit_creation_date              2012-12-11T14:12:20-0500
_audit_creation_method            fapswitch 2.2
_symmetry_space_group_name_H-M    P1
_symmetry_Int_Tables_number       1
_space_group_crystal_system       triclinic
_cell_length_a                    14.650665
_cell_length_b                    16.346356
_cell_length_c                    6.91526
_cell_angle_alpha                 90.162168
_cell_angle_beta                  97.616418
_cell_angle_gamma                 89.613706
_cell_volume                      1641.44971892

loop_
_atom_site_label
_atom_site_type_symbol
_atom_type_description
_atom_site_fract_x
_atom_site_fract_y
_atom_site_fract_z
_atom_type_partial_charge
O1    O     O_R   0.584460 0.414130 0.534110 -0.523107
O2    O     O_R   0.584460 0.585870 0.534110 -0.527167
O3    O     O_R   0.595580 0.585780 0.208030 -0.539790
O4    O     O_R   0.595580 0.414220 0.208030 -0.527915
O5    O     O_R   0.415540 0.585790 0.977250 -0.554589
O6    O     O_R   0.415540 0.414210 0.977250 -0.539318
C1    C     C_R   0.615385 0.615168 0.382370 0.737940
C2    C     C_R   0.616921 0.386019 0.382026 0.743536
O7    O     O_3   0.440930 0.500000 0.319360 -0.371327
V1    V     V_3+5 0.510960 0.500000 0.068030 1.611373
O8    O     O_R   0.404420 0.414140 0.643900 -0.522663
O9    O     O_R   0.404420 0.585860 0.643900 -0.519289
C3    C     C_R   0.381564 0.386480 0.809326 0.717986
C4    C     C_R   0.383169 0.615216 0.808783 0.738798
V2    V     V_3+5 0.489040 0.500000 0.560660 1.637557
O10   O     O_3   0.559070 0.500000 0.859200 -0.357689
C5    C     C_2   0.314057 0.683951 0.809230 -0.179570
C6    C     C_2   0.312344 0.319129 0.810121 -0.248877
C7    C     C_2   0.323587 0.742395 0.956151 -0.191884
C8    C     C_2   0.265652 0.303233 0.967086 -0.119337
H1    H     H_    0.200992 0.774740 0.205508 0.135911
H2    H     H_    0.254107 0.177206 0.206676 0.151549
C9    C     C_2   0.201460 0.822279 0.096515 -0.348980
C10   C     C_2   0.194730 0.180768 0.095520 -0.301053
C11   C     C_2   0.260451 0.815144 0.959195 -0.013043
C12   C     C_2   0.190788 0.241230 0.959120 -0.046477
C13   C     C_2   0.806362 0.774344 0.329858 0.313141
C14   C     C_2   0.826116 0.241180 0.358370 0.309913
C15   C     C_2   0.833917 0.811923 0.503412 -0.265109
C16   C     C_2   0.832193 0.187034 0.507910 -0.341457
H3    H     H_    0.813342 0.786458 0.635920 0.094145
H4    H     H_    0.791763 0.197468 0.625975 0.109078
C17   C     C_2   0.748819 0.699064 0.319197 -0.200085
C18   C     C_2   0.762726 0.313430 0.350514 -0.119544
C19   C     C_2   0.671054 0.691036 0.406241 -0.237848
C20   C     C_2   0.675963 0.312225 0.402187 -0.273204
O11   O     O_R   0.925070 0.912130 0.373190 -0.520539
O12   O     O_R   0.925070 0.087870 0.373190 -0.541134
O13   O     O_R   0.914170 0.083600 0.699490 -0.549435
O14   O     O_R   0.914170 0.916400 0.699490 -0.555678
O15   O     O_R   0.094290 0.084740 0.929940 -0.509719
O16   O     O_R   0.094290 0.915260 0.929940 -0.525846
C21   C     C_R   0.894033 0.115114 0.527145 0.760544
C22   C     C_R   0.894288 0.884689 0.526305 0.769960
O17   O     O_3   0.068710 0.000000 0.587750 -0.348546
V3    V     V_3+5 0.998820 0.000000 0.839270 1.508116
O18   O     O_R   0.105520 0.913050 0.263180 -0.544346
O19   O     O_R   0.105520 0.086950 0.263180 -0.533623
C23   C     C_R   0.130852 0.888609 0.097978 0.777062
C24   C     C_R   0.124648 0.115708 0.097110 0.761712
V4    V     V_3+5 0.020980 0.000000 0.346670 1.538707
O20   O     O_3   0.950820 0.000000 0.048230 -0.383626
C25   C     C_2   0.275473 0.882790 0.822557 0.848739
O21   O     O_2   0.265047 0.954234 0.868439 -0.560055
O22   O     O_R   0.307013 0.864496 0.645049 -0.649537
H5    H     H_    0.315636 0.915143 0.565300 0.302085
C26   C     C_2   0.105222 0.260204 0.827985 0.844342
O23   O     O_2   0.065746 0.325400 0.845908 -0.518289
O24   O     O_R   0.073344 0.207149 0.676403 -0.633779
H6    H     H_    0.020932 0.232509 0.586121 0.278277
C27   C     C_2   0.410823 0.748491 0.093936 0.831857
O25   O     O_2   0.484429 0.751118 0.029478 -0.510926
O26   O     O_R   0.410635 0.753235 0.295676 -0.633243
H7    H     H_    0.347730 0.744699 0.336715 0.284454
C28   C     C_2   0.281629 0.349419 0.152578 0.849762
O27   O     O_2   0.352800 0.338490 0.263410 -0.543876
O28   O     O_R   0.213159 0.401793 0.204710 -0.623670
H8    H     H_    0.231455 0.428787 0.336212 0.311338
C29   C     C_2   0.232504 0.682250 0.653292 0.779869
O29   O     O_2   0.165612 0.726528 0.662646 -0.554481
O30   O     O_R   0.231402 0.627775 0.496603 -0.667484
H9    H     H_    0.172789 0.631942 0.400976 0.303341
C30   C     C_2   0.303203 0.263638 0.639840 0.843625
O31   O     O_2   0.230090 0.258067 0.533373 -0.550394
O32   O     O_R   0.380153 0.218964 0.599809 -0.616824
H10   H     H_    0.366573 0.182208 0.481520 0.305373
N1    N     N_2   0.834640 0.803629 0.152605 -0.495677
H11   H     H_    0.783818 0.799932 0.034516 0.259178
C31   C     C_3   0.922118 0.771888 0.107722 -0.447550
H12   H     H_    0.947291 0.811249 0.996111 0.190737
H13   H     H_    0.914213 0.709068 0.047160 0.202950
H14   H     H_    0.974653 0.771236 0.239334 0.195473
N2    N     N_2   0.889490 0.239040 0.217951 -0.506266
H15   H     H_    0.955885 0.219609 0.262689 0.263299
C32   C     C_3   0.851261 0.212955 0.024888 -0.413746
H16   H     H_    0.831039 0.147636 0.026807 0.199335
H17   H     H_    0.903825 0.220453 0.924712 0.186034
H18   H     H_    0.790152 0.250873 0.969822 0.210050
C33   C     C_2   0.782979 0.630650 0.207421 0.805860
O33   O     O_2   0.846725 0.588644 0.283933 -0.504549
O34   O     O_R   0.747582 0.616866 0.012318 -0.644202
H19   H     H_    0.698120 0.657961 0.961540 0.293399
C34   C     C_2   0.800492 0.389024 0.275526 0.856020
O35   O     O_2   0.867020 0.421667 0.369375 -0.494868
O36   O     O_R   0.765771 0.417636 0.089898 -0.644223
H20   H     H_    0.803954 0.463404 0.044563 0.346523
C35   C     C_2   0.631114 0.760621 0.507568 0.831967
O37   O     O_2   0.591426 0.747763 0.649215 -0.532523
O38   O     O_R   0.635046 0.840289 0.435978 -0.643556
H21   H     H_    0.604452 0.881790 0.516120 0.311097
C36   C     C_2   0.629896 0.235754 0.451096 0.788479
O39   O     O_2   0.579516 0.236527 0.578591 -0.523816
O40   O     O_R   0.640949 0.163821 0.346423 -0.652914
H22   H     H_    0.605416 0.116290 0.392654 0.307773

loop_
_geom_bond_atom_site_label_1
_geom_bond_atom_site_label_2
_ccdc_geom_bond_type
O22   H5    S    
C5    C29   S    
C34   O35   D    
C13   C15   D    
O1    C2    A    
C30   O31   D    
O2    C1    A    
C18   C34   S    
O4    C2    A    
C35   O37   D    
O18   C23   A    
N1    H11   S    
C13   C17   S    
O14   V3    S    
C36   O39   D    
C3    C6    S    
C10   C12   D    
O3    C1    A    
C2    C20   S    
O11   V4    S    
C26   O24   S    
O17   V4    S    
V2    O10   S    
V3    O20   S    
C27   O26   S    
O16   V3    S    
C29   O30   S    
C17   C19   D    
O8    V2    S    
O19   V4    S    
N2    H15   S    
C28   O28   S    
O15   V3    S    
O1    V2    S    
C33   O34   S    
O7    V1    S    
C18   C20   D    
N1    C31   S    
C14   C18   S    
O24   H6    S    
C34   O36   S    
C14   N2    S    
C30   O32   S    
C4    C5    S    
C29   O29   D    
C35   O38   S    
C25   O22   S    
C10   C24   S    
C32   H17   S    
O28   H8    S    
C8    C28   S    
O34   H19   S    
C31   H13   S    
O13   C21   A    
O12   V4    S    
C32   H16   S    
V4    O20   S    
C20   C36   S    
O32   H10   S    
C17   C33   S    
O38   H21   S    
O9    V2    S    
O14   C22   A    
O2    V2    S    
O5    C4    A    
O13   V3    S    
N2    C32   S    
O9    C4    A    
C6    C30   S    
H1    C9    S    
C15   C22   S    
H2    C10   S    
C16   C21   S    
O4    V1    S    
O15   C24   A    
C32   H18   S    
C1    C19   S    
C11   C25   S    
O26   H7    S    
C13   N1    S    
O6    V1    S    
C31   H14   S    
O18   V4    S    
C25   O21   D    
O11   C22   A    
C14   C16   D    
O7    V2    S    
O12   C21   A    
C15   H3    S    
O3    V1    S    
V1    O10   S    
O6    C3    A    
C16   H4    S    
O8    C3    A    
C26   O23   D    
C8    C12   S    
C7    C27   S    
O19   C24   A    
C5    C7    D    
C6    C8    D    
C9    C11   D    
C27   O25   D    
C7    C11   S    
C12   C26   S    
C9    C23   S    
O16   C23   A    
C31   H12   S    
O17   V3    S    
O5    V1    S    
O30   H9    S    
C36   O40   S    
C28   O27   D    
O40   H22   S    
C33   O33   D    
C19   C35   S    
O36   H20   S    
