data_mof_unit_37919.cif
_audit_creation_date              2012-12-11T17:09:35-0500
_audit_creation_method            fapswitch 2.2
_symmetry_space_group_name_H-M    P1
_symmetry_Int_Tables_number       1
_space_group_crystal_system       triclinic
_cell_length_a                    14.890422
_cell_length_b                    6.985193
_cell_length_c                    13.445579
_cell_angle_alpha                 90.0
_cell_angle_beta                  99.703699
_cell_angle_gamma                 90.000033
_cell_volume                      1378.49887604

loop_
_atom_site_label
_atom_site_type_symbol
_atom_type_description
_atom_site_fract_x
_atom_site_fract_y
_atom_site_fract_z
_atom_type_partial_charge
O1    O     O_R   0.586930 0.505770 0.416350 -0.533129
O2    O     O_R   0.413070 0.005770 0.583650 -0.533129
O3    O     O_R   0.397900 0.173100 0.389630 -0.536585
O4    O     O_R   0.602100 0.673100 0.610370 -0.536585
C1    C     C_R   0.364393 0.345360 0.362927 0.723577
C2    C     C_R   0.635607 0.845360 0.637073 0.723577
O5    O     O_R   0.585280 0.175870 0.404330 -0.547616
O6    O     O_R   0.414720 0.675870 0.595670 -0.547617
O7    O     O_R   0.601790 0.008380 0.598460 -0.533457
O8    O     O_R   0.398210 0.508380 0.401540 -0.533457
C3    C     C_R   0.613924 0.345243 0.382234 0.706355
C4    C     C_R   0.386076 0.845243 0.617766 0.706355
O9    O     O_3   0.505200 0.340120 0.563670 -0.369826
O10   O     O_3   0.494800 0.840120 0.436330 -0.369826
V1    V     V_3+5 0.499040 0.064180 0.488190 1.409526
V2    V     V_3+5 0.500960 0.564180 0.511810 1.409526
C5    C     C_R   0.261393 0.017778 0.686427 -0.032055
C6    C     C_R   0.738607 0.517778 0.313573 -0.032055
C7    C     C_R   0.316505 0.856026 0.684602 -0.085568
C8    C     C_R   0.683494 0.356026 0.315398 -0.085568
C9    C     C_R   0.304012 0.704811 0.749255 -0.226937
C10   C     C_R   0.695987 0.204811 0.250745 -0.226939
H1    H     H_    0.347622 0.581675 0.751660 0.130976
H2    H     H_    0.652377 0.081675 0.248340 0.130977
C11   C     C_R   0.239209 0.716881 0.814303 -0.111417
C12   C     C_R   0.760791 0.216881 0.185696 -0.111417
H3    H     H_    0.235471 0.604586 0.868321 0.172851
H4    H     H_    0.764529 0.104585 0.131679 0.172851
C13   C     C_R   0.182078 0.876947 0.813495 -0.101502
C14   C     C_R   0.817922 0.376947 0.186505 -0.101502
C15   C     C_R   0.194688 0.027325 0.748655 -0.027938
C16   C     C_R   0.805311 0.527324 0.251345 -0.027938
C17   C     C_3   0.219702 0.229484 0.779092 0.816349
C18   C     C_3   0.780297 0.729483 0.220908 0.816348
C19   C     C_3   0.292504 0.218069 0.709765 -0.525499
C20   C     C_3   0.707496 0.718069 0.290235 -0.525500
H5    H     H_    0.365369 0.222715 0.744424 0.161510
H6    H     H_    0.634631 0.722715 0.255576 0.161512
H7    H     H_    0.278379 0.308478 0.641195 0.160820
H8    H     H_    0.721622 0.808478 0.358805 0.160820
C21   C     C_1   0.783476 0.877174 0.782873 -0.193158
C22   C     C_1   0.216523 0.377175 0.217127 -0.193158
C23   C     C_1   0.716186 0.860083 0.716819 -0.187357
C24   C     C_1   0.283814 0.360083 0.283181 -0.187356
O11   O     O_R   0.101720 0.231700 0.098560 -0.532877
O12   O     O_R   0.898280 0.731700 0.901440 -0.532877
O13   O     O_R   0.914700 0.558980 0.095690 -0.513534
O14   O     O_R   0.085300 0.058980 0.904310 -0.513534
C25   C     C_R   0.885210 0.389742 0.116831 0.714110
C26   C     C_R   0.114790 0.889742 0.883169 0.714110
O15   O     O_R   0.102080 0.561590 0.110390 -0.545311
O16   O     O_R   0.897920 0.061590 0.889610 -0.545311
O17   O     O_R   0.086950 0.728940 0.916330 -0.540124
O18   O     O_R   0.913050 0.228940 0.083670 -0.540124
C27   C     C_R   0.135958 0.391976 0.137381 0.731031
C28   C     C_R   0.864042 0.891976 0.862619 0.731032
O19   O     O_3   0.994770 0.394510 0.936380 -0.364185
O20   O     O_3   0.005230 0.894510 0.063620 -0.364185
V3    V     V_3+5 0.000970 0.670520 0.011800 1.499834
V4    V     V_3+5 0.999030 0.170520 0.988200 1.499834
O21   O     O_3   0.245395 0.231800 0.886599 -0.571113
C29   C     C_3   0.335678 0.284518 0.926058 0.027121
H9    H     H_    0.334070 0.352120 0.000408 0.135771
H10   H     H_    0.363355 0.394289 0.880764 0.107132
C30   C     C_3   0.397200 0.107992 0.944338 -0.309466
H11   H     H_    0.378528 0.023195 0.007717 0.192799
H12   H     H_    0.387520 0.014477 0.877006 0.206376
C31   C     C_3   0.497366 0.164968 0.968410 -0.869757
H13   H     H_    0.513712 0.275217 0.914709 0.238247
H14   H     H_    0.540328 0.039330 0.960284 0.229953
H15   H     H_    0.514313 0.218564 0.047038 0.237126
O22   O     O_3   0.754605 0.731799 0.113400 -0.571112
C32   C     C_3   0.664322 0.784518 0.073942 0.027120
H16   H     H_    0.665929 0.852118 0.999591 0.135770
H17   H     H_    0.636645 0.894290 0.119236 0.107132
C33   C     C_3   0.602799 0.607992 0.055663 -0.309469
H18   H     H_    0.621468 0.523197 0.992282 0.192798
H19   H     H_    0.612481 0.514475 0.122994 0.206379
C34   C     C_3   0.502633 0.664968 0.031597 -0.869761
H20   H     H_    0.486289 0.775219 0.085297 0.238248
H21   H     H_    0.459671 0.539331 0.039726 0.229953
H22   H     H_    0.485682 0.718562 0.952969 0.237127
O23   O     O_3   0.149063 0.366821 0.749475 -0.568243
C35   C     C_3   0.098362 0.347780 0.650588 0.037312
H23   H     H_    0.025714 0.332090 0.657965 0.140635
H24   H     H_    0.116648 0.222488 0.607542 0.111197
C36   C     C_3   0.108206 0.528656 0.589366 -0.281356
H25   H     H_    0.077125 0.652232 0.623100 0.197945
H26   H     H_    0.181265 0.560529 0.590466 0.201323
C37   C     C_3   0.062772 0.503765 0.479765 -0.872384
H27   H     H_    0.091917 0.378659 0.445291 0.234227
H28   H     H_    0.075615 0.633074 0.436609 0.224719
H29   H     H_    0.988262 0.482778 0.475035 0.231574
O24   O     O_3   0.850938 0.866821 0.250525 -0.568243
C38   C     C_3   0.901639 0.847780 0.349411 0.037311
H30   H     H_    0.974286 0.832086 0.342034 0.140634
H31   H     H_    0.883351 0.722489 0.392458 0.111197
C39   C     C_3   0.891795 0.028658 0.410632 -0.281357
H32   H     H_    0.922880 0.152231 0.376899 0.197944
H33   H     H_    0.818737 0.060534 0.409531 0.201325
C40   C     C_3   0.937227 0.003766 0.520235 -0.872384
H34   H     H_    0.908079 0.878665 0.554708 0.234227
H35   H     H_    0.924387 0.133078 0.563389 0.224719
H36   H     H_    0.011737 0.982770 0.524966 0.231575

loop_
_geom_bond_atom_site_label_1
_geom_bond_atom_site_label_2
_ccdc_geom_bond_type
C36   H25   S    
O11   V4    S    
C40   H34   S    
O12   V3    S    
C21   C23   T    
C32   H16   S    
C38   H30   S    
O1    C3    A    
C35   C36   S    
O2    C4    A    
C2    O7    A    
O17   V3    S    
C38   C39   S    
O13   C25   A    
O18   V4    S    
O5    C3    A    
C19   H5    S    
C33   H19   S    
O19   V3    S    
O20   V4    S    
C25   O18   A    
C29   H10   S    
O16   V4    S    
C17   C19   S    
C17   O21   S    
C31   H13   S    
C30   H12   S    
C15   C17   S    
O10   V2    S    
C6    C8    A    
O14   C26   A    
O6    V2    S    
C32   H17   S    
O21   C29   S    
C22   C24   T    
O14   V4    S    
C13   C26   S    
C11   C13   A    
C3    C8    S    
C26   O17   A    
C20   H8    S    
C33   H18   S    
O4    C2    A    
C34   H21   S    
O19   V4    S    
O5    V1    S    
O15   C27   A    
O20   V3    S    
C16   C18   S    
O4    V2    S    
C19   H7    S    
C21   C28   S    
C29   H9    S    
C22   C27   S    
C37   H28   S    
O23   C35   S    
O6    C4    A    
C30   C31   S    
O1    V2    S    
C35   H23   S    
O2    V1    S    
C17   O23   S    
C31   H14   S    
C1    C24   S    
C8    C10   A    
C12   C14   A    
C40   H36   S    
C39   H33   S    
C2    C23   S    
C9    H1    S    
C5    C15   A    
C32   C33   S    
C10   H2    S    
C36   C37   S    
C6    C16   A    
C18   O22   S    
O3    V1    S    
C37   H29   S    
C9    C11   A    
C29   C30   S    
C7    C9    A    
C14   C25   S    
C18   O24   S    
C35   H24   S    
O22   C32   S    
O3    C1    A    
C34   H22   S    
C38   H31   S    
C11   H3    S    
C39   C40   S    
C12   H4    S    
O9    V1    S    
O7    V1    S    
C1    O8    A    
C13   C15   A    
O8    V2    S    
C14   C16   A    
C37   H27   S    
C31   H15   S    
C4    C7    S    
C20   H6    S    
C5    C7    A    
C18   C20   S    
C30   H11   S    
O24   C38   S    
O13   V3    S    
C34   H20   S    
C33   C34   S    
O15   V3    S    
O11   C27   A    
C40   H35   S    
C39   H32   S    
C10   C12   A    
O9    V2    S    
O12   C28   A    
C36   H26   S    
O10   V1    S    
C5    C19   S    
C6    C20   S    
O16   C28   A    
