data_mof_unit_13774.cif
_audit_creation_date              2012-12-10T17:55:07-0500
_audit_creation_method            fapswitch 2.2
_symmetry_space_group_name_H-M    P1
_symmetry_Int_Tables_number       1
_space_group_crystal_system       triclinic
_cell_length_a                    8.754972
_cell_length_b                    10.782871
_cell_length_c                    9.565207
_cell_angle_alpha                 89.168874
_cell_angle_beta                  97.049988
_cell_angle_gamma                 90.896251
_cell_volume                      895.982432012

loop_
_atom_site_label
_atom_site_type_symbol
_atom_type_description
_atom_site_fract_x
_atom_site_fract_y
_atom_site_fract_z
_atom_type_partial_charge
C1    C     C_R   0.500839 0.262591 0.501014 0.858643
C2    C     C_R   0.610903 0.063575 0.593374 0.091764
C3    C     C_R   0.500271 0.871311 0.497497 -0.109869
C4    C     C_R   0.499869 0.128668 0.502592 -0.103838
C5    C     C_R   0.407759 0.419860 0.066625 -0.032928
C6    C     C_R   0.591904 0.580404 0.933362 -0.022335
C7    C     C_R   0.407206 0.419183 0.918443 0.088948
C8    C     C_R   0.592564 0.580986 0.081564 0.096374
C9    C     C_2   0.979099 0.379493 0.347926 0.895061
C10   C     C_2   0.019510 0.622149 0.651474 0.907144
C11   C     C_2   0.304439 0.328546 0.839897 0.876085
C12   C     C_R   0.499282 0.737402 0.499012 0.857471
C13   C     C_2   0.693469 0.672859 0.160035 0.868177
C14   C     C_R   0.204635 0.497106 0.465051 0.832318
C15   C     C_R   0.795352 0.503284 0.534891 0.841647
C16   C     C_2   0.041108 0.476007 0.451378 -0.228497
C17   C     C_2   0.958623 0.525189 0.548109 -0.227761
C18   C     C_R   0.388962 0.065609 0.410101 0.134579
C19   C     C_R   0.611149 0.934353 0.590020 0.133417
C20   C     C_R   0.388907 0.936372 0.407088 0.091993
Cu1   Cu    Cu3+1 0.500000 0.500020 0.640660 1.020719
Cu2   Cu    Cu3+1 0.500000 0.499980 0.359340 1.013923
H1    H     H_    0.334141 0.355914 0.116730 0.168566
H2    H     H_    0.324095 0.825797 0.239348 0.272954
H3    H     H_    0.784675 0.190942 0.628828 0.245752
H4    H     H_    0.673644 0.173431 0.762112 0.271123
H5    H     H_    0.091557 0.289070 0.743862 0.331453
H6    H     H_    0.722422 0.849651 0.225068 0.330153
H7    H     H_    0.665069 0.644699 0.883236 0.165484
H8    H     H_    0.849838 0.224137 0.309804 0.333422
H9    H     H_    0.021823 0.691415 0.846635 0.337414
H10   H     H_    0.165583 0.105364 0.345809 0.250588
H11   H     H_    0.282120 0.111724 0.216713 0.254624
H12   H     H_    0.834530 0.894928 0.654678 0.252809
H13   H     H_    0.717619 0.887841 0.783441 0.254108
H14   H     H_    0.214451 0.809449 0.373852 0.252941
N1    N     N_R   0.500040 0.500030 0.852080 -0.217736
N2    N     N_R   0.499960 0.499970 0.147920 -0.218810
N3    N     N_3   0.274136 0.133783 0.321636 -0.565334
N4    N     N_3   0.725966 0.866165 0.678479 -0.571319
N5    N     N_3   0.271968 0.873257 0.314876 -0.571743
N6    N     N_3   0.726812 0.126594 0.686782 -0.578467
O1    O     O_R   0.499990 0.319660 0.618740 -0.589277
O2    O     O_R   0.883624 0.283882 0.388892 -0.798743
O3    O     O_2   0.103783 0.705606 0.616567 -0.617825
O4    O     O_R   0.975113 0.620186 0.787026 -0.709079
O5    O     O_2   0.348698 0.222999 0.825878 -0.603422
O6    O     O_R   0.152201 0.359854 0.793796 -0.728463
O7    O     O_2   0.825503 0.645905 0.205402 -0.576696
O8    O     O_R   0.642125 0.793973 0.171055 -0.772549
O9    O     O_R   0.500010 0.680340 0.381260 -0.594963
O10   O     O_R   0.499990 0.319630 0.381170 -0.564776
O11   O     O_R   0.500010 0.680370 0.618830 -0.553184
O12   O     O_R   0.274840 0.500010 0.591370 -0.560197
O13   O     O_R   0.725160 0.499990 0.408630 -0.556437
O14   O     O_R   0.274830 0.499980 0.353800 -0.556753
O15   O     O_R   0.725170 0.500020 0.646200 -0.554654
O16   O     O_2   0.015299 0.381970 0.228396 -0.543997

loop_
_geom_bond_atom_site_label_1
_geom_bond_atom_site_label_2
_ccdc_geom_bond_type
H5    O6    S    
C10   O4    S    
C14   O14   A    
C18   N3    S    
C11   O5    D    
Cu1   O15   S    
C8    C13   S    
H14   N5    S    
C5    C7    A    
C2    C4    A    
C12   O11   A    
C5    H1    S    
Cu2   O14   S    
C1    C4    S    
C4    C18   A    
C3    C19   A    
C6    H7    S    
C10   O3    D    
H13   N4    S    
C7    N1    A    
C6    N1    A    
C3    C20   A    
H11   N3    S    
C5    N2    A    
Cu1   O11   S    
H2    N5    S    
C15   O15   A    
H8    O2    S    
C11   O6    S    
Cu2   O13   S    
H3    N6    S    
C8    N2    A    
C2    N6    S    
C13   O7    D    
C14   O12   A    
C9    C16   S    
C7    C11   S    
C18   C20   A    
Cu1   O12   S    
C1    O10   A    
C14   C16   S    
C16   C17   D    
C19   N4    S    
C10   C17   S    
C13   O8    S    
Cu2   N2    S    
C12   O9    A    
Cu1   N1    S    
H4    N6    S    
Cu2   O10   S    
C9    O16   D    
H10   N3    S    
C15   C17   S    
H12   N4    S    
C9    O2    S    
C6    C8    A    
C3    C12   S    
C2    C19   A    
Cu1   Cu2   S    
H6    O8    S    
C1    O1    A    
Cu1   O1    S    
C20   N5    S    
Cu2   O9    S    
H9    O4    S    
C15   O13   A    
