data_mof_unit_49022.cif
_audit_creation_date              2012-10-26T18:26:14-0400
_audit_creation_method            fapswitch 2.2
_symmetry_space_group_name_H-M    P1
_symmetry_Int_Tables_number       1
_space_group_crystal_system       triclinic
_cell_length_a                    13.85116
_cell_length_b                    8.69488
_cell_length_c                    7.452299
_cell_angle_alpha                 103.08948
_cell_angle_beta                  89.091986
_cell_angle_gamma                 92.625923
_cell_volume                      873.26018454

loop_
_atom_site_label
_atom_site_type_symbol
_atom_type_description
_atom_site_fract_x
_atom_site_fract_y
_atom_site_fract_z
_atom_type_partial_charge
C1    C     C_R   0.497153 0.199756 0.453676 0.551140
C2    C     C_1   0.869386 0.475223 0.434253 0.055601
C3    C     C_2   0.495788 0.031849 0.427670 -0.132283
C4    C     C_2   0.504219 0.968151 0.572328 -0.130944
C5    C     C_R   0.502850 0.800244 0.546323 0.552184
C6    C     C_R   0.318716 0.504084 0.531855 0.561344
C7    C     C_R   0.681285 0.495959 0.468146 0.557124
C8    C     C_1   0.783294 0.485460 0.445891 0.049261
C9    C     C_1   0.216745 0.515284 0.554122 0.051074
C10   C     C_2   0.972513 0.462986 0.427733 0.211814
C11   C     C_2   0.027656 0.539770 0.571618 0.212309
C12   C     C_1   0.130707 0.526395 0.565543 0.054318
Cu1   Cu    Cu3+1 0.510540 0.517220 0.682700 1.021638
Cu2   Cu    Cu3+1 0.489460 0.482780 0.317300 1.021783
H1    H     H_    0.487839 0.960285 0.288270 0.141877
H2    H     H_    0.512168 0.039715 0.711728 0.142203
H3    H     H_    0.425695 0.378537 0.960817 0.251720
H4    H     H_    0.574303 0.621466 0.039184 0.251076
H5    H     H_    0.097096 0.670941 0.957972 0.369488
H6    H     H_    0.897518 0.188254 0.127150 0.356812
N1    N     N_2   0.473570 0.456830 0.042740 -0.250347
N2    N     N_2   0.526430 0.543170 0.957260 -0.249890
O1    O     O_R   0.506850 0.286020 0.618680 -0.510112
O2    O     O_2   0.914254 0.563850 0.870777 -0.228715
O3    O     O_3   0.066350 0.755502 0.912866 -0.445180
O4    O     O_2   0.095707 0.434433 0.142530 -0.253017
O5    O     O_2   0.071295 0.206048 0.280663 -0.241431
O6    O     O_3   0.935049 0.267040 0.073820 -0.433221
O7    O     O_R   0.493150 0.713980 0.381320 -0.510873
O8    O     O_R   0.489050 0.256940 0.310110 -0.493562
O9    O     O_R   0.510950 0.743060 0.689890 -0.493570
O10   O     O_R   0.372320 0.516630 0.676100 -0.502235
O11   O     O_R   0.627680 0.483370 0.323900 -0.500500
O12   O     O_R   0.354510 0.487550 0.367530 -0.470800
O13   O     O_R   0.645490 0.512450 0.632470 -0.471260
O14   O     O_2   0.918190 0.784054 0.716413 -0.226602
S1    S     S_3+6 0.977951 0.662415 0.771353 0.068206
S2    S     S_3+6 0.022239 0.340106 0.228287 0.063569

loop_
_geom_bond_atom_site_label_1
_geom_bond_atom_site_label_2
_ccdc_geom_bond_type
Cu2   O12   S    
C6    O10   A    
C11   C12   S    
C4    H2    S    
Cu1   O10   S    
O6    S2    S    
C10   S2    S    
O4    S2    D    
C6    C9    S    
O2    S1    D    
C7    C8    S    
H4    N2    S    
Cu1   Cu2   S    
C7    O11   A    
Cu2   O11   S    
Cu2   N1    S    
O14   S1    D    
Cu2   O8    S    
Cu1   N2    S    
C1    O1    A    
C5    O7    A    
H5    O3    S    
C9    C12   T    
H3    N1    S    
C10   C11   D    
O5    S2    D    
C3    C4    D    
C2    C10   S    
C4    C5    S    
C3    H1    S    
Cu1   O1    S    
C1    C3    S    
C11   S1    S    
C1    O8    A    
H6    O6    S    
O3    S1    S    
N1    N2    D    
C7    O13   A    
Cu1   O9    S    
Cu1   O13   S    
C2    C8    T    
C6    O12   A    
Cu2   O7    S    
C5    O9    A    
