data_mof_unit_60373.cif
_audit_creation_date              2012-10-26T20:59:57-0400
_audit_creation_method            fapswitch 2.2
_symmetry_space_group_name_H-M    P1
_symmetry_Int_Tables_number       1
_space_group_crystal_system       triclinic
_cell_length_a                    14.428408
_cell_length_b                    13.152217
_cell_length_c                    10.730452
_cell_angle_alpha                 89.886138
_cell_angle_beta                  90.030497
_cell_angle_gamma                 90.025645
_cell_volume                      2036.2656452

loop_
_atom_site_label
_atom_site_type_symbol
_atom_type_description
_atom_site_fract_x
_atom_site_fract_y
_atom_site_fract_z
_atom_type_partial_charge
C1    C     C_R   0.328732 0.499981 0.499842 0.579721
C2    C     C_3   0.505517 0.403215 0.959066 -0.143352
C3    C     C_3   0.572651 0.554026 0.956632 -0.157059
C4    C     C_3   0.427349 0.445973 0.043368 -0.157059
C5    C     C_3   0.421364 0.541812 0.960970 0.057418
C6    C     C_3   0.578635 0.458188 0.039030 0.057419
C7    C     C_3   0.498541 0.499671 0.878360 0.003285
C8    C     C_3   0.501459 0.500329 0.121640 0.003285
C9    C     C_1   0.500003 0.173645 0.499998 0.137997
C10   C     C_1   0.499997 0.826355 0.500002 0.137997
C11   C     C_1   0.227152 0.499965 0.499978 -0.014294
C12   C     C_R   0.671267 0.500019 0.500158 0.579720
C13   C     C_1   0.772848 0.500035 0.500022 -0.014295
C14   C     C_1   0.142330 0.499984 0.500044 -0.022265
C15   C     C_1   0.857670 0.500016 0.499956 -0.022265
C16   C     C_2   0.331709 0.588578 0.919763 0.580341
C17   C     C_2   0.668291 0.411422 0.080237 0.580341
C18   C     C_1   0.042413 0.499997 0.500024 0.020443
C19   C     C_1   0.957587 0.500003 0.499976 0.020443
C20   C     C_1   0.500001 0.050680 0.499999 -0.031568
C21   C     C_1   0.499998 0.949320 0.500001 -0.031568
C22   C     C_R   0.501038 0.500134 0.256596 0.606285
C23   C     C_R   0.498962 0.499866 0.743404 0.606285
C24   C     C_3   0.494483 0.596785 0.040934 -0.143352
Cu1   Cu    Cu3+1 0.500000 0.592680 0.500000 1.032076
Cu2   Cu    Cu3+1 0.500000 0.407320 0.500000 1.032076
H1    H     H_    0.489551 0.675827 0.076471 0.146316
H2    H     H_    0.510449 0.324173 0.923529 0.146316
H3    H     H_    0.632233 0.597633 0.918660 0.136124
H4    H     H_    0.367766 0.402367 0.081340 0.136124
H5    H     H_    0.247789 0.628190 0.777433 0.339846
H6    H     H_    0.752210 0.371810 0.222567 0.339846
N1    N     N_1   0.500000 0.268070 0.500000 -0.165360
N2    N     N_1   0.500000 0.731930 0.500000 -0.165359
O1    O     O_R   0.376050 0.578280 0.500000 -0.457310
O2    O     O_R   0.310370 0.595529 0.793069 -0.692541
O3    O     O_2   0.722694 0.379892 0.002116 -0.506028
O4    O     O_R   0.689630 0.404471 0.206930 -0.692542
O5    O     O_R   0.623950 0.421720 0.500000 -0.457310
O6    O     O_R   0.623950 0.578280 0.500000 -0.484921
O7    O     O_R   0.376050 0.421720 0.500000 -0.484922
O8    O     O_R   0.499980 0.578250 0.316850 -0.497332
O9    O     O_R   0.500020 0.421750 0.683150 -0.497332
O10   O     O_R   0.500020 0.578250 0.683150 -0.467822
O11   O     O_R   0.499980 0.421750 0.316850 -0.467823
O12   O     O_2   0.277306 0.620108 0.997884 -0.506028

loop_
_geom_bond_atom_site_label_1
_geom_bond_atom_site_label_2
_ccdc_geom_bond_type
Cu1   O8    S    
C12   O6    A    
C2    C4    S    
H6    O4    S    
C2    H2    S    
C14   C18   S    
Cu2   N1    S    
C8    C22   S    
C2    C7    S    
C1    C11   S    
C24   H1    S    
Cu1   N2    S    
C4    C8    S    
C3    C6    S    
C20   C21   T    
C12   O5    A    
C10   N2    T    
C2    C6    S    
C16   O2    S    
C9    N1    T    
C3    C24   S    
C22   O8    A    
C5    C24   S    
Cu1   O1    S    
C7    C23   S    
Cu1   O10   S    
C1    O7    A    
C8    C24   S    
Cu2   O9    S    
C3    C7    S    
C17   O4    S    
C13   C15   T    
Cu1   O6    S    
C11   C14   T    
Cu2   O5    S    
C17   O3    D    
C22   O11   A    
C23   O9    A    
C12   C13   S    
C1    O1    A    
C5    C7    S    
C18   C19   T    
C16   O12   D    
C3    H3    S    
C6    C17   S    
H5    O2    S    
C5    C16   S    
C6    C8    S    
C9    C20   S    
Cu2   O11   S    
Cu1   Cu2   S    
C15   C19   S    
C10   C21   S    
C4    H4    S    
C23   O10   A    
Cu2   O7    S    
C4    C5    S    
