data_mof_unit_18082.cif
_audit_creation_date              2012-12-11T14:47:50-0500
_audit_creation_method            fapswitch 2.2
_symmetry_space_group_name_H-M    P1
_symmetry_Int_Tables_number       1
_space_group_crystal_system       triclinic
_cell_length_a                    11.540947
_cell_length_b                    11.503714
_cell_length_c                    19.466213
_cell_angle_alpha                 90.480829
_cell_angle_beta                  89.899355
_cell_angle_gamma                 59.933932
_cell_volume                      2236.53920402

loop_
_atom_site_label
_atom_site_type_symbol
_atom_type_description
_atom_site_fract_x
_atom_site_fract_y
_atom_site_fract_z
_atom_type_partial_charge
Br1   Br    Br    0.918063 0.666443 0.343384 -0.558488
C1    C     C_R   0.640709 0.118118 0.598951 0.537710
C2    C     C_1   0.652998 0.150896 0.668329 0.002980
C3    C     C_R   0.593222 0.599054 0.314488 -0.179611
C4    C     C_R   0.612825 0.745140 0.598323 0.536594
C5    C     C_R   0.607886 0.559098 0.245704 0.233845
C6    C     C_R   0.709274 0.561317 0.206537 -0.009613
C7    C     C_R   0.803944 0.585618 0.238449 -0.159175
C8    C     C_R   0.786095 0.629413 0.306281 0.129653
C9    C     C_R   0.672320 0.647684 0.342701 -0.018146
C10   C     C_R   0.235933 0.251515 0.289059 -0.145294
C11   C     C_R   0.191232 0.277177 0.222645 -0.143198
C12   C     C_1   0.641687 0.702672 0.667653 0.003689
C13   C     C_R   0.160631 0.189215 0.188051 0.018313
C14   C     C_R   0.186231 0.068671 0.219094 -0.143474
C15   C     C_R   0.235258 0.040799 0.285998 -0.139765
C16   C     C_R   0.239675 0.145943 0.597812 0.547004
C17   C     C_R   0.255512 0.135070 0.322108 0.006654
C18   C     C_R   0.764459 0.171436 0.316203 0.252773
C19   C     C_R   0.777499 0.194437 0.246738 -0.093286
C20   C     C_R   0.685069 0.198969 0.198293 0.045191
C21   C     C_R   0.579921 0.180362 0.217581 -0.142328
C22   C     C_R   0.569874 0.152228 0.285442 -0.174276
C23   C     C_1   0.127512 0.198229 0.859434 0.004686
C24   C     C_R   0.660668 0.148334 0.334343 0.059270
C25   C     C_R   0.082724 0.230706 0.928821 0.548862
C26   C     C_R   0.683673 0.605278 0.929685 0.553703
C27   C     C_R   0.708094 0.206408 0.930323 0.546849
C28   C     C_R   0.645511 0.113400 0.403228 0.573224
C29   C     C_R   0.085616 0.234719 0.124489 0.530524
C30   C     C_R   0.712418 0.543741 0.132150 0.587945
C31   C     C_R   0.709123 0.212502 0.127314 0.545185
C32   C     C_R   0.620722 0.732724 0.404129 0.552006
C33   C     C_R   0.298659 0.116200 0.393560 0.537485
C34   C     C_1   0.170342 0.170622 0.727500 -0.030895
C35   C     C_1   0.670479 0.647179 0.860239 0.004877
C36   C     C_1   0.655291 0.682811 0.728223 -0.031011
C37   C     C_1   0.663793 0.666760 0.799623 -0.031234
C38   C     C_3   0.390733 0.599125 0.230221 0.029880
C39   C     C_3   0.342478 0.533715 0.282789 -0.286363
C40   C     C_3   0.232639 0.638409 0.329214 -0.444130
C41   C     C_3   0.887726 0.263240 0.360672 0.001270
C42   C     C_3   0.932864 0.287536 0.430430 -0.226910
C43   C     C_3   0.818297 0.346191 0.482820 -0.400030
C44   C     C_1   0.150204 0.181969 0.798881 -0.030520
C45   C     C_1   0.193625 0.161662 0.666999 0.002341
C46   C     C_1   0.678457 0.190887 0.860935 0.005686
C47   C     C_1   0.658440 0.168199 0.728882 -0.030670
C48   C     C_1   0.665502 0.181071 0.800338 -0.030537
Cr1   Cr    Cr6+3 0.404720 0.198220 0.499960 1.018983
Cr2   Cr    Cr6+3 0.698290 0.897110 0.500380 1.086261
Cr3   Cr    Cr6+3 0.396970 0.904720 0.499610 1.021329
Cr4   Cr    Cr6+3 0.926180 0.152240 0.028110 1.024957
Cr5   Cr    Cr6+3 0.921340 0.452070 0.027460 1.025962
Cr6   Cr    Cr6+3 0.626260 0.447120 0.028700 1.045624
H1    H     H_    0.515142 0.599210 0.345161 0.142504
H2    H     H_    0.334965 0.612649 0.181719 0.152816
H3    H     H_    0.365525 0.702800 0.246150 0.119545
H4    H     H_    0.304080 0.475269 0.255102 0.147844
H5    H     H_    0.426751 0.462226 0.315444 0.182644
H6    H     H_    0.269954 0.696433 0.358283 0.150679
H7    H     H_    0.201356 0.587101 0.366707 0.197869
H8    H     H_    0.145231 0.708726 0.298030 0.197455
H9    H     H_    0.801532 0.359495 0.343424 0.129013
H10   H     H_    0.971069 0.232468 0.323414 0.144488
H11   H     H_    0.016076 0.191469 0.450034 0.202008
H12   H     H_    0.860533 0.206107 0.229778 0.099943
H13   H     H_    0.970508 0.358854 0.424029 0.164375
H14   H     H_    0.734756 0.443370 0.464530 0.145238
H15   H     H_    0.854567 0.364002 0.532408 0.134913
H16   H     H_    0.780820 0.275397 0.491550 0.188239
H17   H     H_    0.510496 0.181037 0.179966 0.123607
H18   H     H_    0.494983 0.127172 0.299785 0.121002
H19   H     H_    0.887951 0.578137 0.209738 0.173282
H20   H     H_    0.254277 0.324439 0.314842 0.151759
H21   H     H_    0.174013 0.370115 0.199925 0.141876
H22   H     H_    0.163567 0.999086 0.192886 0.132841
H23   H     H_    0.252340 0.949040 0.310086 0.136706
O1    O     O_R   0.267740 0.231990 0.575440 -0.498109
O2    O     O_R   0.596140 0.579600 0.952720 -0.504245
O3    O     O_R   0.639070 0.321380 0.958660 -0.496912
O4    O     O_R   0.527280 0.186680 0.570530 -0.495677
O5    O     O_R   0.821240 0.124490 0.104360 -0.519165
O6    O     O_R   0.036900 0.167320 0.097830 -0.509192
O7    O     O_R   0.056190 0.349890 0.102870 -0.532544
O8    O     O_R   0.797670 0.565150 0.097930 -0.513725
O9    O     O_R   0.595880 0.584540 0.104260 -0.467972
O10   O     O_R   0.638830 0.325960 0.099140 -0.481869
O11   O     O_3   0.824590 0.350480 0.028090 -0.285601
O12   O     O_R   0.685970 0.784630 0.430010 -0.442831
O13   O     O_R   0.728090 0.003480 0.576380 -0.500248
O14   O     O_R   0.682970 0.789220 0.570490 -0.491243
O15   O     O_R   0.499290 0.771920 0.575530 -0.506288
O16   O     O_R   0.285330 0.030900 0.569730 -0.488187
O17   O     O_R   0.270980 0.227040 0.423900 -0.521925
O18   O     O_R   0.530280 0.182090 0.430050 -0.540780
O19   O     O_R   0.731330 0.998530 0.424830 -0.445011
O20   O     O_3   0.528593 0.512890 0.216004 -0.547095
O21   O     O_3   0.855653 0.160027 0.366098 -0.557208
O22   O     O_R   0.502530 0.766960 0.423990 -0.545747
O23   O     O_R   0.288330 0.026310 0.429250 -0.502342
O24   O     O_3   0.499990 0.000020 0.499980 -0.277004
O25   O     O_R   0.821500 0.119550 0.952820 -0.501528
O26   O     O_R   0.037130 0.162750 0.957360 -0.490691
O27   O     O_R   0.056440 0.344950 0.951330 -0.502236
O28   O     O_R   0.797900 0.560570 0.957460 -0.487629

loop_
_geom_bond_atom_site_label_1
_geom_bond_atom_site_label_2
_ccdc_geom_bond_type
Cr2   O19   S    
C27   C46   S    
C39   H5    S    
C19   H12   S    
C18   C19   A    
C40   H6    S    
Cr1   O1    S    
C6    C7    A    
C10   C17   A    
Cr2   O24   S    
Cr3   O24   S    
Cr4   O6    S    
C23   C44   T    
C5    O20   S    
C13   C29   S    
Cr2   O12   S    
Cr1   O17   S    
Cr4   O26   S    
C14   C15   A    
C31   O10   A    
C2    C47   T    
C16   O1    A    
C43   H16   S    
Cr6   O10   S    
Cr2   O13   S    
C7    C8    A    
C41   H10   S    
Cr3   O16   S    
Cr6   O3    S    
C8    C9    A    
C12   C36   T    
C25   O26   A    
C30   O8    A    
C20   C21   A    
C3    H1    S    
C29   O6    A    
C40   H7    S    
C22   H18   S    
C25   O27   A    
C21   H17   S    
C24   C28   S    
C20   C31   S    
Cr3   O23   S    
C33   O23   A    
C6    C30   S    
Cr5   O28   S    
C43   H14   S    
Br1   C8    S    
C16   C45   S    
Cr5   O11   S    
C3    C5    A    
C26   O2    A    
C38   C39   S    
Cr5   O8    S    
C18   O21   S    
C42   H13   S    
C38   O20   S    
C26   O28   A    
C38   H3    S    
Cr3   O22   S    
C42   C43   S    
C36   C37   S    
Cr2   O14   S    
C28   O18   A    
C7    H19   S    
Cr3   O15   S    
C33   O17   A    
C29   O7    A    
C43   H15   S    
C17   C33   S    
C47   C48   S    
C11   C13   A    
Cr1   O24   S    
C11   H21   S    
Cr4   O11   S    
C1    O4    A    
C30   O9    A    
C41   C42   S    
C40   H8    S    
C3    C9    A    
C34   C44   S    
C41   H9    S    
Cr1   O4    S    
C31   O5    A    
C39   C40   S    
Cr5   O27   S    
C27   O3    A    
C13   C14   A    
C4    C12   S    
C23   C25   S    
Cr5   O7    S    
C4    O15   A    
C10   C11   A    
C5    C6    A    
C26   C35   S    
C46   C48   T    
C28   O19   A    
Cr4   O5    S    
C32   O22   A    
C35   C37   T    
C1    C2    S    
Cr6   O11   S    
C10   H20   S    
C41   O21   S    
Cr6   O2    S    
C27   O25   A    
Cr1   O18   S    
C14   H22   S    
Cr4   O25   S    
C42   H11   S    
C9    C32   S    
C15   H23   S    
C22   C24   A    
Cr6   O9    S    
C1    O13   A    
C18   C24   A    
C4    O14   A    
C19   C20   A    
C15   C17   A    
C39   H4    S    
C21   C22   A    
C16   O16   A    
C32   O12   A    
C34   C45   T    
C38   H2    S    
