data_mof_unit_31528.cif
_audit_creation_date              2012-12-11T16:24:13-0500
_audit_creation_method            fapswitch 2.2
_symmetry_space_group_name_H-M    P1
_symmetry_Int_Tables_number       1
_space_group_crystal_system       triclinic
_cell_length_a                    14.738696
_cell_length_b                    14.739998
_cell_length_c                    33.334442
_cell_angle_alpha                 96.188591
_cell_angle_beta                  96.58422
_cell_angle_gamma                 61.182049
_cell_volume                      6291.65101534

loop_
_atom_site_label
_atom_site_type_symbol
_atom_type_description
_atom_site_fract_x
_atom_site_fract_y
_atom_site_fract_z
_atom_type_partial_charge
C1    C     C_R   0.390658 0.699354 0.445686 0.569071
C2    C     C_R   0.330733 0.351060 0.308250 0.023125
C3    C     C_R   0.409836 0.266427 0.328168 -0.108037
C4    C     C_R   0.429581 0.274892 0.369955 -0.123069
C5    C     C_R   0.394245 0.251244 0.166108 -0.069726
C6    C     C_R   0.384940 0.231920 0.124394 -0.093312
C7    C     C_R   0.212762 0.380943 0.121150 -0.091859
C8    C     C_R   0.222336 0.400077 0.162928 -0.063861
C9    C     C_R   0.311742 0.333256 0.185493 0.037408
C10   C     C_1   0.315917 0.342857 0.228721 0.014922
C11   C     C_1   0.321008 0.347406 0.265012 0.002026
C12   C     C_R   0.405816 0.386702 0.433857 0.536555
C13   C     C_R   0.292499 0.294280 0.101718 0.007236
C14   C     C_R   0.747022 0.375732 0.408945 -0.069206
C15   C     C_R   0.816882 0.406141 0.398267 -0.149629
C16   C     C_R   0.846016 0.388069 0.358319 0.234045
C17   C     C_R   0.804756 0.337892 0.329174 0.048888
C18   C     C_R   0.734729 0.306926 0.340485 0.229368
C19   C     C_R   0.709470 0.323009 0.380356 -0.123024
C20   C     C_R   0.853447 0.307036 0.206501 0.337809
C21   C     C_R   0.828045 0.323881 0.286544 0.370946
C22   C     C_R   0.845790 0.386004 0.143958 -0.140802
C23   C     C_R   0.700246 0.409978 0.447661 0.544948
C24   C     C_R   0.861429 0.381111 0.103275 0.201245
C25   C     C_R   0.910442 0.196718 0.098493 0.243935
C26   C     C_R   0.901656 0.200951 0.140489 0.272763
C27   C     C_R   0.868872 0.296908 0.163159 -0.054342
C28   C     C_R   0.903667 0.283539 0.081205 -0.019013
C29   C     C_R   0.370240 0.749786 0.406893 -0.016019
C30   C     C_R   0.275438 0.774987 0.383292 0.219254
C31   C     C_R   0.268765 0.785274 0.341423 0.244877
C32   C     C_R   0.351375 0.787013 0.324482 -0.073280
C33   C     C_R   0.438708 0.777064 0.349079 -0.175216
C34   C     C_R   0.393568 0.701629 0.561264 0.547223
C35   C     C_R   0.450962 0.755120 0.389917 0.217968
C36   C     C_R   0.347045 0.813875 0.201073 0.441784
C37   C     C_R   0.350161 0.797554 0.281174 0.387339
C38   C     C_R   0.282509 0.801052 0.129567 0.169805
C39   C     C_R   0.259669 0.838843 0.090926 -0.150697
C40   C     C_R   0.371450 0.917523 0.107677 -0.115978
C41   C     C_R   0.393945 0.882304 0.146626 0.224830
C42   C     C_R   0.345678 0.827496 0.158219 0.012207
C43   C     C_R   0.300298 0.900856 0.080452 -0.073645
C44   C     C_R   0.371201 0.368337 0.584763 -0.032296
C45   C     C_R   0.407401 0.388727 0.548996 0.544602
C46   C     C_R   0.290317 0.449695 0.605344 -0.138635
C47   C     C_R   0.271437 0.437344 0.643782 -0.167183
C48   C     C_R   0.332703 0.343607 0.662582 0.015839
C49   C     C_R   0.409890 0.258171 0.640728 0.255787
C50   C     C_R   0.426893 0.271665 0.601801 -0.118132
C51   C     C_R   0.311590 0.338354 0.786180 0.384257
C52   C     C_R   0.320413 0.342530 0.705799 0.358156
C53   C     C_R   0.220063 0.400623 0.848778 -0.152135
C54   C     C_R   0.208438 0.386015 0.888322 0.251993
C55   C     C_R   0.383344 0.240657 0.890812 -0.155716
C56   C     C_R   0.702055 0.413402 0.562631 0.565698
C57   C     C_R   0.395411 0.255998 0.851573 0.251244
C58   C     C_R   0.310895 0.333456 0.829722 -0.019996
C59   C     C_R   0.288520 0.300918 0.908692 -0.025231
C60   C     C_R   0.755414 0.381626 0.603062 -0.008686
C61   C     C_R   0.763575 0.457069 0.630702 -0.159438
C62   C     C_R   0.792342 0.438309 0.671577 0.267079
C63   C     C_R   0.812411 0.343392 0.685245 -0.005096
C64   C     C_R   0.812741 0.264711 0.657783 -0.149593
C65   C     C_R   0.782601 0.283332 0.616563 0.251161
C66   C     C_R   0.883979 0.214058 0.822161 0.248087
C67   C     C_R   0.370091 0.368290 0.392145 0.005349
C68   C     C_R   0.906754 0.202848 0.864079 0.248323
C69   C     C_R   0.872641 0.382230 0.873555 -0.148063
C70   C     C_R   0.842892 0.395558 0.832374 0.226378
C71   C     C_R   0.853169 0.310106 0.806479 0.005943
C72   C     C_1   0.838405 0.319578 0.763558 0.078943
C73   C     C_1   0.827481 0.328772 0.727741 0.045768
C74   C     C_R   0.908501 0.285390 0.889628 -0.062993
C75   C     C_R   0.377375 0.755163 0.602110 0.020640
C76   C     C_R   0.278228 0.805455 0.617797 0.270340
C77   C     C_R   0.269817 0.832257 0.659350 -0.082963
C78   C     C_R   0.286040 0.450398 0.372119 -0.113320
C79   C     C_R   0.358210 0.812827 0.685132 0.001119
C80   C     C_R   0.455012 0.771047 0.669271 -0.096143
C81   C     C_R   0.464591 0.742668 0.628044 -0.157860
C82   C     C_R   0.394763 0.886619 0.832623 -0.101651
C83   C     C_R   0.375112 0.914420 0.873345 -0.121041
C84   C     C_R   0.228776 0.879831 0.862867 -0.119595
C85   C     C_R   0.248912 0.851659 0.822179 -0.126682
C86   C     C_R   0.330044 0.857857 0.806791 0.029363
C87   C     C_1   0.342313 0.841482 0.764077 -0.008905
C88   C     C_1   0.350289 0.829133 0.728116 0.000195
C89   C     C_R   0.266910 0.441889 0.330311 -0.089320
C90   C     C_R   0.289832 0.914492 0.888620 0.017097
C91   C     C_R   0.960673 0.265537 0.044786 0.576986
C92   C     C_R   0.272979 0.259414 0.060048 0.538329
C93   C     C_R   0.259796 0.959319 0.043703 0.543962
C94   C     C_R   0.962169 0.267595 0.930672 0.569915
C95   C     C_R   0.270310 0.263775 0.944967 0.562157
C96   C     C_R   0.255838 0.965264 0.928866 0.547499
Cr1   Cr    Cr6+3 0.576280 0.580550 0.506370 1.046034
Cr2   Cr    Cr6+3 0.346780 0.572400 0.496520 1.058937
Cr3   Cr    Cr6+3 0.576960 0.347070 0.497150 1.046905
Cr4   Cr    Cr6+3 0.087320 0.083240 0.984860 1.059600
Cr5   Cr    Cr6+3 0.087720 0.316210 0.996740 1.115446
Cr6   Cr    Cr6+3 0.317350 0.090340 0.995890 1.042746
H1    H     H_    0.447705 0.164655 0.110353 0.169654
H2    H     H_    0.654213 0.300128 0.388106 0.159242
H3    H     H_    0.815310 0.460397 0.160923 0.213624
H4    H     H_    0.206701 0.823726 0.069562 0.163364
H5    H     H_    0.463842 0.199373 0.183464 0.167202
H6    H     H_    0.498585 0.784393 0.335965 0.149231
H7    H     H_    0.403878 0.964560 0.099559 0.182767
H8    H     H_    0.245497 0.525075 0.592856 0.162650
H9    H     H_    0.488007 0.208197 0.585551 0.173929
H10   H     H_    0.211388 0.503156 0.659686 0.139706
H11   H     H_    0.459530 0.195796 0.311167 0.148250
H12   H     H_    0.155187 0.460546 0.832049 0.146209
H13   H     H_    0.446564 0.177092 0.906522 0.184774
H14   H     H_    0.833489 0.190059 0.668690 0.130101
H15   H     H_    0.741826 0.533403 0.621252 0.148591
H16   H     H_    0.872216 0.446941 0.892495 0.185734
H17   H     H_    0.494930 0.210539 0.384467 0.146566
H18   H     H_    0.423402 0.941114 0.892272 0.147199
H19   H     H_    0.457926 0.891414 0.820983 0.153938
H20   H     H_    0.523864 0.756035 0.689035 0.157455
H21   H     H_    0.541522 0.704797 0.617030 0.146136
H22   H     H_    0.198490 0.829273 0.802365 0.115845
H23   H     H_    0.162361 0.879405 0.873599 0.153622
H24   H     H_    0.194521 0.865255 0.671583 0.124106
H25   H     H_    0.239043 0.523563 0.388279 0.175158
H26   H     H_    0.158267 0.463990 0.177807 0.160577
H27   H     H_    0.140669 0.430385 0.104526 0.180353
H28   H     H_    0.205443 0.507680 0.315026 0.166736
H29   H     H_    0.847750 0.444582 0.420841 0.134093
N1    N     N_R   0.860456 0.383818 0.230753 -0.229575
N2    N     N_R   0.303650 0.427059 0.731088 -0.232609
N3    N     N_R   0.328716 0.257415 0.721351 -0.118576
N4    N     N_R   0.324734 0.255203 0.760854 -0.143584
N5    N     N_R   0.847440 0.392396 0.270040 -0.186872
N6    N     N_R   0.821651 0.246992 0.262275 -0.143800
N7    N     N_R   0.833565 0.239026 0.223012 -0.145220
N8    N     N_R   0.430539 0.737406 0.220359 -0.119518
N9    N     N_R   0.431989 0.729365 0.259841 -0.214176
N10   N     N_R   0.267489 0.874842 0.261874 -0.123971
N11   N     N_R   0.265992 0.882825 0.222449 -0.190222
N12   N     N_R   0.298931 0.425233 0.770613 -0.215620
O1    O     O_R   0.679450 0.499830 0.463150 -0.511127
O2    O     O_R   0.356040 0.477400 0.534170 -0.496505
O3    O     O_R   0.495910 0.323070 0.537100 -0.520296
O4    O     O_R   0.663920 0.359620 0.542290 -0.445693
O5    O     O_3   0.500010 0.500010 0.500010 -0.265256
O6    O     O_R   0.170070 0.978950 0.027680 -0.535482
O7    O     O_R   0.001760 0.175230 0.026640 -0.479888
O8    O     O_R   0.984760 0.333570 0.037150 -0.443347
O9    O     O_R   0.183410 0.309240 0.041890 -0.498559
O10   O     O_R   0.340240 0.172500 0.045430 -0.512699
O11   O     O_R   0.309670 0.000990 0.032050 -0.493403
O12   O     O_R   0.480650 0.664000 0.464630 -0.449182
O13   O     O_R   0.168330 0.982130 0.939200 -0.493154
O14   O     O_R   0.000140 0.178170 0.944610 -0.452206
O15   O     O_R   0.983010 0.336750 0.948660 -0.489021
O16   O     O_R   0.181800 0.312190 0.959860 -0.443972
O17   O     O_R   0.338500 0.175680 0.956950 -0.525512
O18   O     O_R   0.308050 0.003930 0.950020 -0.501769
O19   O     O_3   0.164130 0.163270 0.992500 -0.273563
O20   O     O_R   0.323930 0.675950 0.455370 -0.474993
O21   O     O_R   0.354700 0.475360 0.451930 -0.498825
O22   O     O_R   0.494470 0.320860 0.448390 -0.518703
O23   O     O_R   0.662580 0.357570 0.460050 -0.498810
O24   O     O_R   0.680900 0.502040 0.551870 -0.534314
O25   O     O_R   0.481990 0.666040 0.546870 -0.514721
O26   O     O_R   0.325370 0.678160 0.544080 -0.463601
S1    S     S_3+6 0.820401 0.500336 0.081206 0.043968
O27   O     O_2   0.910056 0.523005 0.083627 -0.267685
O28   O     O_2   0.782120 0.494457 0.037706 -0.259794
O29   O     O_3   0.723742 0.596818 0.106583 -0.487588
H30   H     H_    0.706585 0.660476 0.093135 0.383990
O30   O     O_3   0.920213 0.412100 0.348164 -0.532614
C97   C     C_3   0.880229 0.520766 0.350986 -0.091876
H31   H     H_    0.876604 0.551300 0.383047 0.097413
H32   H     H_    0.802581 0.561015 0.334300 0.116907
H33   H     H_    0.933581 0.539163 0.336885 0.168165
O31   O     O_3   0.689339 0.261493 0.312626 -0.532258
C98   C     C_3   0.590914 0.339449 0.298777 -0.090062
H34   H     H_    0.597339 0.400236 0.284053 0.137571
H35   H     H_    0.537941 0.375331 0.323759 0.112166
H36   H     H_    0.555474 0.303522 0.275730 0.164861
O32   O     O_3   0.908370 0.116879 0.072725 -0.526046
C99   C     C_3   0.995804 0.020535 0.080508 -0.030455
H37   H     H_    0.066917 0.027581 0.090343 0.104184
H38   H     H_    0.011018 0.970618 0.052078 0.154074
H39   H     H_    0.979617 0.980222 0.102680 0.165714
O33   O     O_3   0.918960 0.113109 0.158531 -0.535013
C100  C     C_3   0.018230 0.070240 0.179750 -0.077819
H40   H     H_    0.029317 0.127201 0.201597 0.143234
H41   H     H_    0.081372 0.036734 0.158796 0.084187
H42   H     H_    0.026831 0.006714 0.197458 0.215748
O34   O     O_3   0.191400 0.781294 0.400465 -0.488299
C101  C     C_3   0.135034 0.882716 0.417856 -0.056979
H43   H     H_    0.066643 0.888674 0.431190 0.151880
H44   H     H_    0.105752 0.941342 0.394635 0.151545
H45   H     H_    0.182488 0.900489 0.442676 0.091780
O35   O     O_3   0.537963 0.744835 0.414415 -0.529991
C102  C     C_3   0.630442 0.673544 0.396372 -0.086488
H46   H     H_    0.626101 0.604433 0.381171 0.111410
H47   H     H_    0.694571 0.645372 0.420449 0.152232
H48   H     H_    0.650815 0.712264 0.374873 0.105805
S2    S     S_3+6 0.159927 0.788798 0.310679 0.058235
O36   O     O_2   0.084668 0.899566 0.302147 -0.247957
O37   O     O_2   0.194644 0.726644 0.271369 -0.227634
O38   O     O_3   0.099497 0.739335 0.333915 -0.494920
H49   H     H_    0.041383 0.744226 0.314499 0.364141
S3    S     S_3+6 0.228049 0.724371 0.141870 0.034561
O39   O     O_2   0.187404 0.685618 0.104245 -0.290231
O40   O     O_2   0.309502 0.632864 0.164069 -0.201885
O41   O     O_3   0.130452 0.795360 0.171965 -0.460457
H50   H     H_    0.071780 0.841086 0.153656 0.336670
S4    S     S_3+6 0.475783 0.915341 0.181188 0.015734
O42   O     O_2   0.517780 0.972117 0.160863 -0.294614
O43   O     O_2   0.414894 0.983299 0.215778 -0.289998
O44   O     O_3   0.575419 0.806266 0.199082 -0.470318
H51   H     H_    0.611905 0.830319 0.220871 0.375028
O45   O     O_3   0.113633 0.446643 0.904534 -0.534407
C103  C     C_3   0.109907 0.540444 0.920975 -0.087401
H52   H     H_    0.112878 0.585952 0.897060 0.114379
H53   H     H_    0.173535 0.526348 0.945022 0.124140
H54   H     H_    0.035199 0.587999 0.935141 0.156038
S5    S     S_3+6 0.494032 0.137183 0.661786 0.015162
O46   O     O_2   0.543166 0.154740 0.701864 -0.237646
O47   O     O_2   0.432709 0.083181 0.667775 -0.246220
O48   O     O_3   0.588163 0.061014 0.630791 -0.579991
H55   H     H_    0.632921 0.997524 0.645505 0.373153
S6    S     S_3+6 0.515622 0.174415 0.830302 0.027208
O49   O     O_2   0.600555 0.129440 0.863329 -0.328677
O50   O     O_2   0.507828 0.087638 0.804757 -0.236740
O51   O     O_3   0.544151 0.242557 0.801304 -0.484746
H56   H     H_    0.611782 0.191995 0.790719 0.389528
O52   O     O_3   0.939000 0.107133 0.878885 -0.549367
C104  C     C_3   0.850379 0.102061 0.887712 -0.044004
H57   H     H_    0.799204 0.106645 0.859874 0.193980
H58   H     H_    0.806191 0.164025 0.910799 0.127419
H59   H     H_    0.875885 0.026271 0.900447 0.144510
O53   O     O_3   0.890332 0.131030 0.796615 -0.548996
C105  C     C_3   0.993753 0.070659 0.785958 -0.094110
H60   H     H_    0.048359 0.039876 0.813012 0.158187
H61   H     H_    0.017747 0.115560 0.768914 0.107135
H62   H     H_    0.999343 0.003254 0.765930 0.141838
O54   O     O_3   0.782852 0.205812 0.588880 -0.563912
C106  C     C_3   0.718693 0.168090 0.600594 -0.056188
H63   H     H_    0.645311 0.231260 0.612514 0.141962
H64   H     H_    0.761433 0.108552 0.623148 0.141934
H65   H     H_    0.696783 0.129932 0.573586 0.162777
O55   O     O_3   0.815582 0.489275 0.816805 -0.540587
C107  C     C_3   0.708608 0.554686 0.820655 -0.083915
H66   H     H_    0.690529 0.572086 0.852996 0.118144
H67   H     H_    0.661489 0.520551 0.803692 0.136019
H68   H     H_    0.685788 0.629319 0.807451 0.161674
O56   O     O_3   0.789874 0.517104 0.698733 -0.551142
C108  C     C_3   0.886840 0.514981 0.700361 -0.092392
H69   H     H_    0.901960 0.530684 0.670569 0.108370
H70   H     H_    0.950974 0.439722 0.710740 0.128972
H71   H     H_    0.885893 0.576986 0.722633 0.164894
O57   O     O_3   0.190202 0.820147 0.593605 -0.552062
C109  C     C_3   0.147567 0.917586 0.576990 -0.097970
H72   H     H_    0.202628 0.920870 0.557669 0.116018
H73   H     H_    0.123956 0.981579 0.601085 0.123467
H74   H     H_    0.076845 0.929880 0.557468 0.154814

loop_
_geom_bond_atom_site_label_1
_geom_bond_atom_site_label_2
_ccdc_geom_bond_type
C8    C9    A    
C39   H4    S    
C66   C68   A    
Cr3   O5    S    
O33   C100  S    
C64   H14   S    
C53   C58   A    
C55   C59   A    
Cr5   O9    S    
C52   N3    A    
C41   C42   A    
C74   C94   S    
C36   C42   S    
C21   N6    A    
S4    O42   D    
C49   C50   A    
Cr2   O20   S    
C26   O33   S    
O44   H51   S    
C7    C8    A    
C80   H20   S    
C53   C54   A    
C104  H57   S    
C25   C28   A    
C76   O57   S    
C26   C27   A    
O38   H49   S    
C55   H13   S    
C59   C95   S    
C81   H21   S    
C95   O16   A    
C5    C6    A    
Cr5   O19   S    
C31   S2    S    
C103  H54   S    
C69   C70   A    
S4    O43   D    
C85   C86   A    
C109  H72   S    
C41   S4    S    
C98   H36   S    
C16   C17   A    
S1    O27   D    
C2    C11   S    
C68   C74   A    
C15   C16   A    
C108  H71   S    
C98   H34   S    
C69   H16   S    
C101  H43   S    
S5    O48   S    
C96   O18   A    
C85   H22   S    
C17   C18   A    
C105  H60   S    
C102  H46   S    
C20   N7    A    
C1    O12   A    
C36   N11   A    
C79   C88   S    
C65   O54   S    
S5    O47   D    
C46   C47   A    
Cr2   O26   S    
C51   N4    A    
Cr4   O14   S    
C8    H26   S    
C97   H33   S    
C31   C32   A    
O35   C102  S    
C37   N9    A    
C108  H70   S    
C92   O9    A    
O52   C104  S    
C4    H17   S    
C92   O10   A    
C38   S3    S    
C29   C30   A    
C24   S1    S    
O51   H56   S    
Cr6   O11   S    
C82   H19   S    
N1    N5    A    
C34   C75   S    
C72   C73   T    
Cr3   O23   S    
Cr4   O13   S    
C97   H32   S    
C18   O31   S    
C94   O15   A    
O29   H30   S    
O54   C106  S    
C52   N2    A    
C102  H47   S    
C14   C23   S    
S6    O49   D    
C33   H6    S    
C84   C90   A    
C20   N1    A    
C101  H45   S    
C34   O25   A    
C78   H25   S    
C9    C10   S    
O45   C103  S    
S6    O51   S    
C44   C46   A    
C35   O35   S    
S5    O46   D    
C54   C59   A    
C98   H35   S    
C78   C89   A    
C62   O56   S    
C12   C67   S    
C106  H64   S    
N2    N12   A    
C32   C37   S    
C63   C64   A    
C61   H15   S    
C95   O17   A    
C47   C48   A    
C107  H66   S    
C84   C85   A    
C101  H44   S    
C3    H11   S    
S4    O44   S    
Cr6   O17   S    
C12   O22   A    
C109  H73   S    
C70   O55   S    
C18   C19   A    
C107  H68   S    
C39   C43   A    
C63   C73   S    
Cr4   O7    S    
C25   C26   A    
S2    O36   D    
Cr5   O8    S    
C17   C21   S    
C89   H28   S    
O34   C101  S    
C60   C61   A    
C105  H61   S    
C83   H18   S    
C2    C89   A    
C75   C76   A    
C100  H41   S    
Cr1   O1    S    
C5    C9    A    
C103  H52   S    
C68   O52   S    
C12   O21   A    
C23   O23   A    
C19   H2    S    
C30   O34   S    
O41   H50   S    
C30   C31   A    
Cr6   O19   S    
C108  H69   S    
C40   C43   A    
C62   C63   A    
C1    C29   S    
C93   O6    A    
C3    C4    A    
C77   C79   A    
C69   C74   A    
C51   C58   S    
C6    H1    S    
C76   C77   A    
S6    O50   D    
Cr6   O10   S    
Cr5   O16   S    
C70   C71   A    
C34   O26   A    
C25   O32   S    
C66   C71   A    
C16   O30   S    
Cr1   O24   S    
C97   H31   S    
Cr2   O2    S    
Cr3   O3    S    
Cr5   O15   S    
C82   C83   A    
C94   O14   A    
S3    O40   D    
C22   C27   A    
C46   H8    S    
C13   C92   S    
Cr1   O5    S    
C45   O2    A    
C23   O1    A    
C96   O13   A    
C49   S5    S    
O56   C108  S    
C22   H3    S    
C53   H12   S    
C5    H5    S    
S2    O38   S    
C44   C50   A    
C84   H23   S    
C83   C90   A    
Cr3   O4    S    
C106  H63   S    
C40   C41   A    
C21   N5    A    
C102  H48   S    
C66   O53   S    
C86   C87   S    
C14   C19   A    
C75   C81   A    
C44   C45   S    
C24   C28   A    
C77   H24   S    
C80   C81   A    
C4    C67   A    
C93   O11   A    
C60   C65   A    
C91   O7    A    
Cr2   O21   S    
N8    N9    A    
C90   C96   S    
C40   H7    S    
C20   C27   S    
C51   N12   A    
Cr4   O6    S    
S3    O41   S    
N6    N7    A    
C29   C35   A    
N3    N4    A    
O32   C99   S    
C54   O45   S    
C109  H74   S    
C104  H59   S    
C67   C78   A    
C43   C93   S    
C105  H62   S    
C32   C33   A    
C99   H39   S    
C55   C57   A    
C2    C3    A    
O55   C107  S    
C100  H42   S    
C71   C72   S    
C103  H53   S    
O30   C97   S    
C82   C86   A    
N10   N11   A    
O57   C109  S    
C6    C13   A    
C91   O8    A    
C57   S6    S    
C45   O3    A    
C57   C58   A    
C38   C39   A    
Cr2   O5    S    
C56   O4    A    
Cr6   O18   S    
C48   C49   A    
C56   O24   A    
C50   H9    S    
C33   C35   A    
C104  H58   S    
C28   C91   S    
C22   C24   A    
Cr1   O12   S    
Cr1   O25   S    
C37   N10   A    
C61   C62   A    
C100  H40   S    
C36   N8    A    
C7    H27   S    
C107  H67   S    
C10   C11   T    
C64   C65   A    
O48   H55   S    
C79   C80   A    
C38   C42   A    
C56   C60   S    
C7    C13   A    
C15   H29   S    
C1    O20   A    
C87   C88   T    
S3    O39   D    
O53   C105  S    
C14   C15   A    
Cr4   O19   S    
S1    O28   D    
C99   H37   S    
C48   C52   S    
S2    O37   D    
C99   H38   S    
C106  H65   S    
O31   C98   S    
C47   H10   S    
Cr3   O22   S    
S1    O29   S    
