data_mof_unit_17272.cif
_audit_creation_date              2012-12-10T20:31:08-0500
_audit_creation_method            fapswitch 2.2
_symmetry_space_group_name_H-M    P1
_symmetry_Int_Tables_number       1
_space_group_crystal_system       triclinic
_cell_length_a                    14.894871
_cell_length_b                    10.781625
_cell_length_c                    9.933083
_cell_angle_alpha                 90.427155
_cell_angle_beta                  90.151987
_cell_angle_gamma                 92.132005
_cell_volume                      1594.00750044

loop_
_atom_site_label
_atom_site_type_symbol
_atom_type_description
_atom_site_fract_x
_atom_site_fract_y
_atom_site_fract_z
_atom_type_partial_charge
Br1   Br    Br    0.755830 0.768281 0.495344 -0.358996
Br2   Br    Br    0.281446 0.288617 0.147141 -0.399419
Br3   Br    Br    0.874840 0.125271 0.412983 -0.278212
Br4   Br    Br    0.090917 0.137636 0.357037 -0.225510
Br5   Br    Br    0.905415 0.828030 0.722906 -0.279442
Br6   Br    Br    0.515693 0.128992 0.193702 -0.518172
C1    C     C_R   0.501138 0.260516 0.498808 0.938792
C2    C     C_R   0.183074 0.383899 0.504037 -0.083281
C3    C     C_R   0.231310 0.498014 0.499615 -0.173983
C4    C     C_R   0.327288 0.499164 0.499782 0.811863
C5    C     C_R   0.188406 0.611380 0.501939 -0.092666
C6    C     C_R   0.498750 0.063066 0.614474 0.147622
C7    C     C_R   0.501719 0.128728 0.494721 -0.171135
C8    C     C_R   0.504701 0.060507 0.371603 0.301132
C9    C     C_R   0.502926 0.932033 0.375469 -0.206755
C10   C     C_R   0.500110 0.869939 0.499040 -0.135978
C11   C     C_R   0.497605 0.938831 0.616579 0.149085
C12   C     C_R   0.909254 0.610547 0.546324 -0.019410
C13   C     C_3   0.501569 0.931269 0.767120 -0.322991
C14   C     C_3   0.502167 0.075445 0.765561 -0.194294
C15   C     C_R   0.439106 0.427226 0.070339 0.218247
C16   C     C_R   0.500606 0.739100 0.500352 0.947263
C17   C     C_R   0.560613 0.572401 0.072689 -0.095328
C18   C     C_R   0.565154 0.563668 0.929180 -0.034275
C19   C     C_R   0.437833 0.429827 0.928228 0.120993
C20   C     C_3   0.338657 0.442964 0.923534 -0.486659
C21   C     C_3   0.339546 0.438166 0.076095 0.067295
C22   C     C_R   0.672593 0.501625 0.500270 0.945180
C23   C     C_R   0.944004 0.276780 0.454650 0.231143
C24   C     C_R   0.816244 0.614582 0.525465 0.246475
C25   C     C_R   0.767783 0.503458 0.502350 -0.159497
C26   C     C_R   0.808621 0.391233 0.487421 -0.174125
C27   C     C_R   0.901528 0.387456 0.487327 -0.001766
C28   C     C_R   0.952376 0.498190 0.516305 -0.044545
C29   C     C_2   0.420457 0.867122 0.830836 0.505505
C30   C     C_2   0.420508 0.132281 0.826912 0.427755
C31   C     C_2   0.588988 0.133983 0.819075 0.431376
C32   C     C_2   0.614789 0.671801 0.143723 0.409954
C33   C     C_2   0.645150 0.618219 0.861418 0.606317
C34   C     C_R   0.037784 0.276374 0.448859 0.275055
C35   C     C_2   0.230825 0.269456 0.538168 0.586793
C36   C     C_2   0.239031 0.727530 0.462591 0.436041
C37   C     C_2   0.108864 0.817449 0.653206 0.603248
C38   C     C_R   0.089279 0.383889 0.488946 -0.011030
C39   C     C_R   0.045994 0.496932 0.514194 0.013675
C40   C     C_R   0.096478 0.609785 0.533744 0.018356
C41   C     C_R   0.054322 0.714556 0.589115 -0.131412
C42   C     C_R   0.960173 0.712501 0.599784 0.311655
H1    H     H_    0.505393 0.881439 0.280973 0.212779
H2    H     H_    0.632753 0.665300 0.247567 0.168943
H3    H     H_    0.711487 0.594256 0.895740 0.056588
H4    H     H_    0.298327 0.255630 0.501652 0.066259
H5    H     H_    0.310240 0.739498 0.483485 0.071356
H6    H     H_    0.170611 0.797546 0.705710 0.066735
H7    H     H_    0.565631 0.894057 0.803110 0.223517
H8    H     H_    0.319714 0.534712 0.884152 0.210323
H9    H     H_    0.302932 0.362434 0.874712 0.273681
H10   H     H_    0.318726 0.525680 0.124837 0.158808
H11   H     H_    0.766387 0.308643 0.470788 0.202331
H12   H     H_    0.414653 0.866913 0.939681 0.076243
H13   H     H_    0.415088 0.140229 0.935341 0.115175
H14   H     H_    0.604570 0.127113 0.925279 0.125030
N1    N     N_R   0.499390 0.499140 0.142800 -0.159334
N2    N     N_R   0.499390 0.499180 0.857150 -0.130981
O1    O     O_R   0.500010 0.316790 0.614690 -0.590070
O2    O     O_2   0.359354 0.167303 0.756592 -0.528283
O3    O     O_2   0.642561 0.188129 0.745137 -0.523036
O4    O     O_2   0.637448 0.767854 0.086608 -0.559601
O5    O     O_2   0.638680 0.696289 0.774568 -0.528584
O6    O     O_2   0.196171 0.192024 0.612771 -0.445032
O7    O     O_2   0.201956 0.808887 0.400948 -0.484588
O8    O     O_2   0.087342 0.925206 0.643635 -0.410537
O9    O     O_R   0.500000 0.316760 0.385350 -0.571360
O10   O     O_R   0.367850 0.499990 0.614680 -0.609770
O11   O     O_R   0.367840 0.499950 0.385340 -0.611582
O12   O     O_R   0.500000 0.683240 0.614650 -0.549080
O13   O     O_R   0.499990 0.683210 0.385310 -0.678279
O14   O     O_R   0.632160 0.500050 0.614660 -0.587646
O15   O     O_R   0.632150 0.500010 0.385320 -0.650110
O16   O     O_2   0.361618 0.815415 0.762711 -0.581277
Zn1   Zn    Zn3+2 0.500010 0.500020 0.653130 1.035232
Zn2   Zn    Zn3+2 0.499990 0.499980 0.346870 0.984214

loop_
_geom_bond_atom_site_label_1
_geom_bond_atom_site_label_2
_ccdc_geom_bond_type
C33   H3    S    
C37   O8    D    
C13   C14   S    
C16   O12   A    
C31   H14   S    
C1    O9    A    
C39   C40   A    
C20   C21   S    
C36   H5    S    
C24   C25   A    
C30   O2    D    
C1    O1    A    
C9    C10   A    
C23   C27   A    
C29   O16   D    
C18   C33   S    
C5    C36   S    
Br3   C23   S    
C22   O15   A    
C36   O7    D    
C25   C26   A    
C2    C3    A    
C6    C11   A    
C17   C18   A    
Br2   C21   S    
C12   C24   A    
C22   O14   A    
C3    C4    S    
C35   H4    S    
C17   N1    A    
C15   C21   S    
C18   N2    A    
C7    C8    A    
Br5   C42   S    
N1    Zn2   S    
Br4   C34   S    
C2    C35   S    
C10   C11   A    
C19   C20   S    
C20   H8    S    
C29   H12   S    
C19   N2    A    
Br6   C8    S    
C3    C5    A    
C4    O11   A    
C37   H6    S    
O1    Zn1   S    
C41   C42   A    
C1    C7    S    
C6    C14   S    
C27   C28   A    
C33   O5    D    
C28   C39   A    
C12   C28   A    
C32   O4    D    
O10   Zn1   S    
C30   H13   S    
O9    Zn2   S    
C38   C39   A    
C13   H7    S    
C15   C19   A    
C40   C41   A    
C10   C16   S    
C22   C25   S    
C2    C38   A    
C16   O13   A    
C21   H10   S    
C12   C42   A    
O12   Zn1   S    
O15   Zn2   S    
O11   Zn2   S    
C32   H2    S    
C17   C32   S    
C26   C27   A    
C13   C29   S    
C14   C31   S    
C4    O10   A    
O14   Zn1   S    
O13   Zn2   S    
C31   O3    D    
C23   C34   A    
Br1   C24   S    
C11   C13   S    
C9    H1    S    
C20   H9    S    
N2    Zn1   S    
C15   N1    A    
C14   C30   S    
C34   C38   A    
C6    C7    A    
C8    C9    A    
C5    C40   A    
C26   H11   S    
C37   C41   S    
C35   O6    D    
