data_mof_unit_20109.cif
_audit_creation_date              2012-10-26T19:06:30-0400
_audit_creation_method            fapswitch 2.2
_symmetry_space_group_name_H-M    P1
_symmetry_Int_Tables_number       1
_space_group_crystal_system       triclinic
_cell_length_a                    12.495831
_cell_length_b                    13.112038
_cell_length_c                    14.319907
_cell_angle_alpha                 75.671988
_cell_angle_beta                  101.061062
_cell_angle_gamma                 116.919175
_cell_volume                      2018.28838402

loop_
_atom_site_label
_atom_site_type_symbol
_atom_type_description
_atom_site_fract_x
_atom_site_fract_y
_atom_site_fract_z
_atom_type_partial_charge
C1    C     C_R   0.855157 0.286106 0.507506 0.534765
C2    C     C_R   0.440170 0.980711 0.467842 0.034200
C3    C     C_R   0.407057 0.062920 0.400313 0.035510
C4    C     C_R   0.000584 0.499645 0.668674 0.550558
C5    C     C_R   0.495030 0.171355 0.364050 -0.133130
C6    C     C_R   0.615165 0.201535 0.396691 -0.111883
C7    C     C_R   0.347797 0.872129 0.501119 -0.108012
C8    C     C_R   0.195871 0.923443 0.393536 0.004309
C9    C     C_R   0.772268 0.161459 0.511576 -0.008763
C10   C     C_R   0.353565 0.335522 0.658291 -0.128442
C11   C     C_R   0.747812 0.616949 0.356723 0.049743
C12   C     C_1   0.997919 0.500547 0.228603 -0.010941
C13   C     C_R   0.636517 0.591732 0.303728 -0.131699
C14   C     C_R   0.532847 0.523603 0.351312 -0.047782
C15   C     C_R   0.539760 0.498479 0.452892 0.037055
C16   C     C_R   0.144586 0.714844 0.485196 0.558269
C17   C     C_R   0.651829 0.498972 0.498158 0.172970
C18   C     C_R   0.438642 0.456064 0.509517 -0.026405
C19   C     C_R   0.445927 0.384813 0.599796 -0.059518
C20   C     C_R   0.548014 0.364130 0.634433 -0.161155
C21   C     C_R   0.650616 0.423271 0.586152 -0.087106
C22   C     C_R   0.337111 0.487269 0.486213 0.339123
C23   C     C_R   0.286479 0.034887 0.366019 -0.110714
C24   C     C_R   0.254882 0.361513 0.635622 0.355975
C25   C     C_R   0.999124 0.500101 0.331327 0.542598
C26   C     C_1   0.001681 0.499364 0.771368 -0.001686
C27   C     C_1   0.001445 0.499448 0.856837 -0.012818
C28   C     C_1   0.000449 0.499825 0.957364 0.017059
C29   C     C_1   0.999393 0.500211 0.042631 0.016439
C30   C     C_1   0.998272 0.500549 0.143142 -0.016382
C31   C     C_3   0.071838 0.896759 0.340166 -0.265999
C32   C     C_3   0.053924 0.836479 0.256067 -0.417846
C33   C     C_R   0.227396 0.839954 0.462056 0.023299
C34   C     C_R   0.810015 0.077368 0.567177 -0.119591
C35   C     C_R   0.727798 0.961636 0.588070 -0.132474
C36   C     C_R   0.606039 0.928374 0.557020 -0.097823
C37   C     C_R   0.564406 0.010162 0.499277 0.043343
C38   C     C_R   0.651125 0.125624 0.469446 0.025467
Cu1   Cu    Cu3+1 0.098280 0.475420 0.520190 1.116261
Cu2   Cu    Cu3+1 0.901720 0.524580 0.479810 0.897061
H1    H     H_    0.550934 0.305845 0.702457 0.122205
H2    H     H_    0.902797 0.101185 0.596678 0.185755
H3    H     H_    0.547600 0.837331 0.576766 0.127249
H4    H     H_    0.758126 0.897555 0.631166 0.133958
H5    H     H_    0.679544 0.283909 0.361482 0.148236
H6    H     H_    0.057153 0.750953 0.282788 0.173594
H7    H     H_    0.965335 0.823141 0.214658 0.129641
H8    H     H_    0.125485 0.891330 0.206245 0.163389
H9    H     H_    0.999372 0.845895 0.389279 0.175507
H10   H     H_    0.061311 0.978700 0.309412 0.139555
H11   H     H_    0.276359 0.721588 0.290623 0.352100
H12   H     H_    0.363123 0.280622 0.726611 0.169365
H13   H     H_    0.976253 0.236096 0.764512 0.349978
H14   H     H_    0.827918 0.663793 0.318837 0.127207
H15   H     H_    0.449190 0.489492 0.308086 0.186306
H16   H     H_    0.630671 0.619229 0.225880 0.118994
H17   H     H_    0.724352 0.402456 0.617859 0.174232
H18   H     H_    0.471027 0.233118 0.309298 0.112659
H19   H     H_    0.263745 0.098788 0.312966 0.115425
H20   H     H_    0.367710 0.809186 0.556644 0.124570
N1    N     N_R   0.246290 0.438200 0.550780 -0.267869
N2    N     N_R   0.754310 0.561180 0.449760 -0.238825
O1    O     O_R   0.972510 0.318130 0.525390 -0.448569
O2    O     O_2   0.289343 0.528993 0.292450 -0.336023
O3    O     O_3   0.262750 0.675958 0.357142 -0.496147
O4    O     O_2   0.179850 0.203151 0.798492 -0.311528
O5    O     O_2   0.201503 0.398074 0.792894 -0.285324
O6    O     O_3   0.012669 0.256365 0.702983 -0.524675
O7    O     O_R   0.806530 0.359650 0.491290 -0.522199
O8    O     O_R   0.083010 0.479240 0.641000 -0.397471
O9    O     O_R   0.917030 0.520750 0.606900 -0.517374
O10   O     O_R   0.193470 0.640350 0.508710 -0.436235
O11   O     O_R   0.027490 0.681870 0.474610 -0.513456
O12   O     O_R   0.082970 0.479250 0.393100 -0.402290
O13   O     O_R   0.916990 0.520760 0.359000 -0.526746
O14   O     O_2   0.465706 0.682898 0.362696 -0.312805
S1    S     S_3+6 0.338011 0.594055 0.375291 0.017833
S2    S     S_3+6 0.161286 0.304533 0.733969 0.025944

loop_
_geom_bond_atom_site_label_1
_geom_bond_atom_site_label_2
_ccdc_geom_bond_type
C15   C18   A    
C24   N1    A    
C6    H5    S    
C7    C33   A    
O2    S1    D    
C3    C23   A    
C35   C36   A    
C34   H2    S    
C11   N2    A    
C10   H12   S    
C4    O8    A    
C20   H1    S    
C23   H19   S    
C26   C27   T    
C37   C38   A    
C5    H18   S    
C28   C29   T    
Cu2   O9    S    
C25   O12   A    
C5    C6    A    
C17   N2    A    
C8    C23   A    
Cu2   N2    S    
Cu2   O11   S    
C34   C35   A    
H11   O3    S    
Cu1   O12   S    
H13   O6    S    
C2    C7    A    
C19   C20   A    
C16   O10   A    
Cu1   O10   S    
C6    C38   A    
C13   H16   S    
C14   H15   S    
C13   C14   A    
C32   H8    S    
O5    S2    D    
C31   H9    S    
Cu1   N1    S    
C1    O1    A    
O6    S2    S    
O4    S2    D    
O3    S1    S    
Cu2   O7    S    
C16   O11   A    
C1    C9    S    
O14   S1    D    
Cu1   Cu2   S    
C18   C19   A    
C10   C24   A    
C1    O7    A    
C25   O13   A    
C21   H17   S    
C29   C30   S    
C16   C33   S    
C31   C32   S    
C10   C19   A    
C35   H4    S    
C11   H14   S    
C24   S2    S    
C9    C34   A    
C32   H7    S    
C31   H10   S    
C7    H20   S    
C15   C17   A    
C36   C37   A    
C12   C30   T    
C18   C22   A    
C8    C31   S    
C32   H6    S    
C22   S1    S    
C3    C5    A    
C4    C26   S    
Cu1   O1    S    
Cu2   O13   S    
C12   C25   S    
C2    C3    A    
C22   N1    A    
C11   C13   A    
C2    C37   A    
C9    C38   A    
Cu1   O8    S    
C8    C33   A    
C17   C21   A    
C20   C21   A    
C27   C28   S    
C14   C15   A    
C36   H3    S    
C4    O9    A    
