data_mof_unit_55799.cif
_audit_creation_date              2013-03-05T15:53:18-0500
_audit_creation_method            fapswitch 2.2
_symmetry_space_group_name_H-M    P1
_symmetry_Int_Tables_number       1
_space_group_crystal_system       triclinic
_cell_length_a                    27.049083
_cell_length_b                    7.196163
_cell_length_c                    22.67811
_cell_angle_alpha                 89.756485
_cell_angle_beta                  101.48285
_cell_angle_gamma                 89.846027
_cell_volume                      4325.86323313

loop_
_atom_site_label
_atom_site_type_symbol
_atom_site_description
_atom_site_fract_x
_atom_site_fract_y
_atom_site_fract_z
_atom_type_partial_charge
O1    O     O_R   0.207310 0.594030 0.676830 -0.577327
O2    O     O_R   0.792690 0.405970 0.323170 -0.584688
O3    O     O_R   0.292690 0.094030 0.823170 -0.579083
O4    O     O_R   0.707310 0.905970 0.176830 -0.576179
O5    O     O_R   0.197320 0.262370 0.795700 -0.556842
O6    O     O_R   0.802680 0.737630 0.204300 -0.544866
O7    O     O_R   0.302680 0.762370 0.704300 -0.553442
O8    O     O_R   0.697320 0.237630 0.295700 -0.536594
C1    C     C_R   0.184014 0.432313 0.811143 0.991763
C2    C     C_R   0.816084 0.567457 0.189049 0.984184
C3    C     C_R   0.316179 0.932495 0.689138 0.990728
C4    C     C_R   0.684075 0.067654 0.311199 0.991529
O9    O     O_R   0.201410 0.264250 0.675590 -0.574824
O10   O     O_R   0.798590 0.735750 0.324410 -0.570601
O11   O     O_R   0.298590 0.764250 0.824410 -0.571628
O12   O     O_R   0.701410 0.235750 0.175590 -0.569131
O13   O     O_R   0.296810 0.094940 0.702210 -0.584514
O14   O     O_R   0.703190 0.905060 0.297790 -0.592326
O15   O     O_R   0.203190 0.594940 0.797790 -0.584971
O16   O     O_R   0.796810 0.405060 0.202210 -0.592674
C5    C     C_R   0.189440 0.433317 0.653184 1.000335
C6    C     C_R   0.810123 0.566129 0.347111 1.007081
C7    C     C_R   0.310506 0.932318 0.846758 0.997143
C8    C     C_R   0.689697 0.067744 0.153099 1.003329
O17   O     O_3   0.281300 0.427390 0.758870 -0.266500
O18   O     O_3   0.718700 0.572610 0.241130 -0.262973
O19   O     O_3   0.218700 0.927390 0.741130 -0.270853
O20   O     O_3   0.781300 0.072610 0.258870 -0.272749
V1    V     V_3+5 0.244190 0.152150 0.748350 1.290957
V2    V     V_3+5 0.755810 0.847850 0.251650 1.294016
V3    V     V_3+5 0.255810 0.652150 0.751650 1.296797
V4    V     V_3+5 0.744190 0.347850 0.248350 1.304120
C9    C     C_R   0.656713 0.061597 0.092482 -0.286635
C10   C     C_R   0.346395 0.937935 0.905477 -0.273347
C11   C     C_R   0.842554 0.548479 0.408087 -0.276343
C12   C     C_R   0.155486 0.439455 0.592886 -0.272952
C13   C     C_R   0.646794 0.053160 0.983274 -0.214241
C14   C     C_R   0.366412 0.877145 0.013656 -0.238667
C15   C     C_R   0.854011 0.430745 0.511165 -0.247185
C16   C     C_R   0.139877 0.363096 0.486077 -0.245438
C17   C     C_R   0.677861 0.072235 0.040964 0.346290
C18   C     C_R   0.332268 0.868549 0.957621 0.373494
C19   C     C_R   0.822384 0.468653 0.454811 0.364254
C20   C     C_R   0.173035 0.374916 0.542615 0.374474
C21   C     C_R   0.604427 0.043200 0.086179 -0.164305
C22   C     C_R   0.396247 0.996059 0.908297 -0.267768
C23   C     C_R   0.895023 0.569369 0.415983 -0.294185
C24   C     C_R   0.104226 0.483701 0.587059 -0.283100
C25   C     C_R   0.571393 0.053568 0.029005 0.154015
C26   C     C_R   0.432765 0.986721 0.962755 0.110211
C27   C     C_R   0.928289 0.501355 0.468449 0.117545
C28   C     C_R   0.068622 0.451125 0.532706 0.119041
C29   C     C_R   0.592895 0.054904 0.976660 -0.001458
C30   C     C_R   0.414727 0.960491 0.016703 0.061036
C31   C     C_R   0.907216 0.463024 0.519536 0.033839
C32   C     C_R   0.088020 0.417901 0.479955 0.027052
C33   C     C_R   0.517440 0.053102 0.022901 0.105094
C34   C     C_R   0.486088 0.011001 0.966029 -0.017517
C35   C     C_R   0.981589 0.472643 0.471602 0.002608
C36   C     C_R   0.014681 0.455301 0.529228 0.005042
C37   C     C_R   0.509228 0.993947 0.915029 -0.142987
C38   C     C_R   0.493557 0.096084 0.071756 -0.190717
C39   C     C_R   0.992592 0.431115 0.581095 -0.129750
C40   C     C_R   0.002217 0.447055 0.418863 -0.112819
C41   C     C_R   0.559903 0.049352 0.919344 -0.139666
C42   C     C_R   0.443748 0.034274 0.070744 -0.166014
C43   C     C_R   0.939937 0.450778 0.576720 -0.160495
C44   C     C_R   0.055006 0.436450 0.422998 -0.162722
H1    H     H_    0.405536 0.051967 0.867629 0.167454
H2    H     H_    0.590056 0.019454 0.126749 0.122019
H3    H     H_    0.092832 0.543552 0.625832 0.171452
H4    H     H_    0.909438 0.633152 0.379666 0.185672
C45   C     C_R   0.645975 0.901894 0.388147 -0.141956
C46   C     C_R   0.356106 0.101556 0.614354 -0.102708
C47   C     C_R   0.855530 0.399125 0.113918 -0.122717
C48   C     C_R   0.145034 0.599443 0.886889 -0.107846
H5    H     H_    0.673846 0.794232 0.387987 0.197507
H6    H     H_    0.329101 0.211864 0.615403 0.203271
H7    H     H_    0.828336 0.289610 0.114888 0.196185
H8    H     H_    0.172212 0.708707 0.885779 0.197293
C49   C     C_R   0.613031 0.885862 0.428575 -0.042160
C50   C     C_R   0.389148 0.117430 0.574054 -0.050258
C51   C     C_R   0.888608 0.383237 0.073646 -0.047383
C52   C     C_R   0.112246 0.615233 0.927510 -0.048551
C53   C     C_R   0.576682 0.027112 0.430114 0.044928
C54   C     C_R   0.424948 0.974633 0.571930 0.034995
C55   C     C_R   0.924546 0.525013 0.071575 0.034764
C56   C     C_R   0.076433 0.473366 0.929926 0.035432
C57   C     C_R   0.575866 0.182727 0.392191 -0.256182
C58   C     C_R   0.425069 0.817634 0.609124 -0.236130
C59   C     C_R   0.924880 0.680812 0.108900 -0.239677
C60   C     C_R   0.076162 0.316992 0.892895 -0.237106
H9    H     H_    0.547572 0.289661 0.392180 0.173368
H10   H     H_    0.453063 0.709785 0.608843 0.175368
H11   H     H_    0.953008 0.787676 0.108718 0.174909
H12   H     H_    0.048290 0.209536 0.893625 0.175689
C61   C     C_R   0.608769 0.197829 0.351408 0.374256
C62   C     C_R   0.391795 0.801899 0.649476 0.387474
C63   C     C_R   0.891715 0.696231 0.149351 0.397561
C64   C     C_R   0.109131 0.301174 0.852211 0.385000
C65   C     C_R   0.645167 0.056546 0.349816 -0.257258
C66   C     C_R   0.355740 0.944310 0.651374 -0.279591
C67   C     C_R   0.855460 0.555286 0.151099 -0.269337
C68   C     C_R   0.144946 0.443440 0.849613 -0.279233
N1    N     N_R   0.524849 0.162940 0.497703 -0.042532
N2    N     N_R   0.476984 0.838527 0.504571 -0.045867
N3    N     N_R   0.976350 0.661498 0.003904 -0.043856
N4    N     N_R   0.024767 0.337092 0.997800 -0.044309
N5    N     N_R   0.489274 0.150953 0.530708 -0.031877
N6    N     N_R   0.512574 0.850485 0.471583 -0.035307
N7    N     N_R   0.012001 0.649807 0.970997 -0.031355
N8    N     N_R   0.989117 0.348783 0.030707 -0.032205
C69   C     C_R   0.464303 0.988911 0.534509 0.219633
C70   C     C_R   0.537499 0.012597 0.467735 0.214066
C71   C     C_R   0.037227 0.487723 0.967551 0.220916
C72   C     C_R   0.963876 0.510839 0.034129 0.219869
C73   C     C_2   0.576589 0.114296 0.864172 0.592771
H13   H     H_    0.570181 0.031457 0.823618 0.082148
O21   O     O_2   0.597976 0.263464 0.863955 -0.533358
C74   C     C_2   0.419906 0.079600 0.122699 0.484670
H14   H     H_    0.439869 0.051408 0.168280 0.021889
O22   O     O_2   0.378507 0.154350 0.114893 -0.508211
C75   C     C_2   0.920101 0.475503 0.632878 0.599664
H15   H     H_    0.930520 0.379820 0.670391 0.067946
O23   O     O_2   0.892100 0.605641 0.637602 -0.527687
C76   C     C_2   0.075268 0.463765 0.367250 0.605191
H16   H     H_    0.061830 0.380027 0.327689 0.066200
O24   O     O_2   0.106990 0.582787 0.365207 -0.522972
N9    N     N_R   0.282514 0.795770 0.953694 0.240506
O25   O     O_R   0.243925 0.907884 0.944364 -0.414930
O26   O     O_R   0.275512 0.617237 0.955578 -0.375745
N10   N     N_R   0.731422 0.092669 0.047437 0.229708
O27   O     O_R   0.761988 0.965257 0.074640 -0.429626
O28   O     O_R   0.749672 0.244869 0.029316 -0.370181
N11   N     N_R   0.224866 0.319814 0.549394 0.234080
O29   O     O_R   0.260450 0.441321 0.565594 -0.421181
O30   O     O_R   0.236526 0.146424 0.543205 -0.398581
N12   N     N_R   0.770152 0.415574 0.443735 0.245741
O31   O     O_R   0.735116 0.537547 0.424338 -0.434454
O32   O     O_R   0.757890 0.241682 0.447176 -0.394481
C77   C     C_2   0.671075 0.996487 0.932604 0.715791
H17   H     H_    0.653645 0.890110 0.901581 -0.038379
O33   O     O_2   0.710091 0.067708 0.924497 -0.468840
C78   C     C_2   0.353890 0.784104 0.067631 0.766038
H18   H     H_    0.384041 0.730853 0.102564 -0.045865
O34   O     O_2   0.310425 0.768767 0.074395 -0.468243
C79   C     C_2   0.831899 0.333686 0.557865 0.744982
H19   H     H_    0.852863 0.223282 0.584638 -0.047199
O35   O     O_2   0.790682 0.378354 0.567593 -0.480893
C80   C     C_2   0.158408 0.270725 0.435981 0.745400
H20   H     H_    0.134130 0.174813 0.406841 -0.045937
O36   O     O_2   0.200262 0.303592 0.426023 -0.469851
C81   C     C_2   0.483820 0.891087 0.860622 0.501964
H21   H     H_    0.463884 0.763458 0.866123 0.079340
O37   O     O_2   0.482518 0.951090 0.809913 -0.550487
C82   C     C_2   0.516384 0.234033 0.118270 0.554632
H22   H     H_    0.509456 0.226936 0.163662 0.036487
O38   O     O_2   0.542137 0.361479 0.105464 -0.537205
C83   C     C_2   0.022314 0.348983 0.637507 0.473922
H23   H     H_    0.045761 0.227745 0.635023 0.078172
O39   O     O_2   0.022958 0.420856 0.686343 -0.538814
C84   C     C_2   0.968972 0.394113 0.360777 0.464221
H24   H     H_    0.939977 0.290013 0.360665 0.056598
O40   O     O_2   0.971813 0.471855 0.313600 -0.540439
C85   C     C_2   0.620176 0.723100 0.469873 0.604822
H25   H     H_    0.637752 0.597624 0.457157 0.079536
O41   O     O_2   0.609114 0.729531 0.519443 -0.543094
C86   C     C_2   0.382547 0.281649 0.533363 0.633692
H26   H     H_    0.365537 0.407614 0.546625 0.064159
O42   O     O_2   0.393290 0.275852 0.483619 -0.548201
C87   C     C_2   0.881926 0.220139 0.032988 0.639848
H27   H     H_    0.864399 0.094973 0.046027 0.068514
O43   O     O_2   0.893190 0.226077 0.983509 -0.546120
C88   C     C_2   0.119088 0.778276 0.968188 0.635985
H28   H     H_    0.136410 0.903656 0.954991 0.062514
O44   O     O_2   0.108139 0.772105 0.017833 -0.544942
N13   N     N_R   0.602309 0.351096 0.309740 0.240520
O45   O     O_R   0.589775 0.514115 0.326717 -0.418342
O46   O     O_R   0.599793 0.321144 0.252669 -0.409890
N14   N     N_R   0.397642 0.646955 0.690517 0.246949
O47   O     O_R   0.410846 0.485100 0.673348 -0.416937
O48   O     O_R   0.399244 0.674520 0.747539 -0.384236
N15   N     N_R   0.897968 0.848793 0.190826 0.245897
O49   O     O_R   0.910851 0.011518 0.173841 -0.417869
O50   O     O_R   0.900317 0.817791 0.247902 -0.377620
N16   N     N_R   0.103420 0.145444 0.811938 0.245801
O51   O     O_R   0.090270 0.984317 0.829892 -0.422141
O52   O     O_R   0.101969 0.171439 0.754815 -0.381929

loop_
_geom_bond_atom_site_label_1
_geom_bond_atom_site_label_2
_geom_bond_distance
_ccdc_geom_bond_type
C48   C68   1.407894 A    
C51   C55   1.418150 A    
C87   H27   1.085968 S    
O1    C5    1.328079 A    
C85   H25   1.085806 S    
C55   C59   1.406645 A    
O19   V1    1.755422 S    
C9    C21   1.399595 A    
O3    C7    1.327269 A    
C79   H19   1.085267 S    
C10   C18   1.403444 A    
C39   C83   1.487888 S    
O15   V3    1.970456 S    
C48   C52   1.404914 A    
C25   C33   1.438246 A    
N11   O29   1.300932 A    
C5    C12   1.488159 S    
C50   C86   1.484561 S    
N14   O47   1.301047 A    
O7    C3    1.341320 A    
C6    C11   1.487543 S    
C87   O43   1.220481 D    
C35   C40   1.429233 A    
C26   C30   1.416587 A    
C13   C77   1.490357 S    
C76   H16   1.084463 S    
C36   C39   1.431596 A    
C40   C44   1.414055 A    
N4    C71   1.358991 A    
O9    V1    1.983912 S    
C53   C70   1.490628 S    
C79   O35   1.221290 D    
C46   C50   1.404286 A    
C14   C18   1.416098 A    
N15   O50   1.301522 A    
O16   V4    1.970453 S    
O4    C8    1.327196 A    
C86   O42   1.220514 D    
C75   O23   1.221281 D    
C60   H12   1.083790 S    
O13   V1    1.970711 S    
C31   C43   1.419337 A    
C19   N12   1.437866 S    
O2    V4    1.974267 S    
C32   C44   1.422083 A    
O3    V1    1.969713 S    
C57   C61   1.409511 A    
C88   H28   1.085808 S    
C22   H1    1.079460 S    
C28   C36   1.445633 A    
C1    O15   1.339075 A    
C64   C68   1.420433 A    
C15   C31   1.433353 A    
C56   C60   1.406150 A    
C2    O16   1.337487 A    
N10   O27   1.301096 A    
C16   C32   1.435742 A    
C51   C87   1.484702 S    
O2    C6    1.323545 A    
C76   O24   1.221250 D    
C83   O39   1.221327 D    
C10   C22   1.402246 A    
C81   O37   1.220547 D    
C11   C19   1.406084 A    
N6    C70   1.360097 A    
C16   C20   1.413900 A    
C84   O40   1.221241 D    
N5    C69   1.360128 A    
C46   C66   1.407367 A    
C13   C29   1.435603 A    
C34   C37   1.426035 A    
O11   C7    1.328819 A    
C3    C66   1.500178 S    
C11   C23   1.403246 A    
C35   C36   1.434202 A    
O12   C8    1.328594 A    
C42   C74   1.488362 S    
C47   C67   1.408014 A    
N3    N7    1.334379 A    
O10   V2    1.983913 S    
C52   C88   1.484658 S    
C45   C49   1.404597 A    
C74   O22   1.221342 D    
C49   C53   1.417643 A    
C58   H10   1.083764 S    
O5    V1    1.983261 S    
O1    V3    1.974263 S    
N3    C72   1.358973 A    
C39   C43   1.414558 A    
O7    V3    1.982335 S    
C38   C42   1.415809 A    
N2    C69   1.358935 A    
C16   C80   1.488345 S    
C63   N15   1.437019 S    
C26   C34   1.440535 A    
C52   C56   1.417608 A    
N1    C70   1.358791 A    
C75   H15   1.084330 S    
C40   C84   1.491124 S    
C63   C67   1.418628 A    
C54   C58   1.406656 A    
C53   C57   1.406516 A    
O18   V4    1.750718 S    
C15   C19   1.414233 A    
C33   C38   1.423853 A    
C62   C66   1.419473 A    
C57   H9    1.083804 S    
N4    N8    1.334343 A    
C43   C75   1.488272 S    
C77   O33   1.220487 D    
O8    V4    1.982336 S    
C64   N16   1.437833 S    
N15   O49   1.301089 A    
O5    C1    1.341353 A    
C49   C85   1.484500 S    
C61   N13   1.436769 S    
C83   H23   1.085477 S    
C14   C30   1.428639 A    
C21   C25   1.422215 A    
O8    C4    1.340480 A    
C7    C10   1.484335 S    
C4    O14   1.338360 A    
O9    C5    1.330541 A    
N9    O26   1.300905 A    
C55   C72   1.491045 S    
N12   O32   1.301421 A    
N10   O28   1.300767 A    
O14   V2    1.970716 S    
C78   O34   1.220787 D    
C86   H26   1.085813 S    
O6    V2    1.983261 S    
C54   C69   1.491137 S    
C80   O36   1.221216 D    
C12   C20   1.399824 A    
C27   C35   1.443476 A    
C24   H3    1.078915 S    
C62   N14   1.437401 S    
C44   C76   1.487188 S    
N8    C72   1.360047 A    
C29   C41   1.423487 A    
C74   H14   1.084743 S    
C60   C64   1.409747 A    
C84   H24   1.085675 S    
N2    N6    1.334352 A    
N11   O30   1.301169 A    
N1    N5    1.334278 A    
C2    C67   1.499278 S    
C45   H5    1.080078 S    
C45   C65   1.406683 A    
N14   O48   1.301310 A    
C21   H2    1.080848 S    
C14   C78   1.490174 S    
O17   V3    1.750719 S    
C3    O13   1.338047 A    
C48   H8    1.081483 S    
C78   H18   1.085379 S    
C37   C81   1.488447 S    
O6    C2    1.342328 A    
C17   N10   1.434846 S    
C23   C27   1.425232 A    
O11   V3    1.992130 S    
C30   C42   1.422967 A    
O12   V4    1.992127 S    
C22   C26   1.420817 A    
C4    C65   1.499251 S    
C8    C9    1.483286 S    
C9    C17   1.401285 A    
O10   C6    1.334521 A    
C56   C71   1.491232 S    
C73   O21   1.221226 D    
N9    O25   1.300505 A    
O20   V2    1.755421 S    
C50   C54   1.417602 A    
C73   H13   1.083046 S    
C47   C51   1.404760 A    
C33   C34   1.429560 A    
C47   H7    1.082627 S    
C20   N11   1.434263 S    
C1    C68   1.500480 S    
C25   C29   1.422101 A    
C82   O38   1.221660 D    
C88   O44   1.220509 D    
N13   O46   1.301369 A    
C12   C24   1.402008 A    
C18   N9    1.431720 S    
C27   C31   1.415731 A    
C13   C17   1.414605 A    
C61   C65   1.418925 A    
C23   H4    1.080107 S    
N12   O31   1.299367 A    
C59   H11   1.083806 S    
C37   C41   1.413238 A    
C24   C28   1.425779 A    
C82   H22   1.083436 S    
C38   C82   1.494084 S    
C85   O41   1.220524 D    
N13   O45   1.301163 A    
C46   H6    1.080830 S    
C15   C79   1.488421 S    
C41   C73   1.486129 S    
C80   H20   1.085303 S    
N7    C71   1.360094 A    
C59   C63   1.409443 A    
N16   O51   1.301008 A    
C77   H17   1.085215 S    
N16   O52   1.300906 A    
C58   C62   1.409936 A    
O4    V2    1.969708 S    
C28   C32   1.419597 A    
C81   H21   1.085519 S    
