data_mof_unit_58766.cif
_audit_creation_date              2013-03-05T15:48:42-0500
_audit_creation_method            fapswitch 2.2
_symmetry_space_group_name_H-M    P1
_symmetry_Int_Tables_number       1
_space_group_crystal_system       triclinic
_cell_length_a                    22.348624
_cell_length_b                    6.951337
_cell_length_c                    19.386883
_cell_angle_alpha                 89.9996
_cell_angle_beta                  99.276742
_cell_angle_gamma                 90.001081
_cell_volume                      2972.4161693

loop_
_atom_site_label
_atom_site_type_symbol
_atom_site_description
_atom_site_fract_x
_atom_site_fract_y
_atom_site_fract_z
_atom_type_partial_charge
O1    O     O_R   0.448420 0.506120 0.415750 -0.587605
O2    O     O_R   0.551580 0.006120 0.584250 -0.587603
O3    O     O_R   0.436490 0.174470 0.555610 -0.590463
O4    O     O_R   0.563510 0.674470 0.444390 -0.590464
C1    C     C_R   0.421148 0.344621 0.575719 0.972980
C2    C     C_R   0.578852 0.844625 0.424282 0.972981
O5    O     O_R   0.441310 0.176330 0.414520 -0.588363
O6    O     O_R   0.558690 0.676330 0.585480 -0.588366
O7    O     O_R   0.556430 0.007110 0.442150 -0.588839
O8    O     O_R   0.443570 0.507110 0.557850 -0.588839
C3    C     C_R   0.426871 0.345078 0.388323 0.925295
C4    C     C_R   0.573128 0.845079 0.611677 0.925297
O9    O     O_3   0.537770 0.339560 0.509230 -0.270852
O10   O     O_3   0.462230 0.839560 0.490770 -0.270854
V1    V     V_3+5 0.492990 0.064280 0.498290 1.167372
V2    V     V_3+5 0.507010 0.564280 0.501710 1.167368
C5    C     C_R   0.867170 0.971994 0.695593 -0.173892
C6    C     C_R   0.132838 0.472156 0.304402 -0.173901
H1    H     H_    0.954378 0.998976 0.759618 0.113394
H2    H     H_    0.045630 0.499141 0.240377 0.113407
H3    H     H_    0.784939 0.965398 0.580777 0.130311
H4    H     H_    0.215072 0.465638 0.419215 0.130315
H5    H     H_    0.885613 0.996614 0.647955 0.115025
H6    H     H_    0.114399 0.496855 0.352038 0.115029
C7    C     C_R   0.884467 0.940970 0.821528 -0.103046
C8    C     C_R   0.115534 0.440983 0.178472 -0.103070
C9    C     C_R   0.589879 0.822054 0.739951 -0.176790
C10   C     C_R   0.410115 0.321947 0.260052 -0.176784
C11   C     C_R   0.626478 0.822017 0.805122 -0.045347
C12   C     C_R   0.373514 0.321866 0.194882 -0.045341
C13   C     C_R   0.688825 0.850757 0.811144 -0.151957
C14   C     C_R   0.311169 0.350645 0.188859 -0.151933
C15   C     C_R   0.716557 0.881027 0.751386 0.069672
C16   C     C_R   0.283442 0.381004 0.248615 0.069667
C17   C     C_R   0.678441 0.882583 0.684381 0.108340
C18   C     C_R   0.321560 0.382614 0.315617 0.108342
C19   C     C_R   0.780714 0.909681 0.755895 0.088203
C20   C     C_R   0.219287 0.409695 0.244104 0.088202
C21   C     C_R   0.804790 0.940995 0.693274 0.187162
C22   C     C_R   0.195216 0.441107 0.306723 0.187164
C23   C     C_R   0.766612 0.941899 0.628571 -0.234308
C24   C     C_R   0.233396 0.442064 0.371424 -0.234307
C25   C     C_R   0.704581 0.912823 0.624073 -0.206109
C26   C     C_R   0.295425 0.412946 0.375923 -0.206120
C27   C     C_R   0.822082 0.909084 0.820088 -0.225863
C28   C     C_R   0.177916 0.409045 0.179914 -0.225851
C29   C     C_R   0.906499 0.973006 0.759116 -0.163558
C30   C     C_R   0.093507 0.473123 0.240880 -0.163544
C31   C     C_R   0.614845 0.852398 0.679226 -0.175856
C32   C     C_R   0.385154 0.352385 0.320774 -0.175866
H7    H     H_    0.807427 0.886244 0.869752 0.124826
H8    H     H_    0.192567 0.386130 0.130253 0.124836
H9    H     H_    0.541594 0.798040 0.736816 0.117028
H10   H     H_    0.458398 0.297893 0.263188 0.117033
H11   H     H_    0.714000 0.848432 0.863406 0.154701
H12   H     H_    0.285992 0.348279 0.136599 0.154703
H13   H     H_    0.606320 0.798768 0.851614 0.156241
H14   H     H_    0.393668 0.298546 0.148392 0.156239
H15   H     H_    0.677135 0.914622 0.572667 0.110834
H16   H     H_    0.322873 0.414787 0.427328 0.110851
C33   C     C_3   0.780075 0.690346 0.224283 0.168245
C34   C     C_3   0.219930 0.190380 0.775734 0.168163
C35   C     C_3   0.806394 0.033490 0.271565 -0.002960
C36   C     C_3   0.193594 0.533462 0.728414 -0.002954
C37   C     C_3   0.762090 0.996669 0.324783 -0.566078
C38   C     C_3   0.237912 0.496661 0.675208 -0.566087
H17   H     H_    0.758802 0.626171 0.325893 0.053334
H18   H     H_    0.241189 0.126179 0.674121 0.053325
H19   H     H_    0.823189 0.644626 0.255804 0.076556
H20   H     H_    0.176815 0.144624 0.744227 0.076630
H21   H     H_    0.798186 0.185903 0.254791 0.135524
H22   H     H_    0.201780 0.685896 0.745168 0.135569
H23   H     H_    0.785646 0.923606 0.372520 0.187035
H24   H     H_    0.214367 0.423604 0.627465 0.187051
H25   H     H_    0.746442 0.137244 0.342811 0.164747
H26   H     H_    0.253562 0.637242 0.657188 0.164744
C39   C     C_1   0.624201 0.854146 0.378541 -0.309485
C40   C     C_1   0.375800 0.354134 0.621461 -0.309480
C41   C     C_3   0.788582 0.907055 0.203317 -0.055423
C42   C     C_3   0.211414 0.407099 0.796677 -0.055476
C43   C     C_3   0.731859 0.671707 0.274854 -0.063620
C44   C     C_3   0.268138 0.171722 0.725156 -0.063505
C45   C     C_3   0.706469 0.875047 0.290325 0.276499
C46   C     C_3   0.293532 0.375050 0.709676 0.276510
C47   C     C_3   0.679046 0.979316 0.221013 -0.519915
C48   C     C_3   0.320956 0.479333 0.778985 -0.519987
C49   C     C_3   0.725552 0.992584 0.168138 0.215754
C50   C     C_3   0.274437 0.492718 0.831840 0.215885
C51   C     C_1   0.661461 0.863220 0.339344 -0.001333
C52   C     C_1   0.338540 0.363207 0.660658 -0.001334
C53   C     C_1   0.836002 0.926493 0.157466 0.171099
C54   C     C_1   0.163995 0.426526 0.842530 0.171051
C55   C     C_1   0.874727 0.939195 0.120253 -0.189199
C56   C     C_1   0.125271 0.439212 0.879744 -0.189232
H27   H     H_    0.732258 0.148381 0.158585 0.140193
H28   H     H_    0.267726 0.648542 0.841334 0.140215
H29   H     H_    0.634990 0.917204 0.198056 0.217991
H30   H     H_    0.364999 0.417178 0.801958 0.218028
H31   H     H_    0.667023 0.127780 0.234458 0.163004
H32   H     H_    0.333004 0.627764 0.765529 0.162949
O11   O     O_R   0.056480 0.288780 0.942210 -0.584737
O12   O     O_R   0.943520 0.788780 0.057790 -0.584689
O13   O     O_R   0.058700 0.616820 0.085490 -0.591825
O14   O     O_R   0.941300 0.116820 0.914510 -0.591832
C57   C     C_R   0.073179 0.448386 0.111707 0.934512
C58   C     C_R   0.926821 0.948384 0.888293 0.934484
O15   O     O_R   0.063520 0.618570 0.944410 -0.576691
O16   O     O_R   0.936480 0.118570 0.055590 -0.576702
O17   O     O_R   0.948420 0.787670 0.915740 -0.591434
O18   O     O_R   0.051580 0.287670 0.084260 -0.591437
C59   C     C_R   0.078963 0.449772 0.924197 0.959861
C60   C     C_R   0.921037 0.949768 0.075802 0.959854
O19   O     O_3   0.962260 0.453430 0.990800 -0.264270
O20   O     O_3   0.037740 0.953430 0.009200 -0.264291
V3    V     V_3+5 0.007000 0.728750 0.001710 1.213655
V4    V     V_3+5 0.993000 0.228750 0.998290 1.213632
N1    N     N_2   0.870266 0.032600 0.304045 -0.091340
H33   H     H_    0.880904 0.144561 0.338846 0.176994
C61   C     C_3   0.901380 0.856183 0.327661 -0.921871
H34   H     H_    0.945035 0.891099 0.361473 0.240202
H35   H     H_    0.912970 0.774889 0.282395 0.252175
H36   H     H_    0.874197 0.767888 0.358874 0.238846
N2    N     N_2   0.129724 0.532470 0.695928 -0.091339
H37   H     H_    0.119063 0.644463 0.661149 0.176991
C62   C     C_3   0.098638 0.356025 0.672289 -0.921910
H38   H     H_    0.054999 0.390898 0.638439 0.240201
H39   H     H_    0.087021 0.274724 0.717540 0.252166
H40   H     H_    0.125853 0.267751 0.641108 0.238857
N3    N     N_R   0.702311 0.912159 0.098619 0.287980
O21   O     O_R   0.644709 0.878538 0.079746 -0.365373
O22   O     O_R   0.735913 0.919842 0.049769 -0.368042
N4    N     N_R   0.297660 0.412510 0.901398 0.287994
O23   O     O_R   0.355233 0.378295 0.920237 -0.365253
O24   O     O_R   0.264093 0.420722 0.950273 -0.368105
N5    N     N_R   0.771932 0.556439 0.164557 0.245321
O25   O     O_R   0.720848 0.539362 0.122396 -0.335915
O26   O     O_R   0.817433 0.450484 0.153341 -0.438204
N6    N     N_R   0.228091 0.056509 0.835472 0.245317
O27   O     O_R   0.279157 0.039722 0.877688 -0.335749
O28   O     O_R   0.182649 0.950181 0.846606 -0.438361
N7    N     N_2   0.687610 0.515863 0.257217 -0.097353
H41   H     H_    0.686531 0.420894 0.297903 0.148100
C63   C     C_3   0.627653 0.546354 0.217407 -0.732188
H42   H     H_    0.605078 0.405230 0.205743 0.220601
H43   H     H_    0.629736 0.615028 0.166681 0.307913
H44   H     H_    0.598888 0.631038 0.247698 0.212552
N8    N     N_2   0.312381 0.015867 0.742795 -0.097366
H45   H     H_    0.313446 0.920866 0.702117 0.148098
C64   C     C_3   0.372343 0.046343 0.782593 -0.732330
H46   H     H_    0.394917 0.905220 0.794247 0.220582
H47   H     H_    0.370268 0.114989 0.833333 0.307959
H48   H     H_    0.401103 0.131037 0.752299 0.212599

loop_
_geom_bond_atom_site_label_1
_geom_bond_atom_site_label_2
_geom_bond_distance
_ccdc_geom_bond_type
C63   H44   1.107434 S    
C12   C14   1.393775 A    
C57   O18   1.296707 A    
C50   H28   1.112907 S    
O4    V2    1.966813 S    
C7    C27   1.407545 A    
C9    C11   1.390020 A    
C23   C25   1.389725 A    
O12   C60   1.297442 A    
N8    H45   1.031827 S    
O1    C3    1.298184 A    
O2    C4    1.298178 A    
C35   C37   1.561958 S    
C2    O7    1.304931 A    
O14   C58   1.296502 A    
O20   V3    1.702983 S    
C18   C32   1.424175 A    
N2    H37   1.032309 S    
C21   C23   1.398717 A    
C35   C41   1.584837 S    
C40   C52   1.216083 T    
O5    C3    1.298161 A    
C39   C51   1.216080 T    
C5    H5    1.083917 S    
C46   C52   1.493261 S    
C6    H6    1.083913 S    
C34   C42   1.579722 S    
N8    C64   1.450041 S    
C46   C48   1.562398 S    
O17   V3    1.988988 S    
N1    C61   1.447207 S    
C35   N1    1.464373 S    
C48   C50   1.575745 S    
C37   C45   1.561555 S    
C27   H7    1.077571 S    
C63   H42   1.109610 S    
C38   H24   1.111073 S    
C28   H8    1.077569 S    
C56   C59   1.451465 S    
C37   H23   1.111087 S    
C34   H20   1.101357 S    
C63   H43   1.100868 S    
C5    C21   1.404202 A    
C6    C22   1.404202 A    
O12   V3    1.966259 S    
O14   V4    1.993351 S    
C10   C32   1.397681 A    
N4    O23   1.301535 A    
C49   H27   1.112915 S    
C17   C31   1.424172 A    
C62   H40   1.109238 S    
C13   C15   1.414939 A    
C17   C25   1.404511 A    
C7    C29   1.395766 A    
C41   C53   1.495079 S    
C8    C30   1.395764 A    
O19   V4    1.703004 S    
C43   N7    1.469489 S    
C34   C44   1.574681 S    
O6    V2    1.993338 S    
C42   C50   1.578975 S    
C36   C42   1.584820 S    
N7    H41   1.031843 S    
C24   C26   1.389725 A    
C8    C57   1.476137 S    
C41   C49   1.578976 S    
C43   C45   1.569964 S    
C7    C58   1.476133 S    
C44   N8    1.469481 S    
C47   C49   1.575757 S    
C45   C51   1.493258 S    
C26   H16   1.082838 S    
N5    O25   1.297963 A    
C47   H29   1.101187 S    
O4    C2    1.308294 A    
C64   H48   1.107421 S    
C10   H10   1.083927 S    
C2    C39   1.451775 S    
C15   C19   1.436222 A    
O16   C60   1.301193 A    
N7    C63   1.450055 S    
C36   C38   1.561981 S    
C42   C54   1.495073 S    
O13   V3    1.993360 S    
C4    C31   1.480916 S    
C47   H31   1.108068 S    
C53   C55   1.215960 T    
O6    C4    1.298166 A    
C38   H26   1.112984 S    
C54   C56   1.215962 T    
H1    C29   1.083641 S    
O13   C57   1.296496 A    
O1    V2    1.987878 S    
C34   N6    1.473904 S    
O2    V1    1.987885 S    
O15   V3    1.966876 S    
H2    C30   1.083642 S    
C61   H35   1.108991 S    
N6    O28   1.301890 A    
H3    C23   1.084130 S    
C45   C47   1.562400 S    
C35   H21   1.114742 S    
H17   C43   1.117927 S    
C44   C46   1.569943 S    
O9    V1    2.154010 S    
C62   H38   1.110963 S    
O10   V2    2.154041 S    
C18   C26   1.404507 A    
C50   N4    1.474119 S    
C19   C27   1.425685 A    
O18   V4    1.988984 S    
C48   H32   1.108050 S    
C33   N5    1.473906 S    
N3    O21   1.301484 A    
C61   H36   1.109243 S    
C33   H19   1.101370 S    
N5    O26   1.301962 A    
C16   C20   1.436223 A    
O15   C59   1.301189 A    
C5    C29   1.392940 A    
C11   H13   1.082766 S    
C22   C24   1.398720 A    
O3    C1    1.308292 A    
C6    C30   1.392939 A    
O20   V4    2.153872 S    
C61   H34   1.110968 S    
C9    H9    1.083926 S    
C25   H15   1.082839 S    
O11   C59   1.297445 A    
C36   N2    1.464372 S    
C37   H25   1.112995 S    
H18   C44   1.117917 S    
C49   N3    1.474145 S    
C64   H47   1.101006 S    
O7    V1    1.962190 S    
C1    O8    1.304934 A    
C11   C13   1.393776 A    
C3    C32   1.480920 S    
O8    V2    1.962173 S    
N1    H33   1.032333 S    
C20   C22   1.421751 A    
O16   V4    1.966853 S    
H4    C24   1.084127 S    
C33   C41   1.579735 S    
C12   H14   1.082764 S    
O5    V1    1.993345 S    
C15   C17   1.434010 A    
C10   C12   1.390019 A    
C16   C18   1.434010 A    
C36   H22   1.114727 S    
C48   H30   1.101164 S    
C20   C28   1.425688 A    
N2    C62   1.447194 S    
N6    O27   1.297994 A    
C8    C28   1.407548 A    
C55   C60   1.451463 S    
C38   C46   1.561572 S    
N3    O22   1.301151 A    
C19   C21   1.421754 A    
N4    O24   1.301151 A    
O9    V2    1.703446 S    
C62   H39   1.108978 S    
O11   V4    1.966243 S    
O10   V1    1.703424 S    
O3    V1    1.966836 S    
C33   C43   1.574708 S    
C13   H11   1.076832 S    
C1    C40   1.451776 S    
C64   H46   1.109586 S    
C14   H12   1.076830 S    
C9    C31   1.397682 A    
C14   C16   1.414936 A    
O19   V3    2.153841 S    
C58   O17   1.296703 A    
