data_mof_unit_26768.cif
_audit_creation_date              2012-10-26T20:36:00-0400
_audit_creation_method            fapswitch 2.2
_symmetry_space_group_name_H-M    P1
_symmetry_Int_Tables_number       1
_space_group_crystal_system       triclinic
_cell_length_a                    10.630874
_cell_length_b                    15.753243
_cell_length_c                    17.111778
_cell_angle_alpha                 96.393374
_cell_angle_beta                  88.976949
_cell_angle_gamma                 92.211409
_cell_volume                      2845.51345297

loop_
_atom_site_label
_atom_site_type_symbol
_atom_type_description
_atom_site_fract_x
_atom_site_fract_y
_atom_site_fract_z
_atom_type_partial_charge
Br1   Br    Br    0.137528 0.848336 0.558026 -0.388551
Br2   Br    Br    0.862010 0.151196 0.447169 -0.396777
C1    C     C_R   0.496920 0.489592 0.348551 0.594448
C2    C     C_R   0.497300 0.525806 0.902174 0.228650
C3    C     C_R   0.499646 0.399847 0.135224 -0.092149
C4    C     C_R   0.499437 0.600361 0.864822 -0.097894
C5    C     C_R   0.499864 0.404474 0.216948 -0.115807
C6    C     C_R   0.501790 0.595734 0.783078 -0.142013
C7    C     C_R   0.437893 0.751737 0.463347 0.093358
C8    C     C_R   0.561201 0.248298 0.537224 0.094593
C9    C     C_R   0.442086 0.841142 0.465114 -0.057979
C10   C     C_R   0.556652 0.158912 0.535653 -0.056037
C11   C     C_R   0.526407 0.891174 0.515629 0.235969
C12   C     C_R   0.502282 0.510412 0.651489 0.587509
C13   C     C_R   0.472920 0.108861 0.484751 0.235882
C14   C     C_R   0.604505 0.848495 0.562426 -0.096026
C15   C     C_R   0.395516 0.151518 0.437520 -0.097273
C16   C     C_R   0.261523 0.501288 0.512849 0.605169
C17   C     C_R   0.738547 0.498704 0.487170 0.608270
C18   C     C_R   0.597548 0.758952 0.558670 0.082698
C19   C     C_R   0.402733 0.241048 0.441137 0.081712
C20   C     C_R   0.088139 0.349884 0.555634 0.195461
C21   C     C_R   0.912593 0.650622 0.446530 0.236189
C22   C     C_R   0.025956 0.271654 0.533289 -0.125033
C23   C     C_R   0.494384 0.484013 0.262589 0.017075
C24   C     C_R   0.973819 0.728860 0.470520 -0.116464
C25   C     C_R   0.932875 0.264022 0.477157 0.136602
C26   C     C_R   0.066499 0.735785 0.526897 0.122422
C27   C     C_R   0.892329 0.337124 0.446240 0.280289
C28   C     C_R   0.107019 0.662122 0.556880 0.271982
C29   C     C_R   0.939366 0.419560 0.478795 -0.083266
C30   C     C_R   0.060633 0.580156 0.523003 -0.078248
C31   C     C_R   0.051957 0.424541 0.522435 -0.063603
C32   C     C_R   0.948479 0.575438 0.479004 -0.057883
C33   C     C_R   0.877367 0.496714 0.471253 0.062531
C34   C     C_R   0.501785 0.515939 0.737512 0.024696
C35   C     C_R   0.122976 0.503168 0.529740 0.065275
C36   C     C_R   0.487763 0.558675 0.225468 -0.145940
C37   C     C_R   0.499627 0.440982 0.774762 -0.107991
C38   C     C_R   0.487650 0.554064 0.143928 -0.074139
C39   C     C_R   0.497360 0.445597 0.856302 -0.067186
C40   C     C_R   0.494085 0.474157 0.097977 0.230407
Cu1   Cu    Cu3+1 0.493970 0.415220 0.496180 1.085111
Cu2   Cu    Cu3+1 0.506030 0.584780 0.503820 1.082618
H1    H     H_    0.618463 0.129735 0.573666 0.148649
H2    H     H_    0.483258 0.620819 0.259381 0.161402
H3    H     H_    0.495546 0.386402 0.883003 0.154706
H4    H     H_    0.482790 0.613017 0.117283 0.156862
H5    H     H_    0.504495 0.338122 0.100626 0.138952
H6    H     H_    0.499294 0.662315 0.899347 0.144686
H7    H     H_    0.505172 0.345930 0.244254 0.169391
H8    H     H_    0.503092 0.654521 0.755691 0.169596
H9    H     H_    0.625948 0.286185 0.576163 0.116444
H10   H     H_    0.372742 0.713860 0.424681 0.121699
H11   H     H_    0.033460 0.355784 0.722441 0.345951
H12   H     H_    0.379585 0.870343 0.427535 0.149181
H13   H     H_    0.755260 0.557320 0.269503 0.374606
H14   H     H_    0.829564 0.232795 0.249099 0.372172
H15   H     H_    0.214372 0.601625 0.744848 0.373958
H16   H     H_    0.670709 0.884546 0.601791 0.134391
H17   H     H_    0.329677 0.115458 0.397911 0.134519
H18   H     H_    0.658443 0.726864 0.594974 0.125868
H19   H     H_    0.342337 0.273124 0.404521 0.128073
H20   H     H_    0.051424 0.215185 0.559340 0.204157
H21   H     H_    0.948329 0.785828 0.445281 0.199966
H22   H     H_    0.499313 0.378599 0.740961 0.167219
N1    N     N_2   0.495579 0.465469 0.014640 -0.233735
N2    N     N_2   0.495319 0.534551 0.985522 -0.233194
N3    N     N_R   0.515100 0.712130 0.509560 -0.191298
N4    N     N_R   0.484900 0.287870 0.490440 -0.192011
N5    N     N_2   0.536240 0.982916 0.521529 -0.203947
N6    N     N_2   0.463014 0.017122 0.478886 -0.204982
O1    O     O_R   0.494360 0.420530 0.382500 -0.483022
O2    O     O_2   0.243409 0.435937 0.665407 -0.255803
O3    O     O_3   0.101263 0.314434 0.712027 -0.483294
O4    O     O_2   0.706575 0.707486 0.384913 -0.278040
O5    O     O_2   0.892968 0.690345 0.300769 -0.275804
O6    O     O_3   0.762411 0.554634 0.326801 -0.482431
O7    O     O_2   0.678268 0.296935 0.366793 -0.268901
O8    O     O_2   0.825512 0.399870 0.312758 -0.258200
O9    O     O_3   0.881825 0.241732 0.296873 -0.466011
O10   O     O_2   0.321289 0.697684 0.636939 -0.262107
O11   O     O_2   0.126739 0.748013 0.700652 -0.220739
O12   O     O_R   0.505640 0.579470 0.617500 -0.487392
O13   O     O_3   0.166984 0.588020 0.695425 -0.494516
O14   O     O_R   0.504550 0.563720 0.388950 -0.478077
O15   O     O_R   0.495450 0.436280 0.611050 -0.481317
O16   O     O_R   0.314560 0.428400 0.496770 -0.490537
O17   O     O_R   0.685440 0.571600 0.503230 -0.488919
O18   O     O_R   0.324750 0.571590 0.503220 -0.499862
O19   O     O_R   0.675250 0.428410 0.496780 -0.500962
O20   O     O_2   0.290582 0.288713 0.617338 -0.259537
S1    S     S_3+6 0.187000 0.349740 0.637891 0.036103
S2    S     S_3+6 0.815990 0.651739 0.363372 0.031480
S3    S     S_3+6 0.814387 0.321369 0.354534 0.058508
S4    S     S_3+6 0.184229 0.675840 0.648912 0.057440

loop_
_geom_bond_atom_site_label_1
_geom_bond_atom_site_label_2
_ccdc_geom_bond_type
Cu1   O1    S    
C28   C30   A    
C3    C40   A    
C25   C27   A    
C22   C25   A    
C12   O12   A    
C37   C39   A    
C13   N6    S    
Cu1   O16   S    
C16   C35   S    
C7    N3    A    
C12   O15   A    
C12   C34   S    
O9    S3    S    
O13   S4    S    
C2    C39   A    
O5    S2    D    
C13   C15   A    
C32   C33   A    
C6    C34   A    
C21   C24   A    
C8    H9    S    
Cu1   O19   S    
C28   S4    S    
C15   H17   S    
Br1   C26   S    
C29   C31   A    
Br2   C25   S    
C6    H8    S    
H11   O3    S    
C38   C40   A    
C22   H20   S    
C1    O14   A    
O2    S1    D    
C3    H5    S    
Cu2   O14   S    
O10   S4    D    
N1    N2    D    
C16   O18   A    
C1    C23   S    
C2    C4    A    
H14   O9    S    
C3    C5    A    
C4    C6    A    
C11   N5    S    
C2    N2    S    
C16   O16   A    
C30   C32   A    
Cu1   Cu2   S    
H15   O13   S    
O7    S3    D    
C17   O17   A    
C23   C36   A    
C10   C13   A    
C14   C18   A    
C21   C32   A    
C39   H3    S    
Cu2   N3    S    
C30   C35   A    
C4    H6    S    
O8    S3    D    
C7    C9    A    
C8    C10   A    
C14   H16   S    
C8    N4    A    
Cu1   N4    S    
C40   N1    S    
C37   H22   S    
C20   C22   A    
C18   N3    A    
Cu2   O18   S    
O3    S1    S    
C27   S3    S    
C38   H4    S    
C20   C31   A    
C24   H21   S    
H13   O6    S    
C34   C37   A    
C10   H1    S    
Cu2   O12   S    
O4    S2    D    
C24   C26   A    
C5    C23   A    
C21   S2    S    
C19   N4    A    
Cu1   O15   S    
C26   C28   A    
C5    H7    S    
N5    N6    D    
C27   C29   A    
C17   C33   S    
C36   H2    S    
C36   C38   A    
C9    C11   A    
O6    S2    S    
O11   S4    D    
O20   S1    D    
C20   S1    S    
C29   C33   A    
C18   H18   S    
C1    O1    A    
C31   C35   A    
C19   H19   S    
C17   O19   A    
Cu2   O17   S    
C11   C14   A    
C7    H10   S    
C9    H12   S    
C15   C19   A    
