data_mof_unit_47946.cif
_audit_creation_date              2012-12-10T19:04:46-0500
_audit_creation_method            fapswitch 2.2
_symmetry_space_group_name_H-M    P1
_symmetry_Int_Tables_number       1
_space_group_crystal_system       triclinic
_cell_length_a                    15.856607
_cell_length_b                    10.856527
_cell_length_c                    9.545486
_cell_angle_alpha                 90.028241
_cell_angle_beta                  89.853584
_cell_angle_gamma                 90.109696
_cell_volume                      1643.22471599

loop_
_atom_site_label
_atom_site_type_symbol
_atom_type_description
_atom_site_fract_x
_atom_site_fract_y
_atom_site_fract_z
_atom_type_partial_charge
C1    C     C_R   0.500165 0.262701 0.499826 0.800764
C2    C     C_3   0.082731 0.501994 0.500415 0.134675
C3    C     C_3   0.970902 0.580866 0.596215 -0.209078
C4    C     C_3   0.917084 0.500752 0.497596 0.135729
C5    C     C_3   0.027635 0.615069 0.470039 0.122047
C6    C     C_3   0.972992 0.535271 0.371997 0.119046
C7    C     C_1   0.174476 0.501140 0.500939 -0.080574
C8    C     C_1   0.825393 0.500269 0.498421 -0.081230
C9    C     C_R   0.497783 0.062045 0.620901 0.133850
C10   C     C_R   0.501210 0.130086 0.498115 -0.105014
C11   C     C_R   0.505834 0.064532 0.370523 -0.223105
C12   C     C_R   0.339811 0.500037 0.500163 0.825947
C13   C     C_R   0.506024 0.935343 0.370567 -0.223321
C14   C     C_R   0.501551 0.869901 0.498210 -0.106314
C15   C     C_R   0.498056 0.938057 0.620974 0.131680
C16   C     C_3   0.490842 0.929253 0.776304 -0.472714
C17   C     C_3   0.490463 0.071115 0.776184 -0.478288
C18   C     C_R   0.540806 0.590889 0.073524 0.258035
C19   C     C_R   0.453236 0.417374 0.074575 -0.079290
C20   C     C_R   0.453193 0.417413 0.925691 -0.078618
C21   C     C_R   0.540921 0.590750 0.926166 0.258675
C22   C     C_3   0.632800 0.620178 0.920266 -0.505119
C23   C     C_R   0.500383 0.737293 0.499856 0.800729
C24   C     C_3   0.632551 0.620883 0.079245 -0.509225
C25   C     C_R   0.660157 0.500078 0.499830 0.828721
C26   C     C_3   0.971812 0.387278 0.528320 -0.167905
C27   C     C_3   0.028847 0.421639 0.401989 -0.201176
C28   C     C_1   0.250058 0.500561 0.500669 -0.184448
C29   C     C_1   0.749845 0.500146 0.499211 -0.193208
C30   C     C_3   0.027145 0.467286 0.626582 -0.172934
Cu1   Cu    Cu3+1 0.500000 0.499980 0.640670 0.939677
Cu2   Cu    Cu3+1 0.500000 0.500020 0.359330 0.937987
H1    H     H_    0.053992 0.356190 0.322912 0.132483
H2    H     H_    0.548094 0.889003 0.824880 0.192226
H3    H     H_    0.429272 0.111380 0.809790 0.189508
H4    H     H_    0.547457 0.112746 0.824675 0.202331
H5    H     H_    0.416684 0.348949 0.130498 0.137490
H6    H     H_    0.416524 0.349153 0.869998 0.135500
H7    H     H_    0.671130 0.544030 0.875522 0.223114
H8    H     H_    0.645255 0.712302 0.873920 0.185970
H9    H     H_    0.671011 0.545462 0.124842 0.222053
H10   H     H_    0.644314 0.713619 0.124670 0.189362
H11   H     H_    0.947476 0.293666 0.552302 0.136404
H12   H     H_    0.944956 0.646373 0.674367 0.139654
H13   H     H_    0.050829 0.439166 0.731098 0.141535
H14   H     H_    0.509041 0.112270 0.271036 0.166267
H15   H     H_    0.509376 0.887513 0.271098 0.165351
H16   H     H_    0.429947 0.887849 0.810124 0.199324
N1    N     N_R   0.500530 0.500930 0.147930 -0.184259
N2    N     N_R   0.500530 0.500890 0.852020 -0.184235
O1    O     O_R   0.500000 0.319640 0.618810 -0.582981
O2    O     O_R   0.500010 0.319680 0.381230 -0.590491
O3    O     O_R   0.379070 0.499970 0.618770 -0.577696
O4    O     O_R   0.379080 0.500010 0.381190 -0.576882
O5    O     O_R   0.499990 0.680320 0.618770 -0.579912
O6    O     O_R   0.500000 0.680360 0.381190 -0.586883
O7    O     O_R   0.620920 0.499990 0.618810 -0.578124
O8    O     O_R   0.620930 0.500030 0.381230 -0.579096
C31   C     C_3   0.937342 0.565841 0.227331 -0.416171
C32   C     C_3   0.007481 0.592336 0.120864 -0.342710
C33   C     C_3   0.971301 0.615432 0.975464 -0.868409
H17   H     H_    0.937252 0.532426 0.937282 0.256397
H18   H     H_    0.927304 0.694970 0.977717 0.254648
H19   H     H_    0.023608 0.636638 0.901721 0.240265
H20   H     H_    0.043603 0.675124 0.153123 0.220990
H21   H     H_    0.051483 0.512867 0.115278 0.215978
H22   H     H_    0.899401 0.485797 0.191075 0.202192
H23   H     H_    0.894530 0.646271 0.236041 0.189923
C34   C     C_3   0.064522 0.744024 0.447458 -0.417874
C35   C     C_3   0.995582 0.840893 0.426085 -0.347139
C36   C     C_3   0.033458 0.969713 0.412997 -0.853946
H24   H     H_    0.068509 0.994304 0.509736 0.253110
H25   H     H_    0.076992 0.974160 0.321727 0.253202
H26   H     H_    0.982226 0.037938 0.397460 0.237813
H27   H     H_    0.959671 0.820364 0.329274 0.219989
H28   H     H_    0.951128 0.839674 0.516305 0.216078
H29   H     H_    0.102283 0.768492 0.541438 0.201653
H30   H     H_    0.107843 0.742570 0.355981 0.189996

loop_
_geom_bond_atom_site_label_1
_geom_bond_atom_site_label_2
_ccdc_geom_bond_type
C33   H19   S    
C18   C21   A    
C24   H10   S    
C30   H13   S    
C34   H29   S    
C19   C20   A    
Cu2   O8    S    
C4    C8    S    
C16   H16   S    
C23   O6    A    
C27   H1    S    
C26   C27   S    
C12   C28   S    
C18   C24   S    
C8    C29   T    
C5    C6    S    
C15   C16   S    
C33   H18   S    
Cu2   O2    S    
C20   N2    A    
C19   H5    S    
C2    C7    S    
C16   H2    S    
Cu1   Cu2   S    
C16   C17   S    
C5    C34   S    
C35   C36   S    
C17   H4    S    
C9    C10   A    
C12   O3    A    
C31   H22   S    
C32   H21   S    
C31   C32   S    
C21   C22   S    
C24   H9    S    
C34   H30   S    
C33   H17   S    
C25   O7    A    
Cu2   O4    S    
C21   N2    A    
C26   H11   S    
C25   C29   S    
C3    H12   S    
C4    C6    S    
C36   H25   S    
C7    C28   T    
C32   C33   S    
C14   C23   S    
C3    C30   S    
C31   H23   S    
C20   H6    S    
C19   N1    A    
C6    C27   S    
C22   H8    S    
Cu1   O3    S    
C1    O1    A    
C2    C27   S    
C9    C17   S    
C32   H20   S    
C26   C30   S    
C35   H28   S    
C22   C24   S    
C2    C5    S    
C25   O8    A    
Cu1   N2    S    
C3    C4    S    
C13   H15   S    
C6    C31   S    
C1    C10   S    
Cu1   O1    S    
C3    C5    S    
C36   H26   S    
C4    C26   S    
C23   O5    A    
C2    C30   S    
Cu1   O7    S    
C9    C15   A    
C36   H24   S    
C11   C13   A    
C22   H7    S    
C34   C35   S    
C1    O2    A    
Cu2   N1    S    
C10   C11   A    
C35   H27   S    
C14   C15   A    
C11   H14   S    
C17   H3    S    
Cu1   O5    S    
C13   C14   A    
Cu2   O6    S    
C12   O4    A    
C18   N1    A    
