data_mof_unit_63793.cif
_audit_creation_date              2012-12-10T17:19:21-0500
_audit_creation_method            fapswitch 2.2
_symmetry_space_group_name_H-M    P1
_symmetry_Int_Tables_number       1
_space_group_crystal_system       triclinic
_cell_length_a                    18.724091
_cell_length_b                    18.858404
_cell_length_c                    18.839708
_cell_angle_alpha                 109.601444
_cell_angle_beta                  109.558327
_cell_angle_gamma                 109.424958
_cell_volume                      5110.18750224

loop_
_atom_site_label
_atom_site_type_symbol
_atom_type_description
_atom_site_fract_x
_atom_site_fract_y
_atom_site_fract_z
_atom_type_partial_charge
C1    C     C_R   0.379449 0.381226 0.498426 0.852244
C2    C     C_3   0.806971 0.496159 0.806876 0.007000
C3    C     C_3   0.848204 0.567845 0.785801 -0.376407
C4    C     C_3   0.746414 0.517466 0.839317 -0.365181
C5    C     C_R   0.237829 0.323429 0.498433 -0.068844
C6    C     C_R   0.176904 0.261392 0.504662 0.280421
C7    C     C_R   0.185698 0.189825 0.504088 -0.087385
C8    C     C_R   0.256510 0.182128 0.501427 -0.205994
C9    C     C_R   0.317981 0.244122 0.497452 -0.187064
C10   C     C_R   0.309613 0.314786 0.496321 -0.091727
C11   C     C_R   0.308227 0.576550 0.330301 -0.175372
C12   C     C_R   0.617864 0.498621 0.619376 0.783885
C13   C     C_R   0.244591 0.577677 0.266406 0.364855
C14   C     C_R   0.184665 0.501666 0.184730 -0.091914
C15   C     C_R   0.189325 0.425624 0.167521 -0.168032
C16   C     C_R   0.254231 0.425380 0.230863 -0.127370
C17   C     C_R   0.313613 0.500674 0.312754 -0.076870
C18   C     C_R   0.766504 0.744101 0.574153 0.387900
C19   C     C_R   0.830806 0.807044 0.573660 -0.182408
C20   C     C_R   0.813075 0.813808 0.498830 -0.137168
C21   C     C_R   0.730399 0.757012 0.423732 -0.126401
C22   C     C_R   0.664891 0.692186 0.422285 -0.074460
C23   C     C_R   0.618242 0.618722 0.499524 0.814490
C24   C     C_R   0.683819 0.685688 0.498361 -0.171497
C25   C     C_R   0.997962 0.380843 0.878963 0.794536
C26   C     C_R   0.877401 0.499327 0.877480 0.698003
C27   C     C_R   0.996988 0.618857 0.115887 0.801721
C28   C     C_R   0.116976 0.500530 0.117056 0.893114
C29   C     C_R   0.000721 0.881211 0.381515 0.765117
C30   C     C_R   0.118967 0.120344 0.501721 0.821039
C31   C     C_R   0.001893 0.120778 0.618005 0.784988
C32   C     C_R   0.880793 0.880848 0.499491 0.806661
C33   C     C_R   0.082503 0.324434 0.822868 -0.030671
C34   C     C_R   0.380547 0.500131 0.380232 0.825691
C35   C     C_R   0.084423 0.262682 0.756729 -0.063967
C36   C     C_R   0.004536 0.189717 0.684999 -0.114284
C37   C     C_R   0.924860 0.178142 0.678182 -0.110687
C38   C     C_R   0.921076 0.238434 0.741627 -0.046110
C39   C     C_R   0.000354 0.313310 0.814002 -0.156669
C40   C     C_R   0.996761 0.756906 0.176483 -0.167009
C41   C     C_R   0.996656 0.820439 0.240915 -0.155582
C42   C     C_R   0.000773 0.814589 0.314250 -0.016041
C43   C     C_R   0.003752 0.744287 0.322297 -0.152811
C44   C     C_R   0.000858 0.679208 0.256403 -0.120268
C45   C     C_3   0.686864 0.411493 0.648032 -0.274048
C46   C     C_R   0.997942 0.685753 0.183701 -0.007168
C47   C     C_3   0.749181 0.403560 0.720689 -0.024753
C48   C     C_3   0.776568 0.573722 0.721975 -0.353210
C49   C     C_3   0.669337 0.507764 0.764836 -0.360170
C50   C     C_3   0.685812 0.497776 0.687377 0.036396
Cu1   Cu    Cu3+1 0.500370 0.438230 0.438520 0.999462
Cu2   Cu    Cu3+1 0.499630 0.561770 0.561480 1.037186
Cu3   Cu    Cu3+1 0.935490 0.438190 0.997300 0.984545
Cu4   Cu    Cu3+1 0.059110 0.561720 0.997220 1.033822
Cu5   Cu    Cu3+1 0.937870 0.999900 0.437760 1.046752
Cu6   Cu    Cu3+1 0.062130 0.999920 0.562070 1.010943
H1    H     H_    0.709088 0.410978 0.599923 0.188810
H2    H     H_    0.784566 0.585251 0.895280 0.166891
H3    H     H_    0.779926 0.636673 0.756110 0.231947
H4    H     H_    0.892632 0.632539 0.846492 0.195996
H5    H     H_    0.263435 0.127206 0.501040 0.174233
H6    H     H_    0.373060 0.237591 0.496471 0.172257
H7    H     H_    0.353906 0.635132 0.393361 0.184220
H8    H     H_    0.143312 0.366827 0.104672 0.174579
H9    H     H_    0.619091 0.355004 0.608668 0.201354
H10   H     H_    0.257128 0.366089 0.216422 0.168336
H11   H     H_    0.894387 0.851507 0.632281 0.190426
H12   H     H_    0.717325 0.763160 0.366179 0.200138
H13   H     H_    0.864831 0.120578 0.622477 0.191867
H14   H     H_    0.994367 0.762363 0.120381 0.141395
H15   H     H_    0.994637 0.874718 0.234242 0.149543
H16   H     H_    0.006540 0.738988 0.378560 0.150514
H17   H     H_    0.002376 0.624623 0.262717 0.156021
H18   H     H_    0.788102 0.572057 0.667319 0.197400
H19   H     H_    0.888328 0.553484 0.757198 0.181279
H20   H     H_    0.662375 0.566002 0.790439 0.189670
H21   H     H_    0.607222 0.450008 0.742448 0.197951
H22   H     H_    0.720389 0.474260 0.863327 0.192876
O1    O     O_R   0.410130 0.357660 0.448070 -0.587710
O2    O     O_R   0.049990 0.461930 0.907530 -0.571046
O3    O     O_R   0.854450 0.447820 0.906640 -0.615345
O4    O     O_R   0.958850 0.552130 0.906580 -0.589904
O5    O     O_R   0.944620 0.537990 0.086990 -0.587167
O6    O     O_R   0.049020 0.642300 0.086930 -0.561897
O7    O     O_R   0.035760 0.447780 0.087940 -0.589638
O8    O     O_R   0.140150 0.552090 0.087880 -0.519112
O9    O     O_R   0.948110 0.909780 0.357760 -0.586900
O10   O     O_R   0.053050 0.909790 0.462730 -0.578989
O11   O     O_R   0.037720 0.090080 0.447430 -0.531315
O12   O     O_R   0.409500 0.461990 0.551910 -0.571334
O13   O     O_R   0.142660 0.090100 0.552410 -0.594174
O14   O     O_R   0.946950 0.090030 0.537090 -0.550185
O15   O     O_R   0.051890 0.090040 0.642060 -0.584058
O16   O     O_R   0.857350 0.909730 0.447410 -0.583098
O17   O     O_R   0.962280 0.909740 0.552390 -0.583869
O18   O     O_R   0.590970 0.447820 0.538740 -0.595272
O19   O     O_R   0.590340 0.552140 0.642570 -0.573719
O20   O     O_R   0.590500 0.538010 0.448090 -0.591959
O21   O     O_R   0.589870 0.642340 0.551930 -0.542449
O22   O     O_R   0.409660 0.447860 0.357430 -0.596528
O23   O     O_R   0.409030 0.552180 0.461260 -0.562724
O24   O     O_R   0.945590 0.357610 0.907590 -0.604188
C51   C     C_2   0.223203 0.393998 0.490616 0.434919
H23   H     H_    0.193499 0.421395 0.523867 0.128029
O25   O     O_2   0.240966 0.419953 0.444157 -0.544544
Cl1   Cl    Cl    0.089975 0.273620 0.514039 -0.637267
Cl2   Cl    Cl    0.239532 0.674092 0.291806 -0.593581
Cl3   Cl    Cl    0.792643 0.739794 0.670943 -0.655009
C52   C     C_2   0.576835 0.634047 0.342360 0.418362
H24   H     H_    0.523172 0.587807 0.341815 0.061115
O26   O     O_2   0.562811 0.637444 0.275765 -0.514424
C53   C     C_2   0.166351 0.399952 0.900715 0.485795
H25   H     H_    0.219276 0.435924 0.893063 0.098200
O27   O     O_2   0.177864 0.420678 0.974055 -0.544654
C54   C     C_2   0.168392 0.273398 0.760264 0.376280
H26   H     H_    0.170986 0.251851 0.700489 0.095127
O28   O     O_2   0.234141 0.302922 0.828805 -0.525465
C55   C     C_2   0.833078 0.222024 0.728651 0.470483
H27   H     H_    0.824946 0.272670 0.766337 0.047404
O29   O     O_2   0.767606 0.151011 0.674250 -0.506311
C56   C     C_2   0.696599 0.333889 0.735707 0.442453
H28   H     H_    0.729616 0.313535 0.776821 0.085036
O30   O     O_2   0.617155 0.300188 0.703452 -0.545257
C57   C     C_2   0.805699 0.374822 0.690612 0.234060
H29   H     H_    0.876586 0.411875 0.730338 0.071733
O31   O     O_2   0.771969 0.308488 0.621374 -0.490841

loop_
_geom_bond_atom_site_label_1
_geom_bond_atom_site_label_2
_ccdc_geom_bond_type
Cu6   O17   S    
C32   O16   A    
Cu5   Cu6   S    
C5    C51   S    
C43   H16   S    
C37   H13   S    
C29   C42   S    
C25   O2    A    
C41   C42   A    
Cu2   O19   S    
C23   O21   A    
C19   C20   A    
C13   Cl2   S    
C55   O29   D    
Cu4   O6    S    
C7    C8    A    
Cu3   Cu4   S    
C29   O9    A    
C40   C46   A    
C45   H1    S    
C33   C39   A    
C40   H14   S    
C18   C24   A    
C36   C37   A    
C37   C38   A    
C11   H7    S    
C52   O26   D    
C5    C6    A    
C25   O24   A    
Cu6   O10   S    
C15   C16   A    
C3    C48   S    
Cu3   O3    S    
C18   C19   A    
C55   H27   S    
C29   O10   A    
Cu2   O12   S    
Cu6   O13   S    
C11   C17   A    
C35   C36   A    
C8    C9    A    
C54   O28   D    
Cu5   O16   S    
C34   O22   A    
C15   H8    S    
C19   H11   S    
C3    H19   S    
C9    C10   A    
C8    H5    S    
C41   H15   S    
C3    H4    S    
Cu1   O20   S    
C48   C50   S    
C26   O4    A    
C7    C30   S    
C21   C22   A    
C30   O11   A    
C53   O27   D    
C53   H25   S    
C44   C46   A    
Cu4   O2    S    
C45   C47   S    
Cu6   O15   S    
Cu2   O23   S    
C34   O23   A    
C56   H28   S    
C9    H6    S    
C48   H18   S    
C51   O25   D    
Cu4   O8    S    
C16   C17   A    
C31   O15   A    
Cu1   Cu2   S    
C2    C4    S    
C43   C44   A    
C4    H22   S    
Cu5   O14   S    
C28   O7    A    
Cu3   O24   S    
C23   C24   S    
C22   C52   S    
C32   O17   A    
C6    Cl1   S    
C49   H20   S    
C2    C26   S    
C33   C53   S    
C35   C54   S    
C12   O19   A    
C27   C46   S    
C40   C41   A    
C49   C50   S    
C26   O3    A    
C21   H12   S    
C45   H9    S    
C1    O1    A    
C22   C24   A    
C16   H10   S    
C42   C43   A    
C1    O12   A    
Cu4   O4    S    
C18   Cl3   S    
C48   H3    S    
C57   O31   D    
C20   C32   S    
Cu1   O22   S    
C27   O6    A    
C31   C36   S    
C1    C10   S    
C30   O13   A    
C12   C50   S    
C6    C7    A    
C2    C47   S    
Cu1   O18   S    
Cu2   O21   S    
C4    C49   S    
Cu3   O5    S    
C27   O5    A    
C2    C3    S    
C5    C10   A    
Cu5   O11   S    
C52   H24   S    
C25   C39   S    
C28   O8    A    
C11   C13   A    
C47   C57   S    
C38   C39   A    
C45   C50   S    
C33   C35   A    
C49   H21   S    
Cu5   O9    S    
C44   H17   S    
Cu1   O1    S    
C56   O30   D    
C47   C56   S    
C38   C55   S    
C23   O20   A    
C20   C21   A    
C31   O14   A    
C17   C34   S    
C4    H2    S    
C51   H23   S    
C14   C15   A    
C12   O18   A    
Cu3   O7    S    
C14   C28   S    
C13   C14   A    
C54   H26   S    
C57   H29   S    
