data_mof_unit_52205.cif
_audit_creation_date              2012-12-10T17:42:12-0500
_audit_creation_method            fapswitch 2.2
_symmetry_space_group_name_H-M    P1
_symmetry_Int_Tables_number       1
_space_group_crystal_system       triclinic
_cell_length_a                    15.099747
_cell_length_b                    13.779677
_cell_length_c                    10.85924
_cell_angle_alpha                 90.587271
_cell_angle_beta                  90.707017
_cell_angle_gamma                 89.480614
_cell_volume                      2259.09714297

loop_
_atom_site_label
_atom_site_type_symbol
_atom_type_description
_atom_site_fract_x
_atom_site_fract_y
_atom_site_fract_z
_atom_type_partial_charge
C1    C     C_R   0.329085 0.500384 0.501373 0.798756
C2    C     C_3   0.582928 0.530705 0.931793 -0.365906
C3    C     C_R   0.813771 0.502761 0.390586 0.184989
C4    C     C_R   0.768347 0.499994 0.503005 -0.174967
C5    C     C_R   0.815955 0.501795 0.615477 0.179736
C6    C     C_R   0.909008 0.496989 0.614775 0.048444
C7    C     C_R   0.954096 0.508945 0.503221 -0.031850
C8    C     C_R   0.905888 0.520288 0.391362 0.046645
C9    C     C_R   0.957457 0.481097 0.724186 -0.205261
C10   C     C_R   0.049943 0.479558 0.725655 -0.000315
C11   C     C_R   0.095916 0.493411 0.614579 0.036638
C12   C     C_R   0.495806 0.499780 0.259783 0.766044
C13   C     C_R   0.047488 0.508646 0.503395 0.029873
C14   C     C_R   0.092389 0.521558 0.391554 0.103299
C15   C     C_R   0.044073 0.543195 0.283952 -0.294497
C16   C     C_R   0.951731 0.545813 0.283293 -0.117335
C17   C     C_R   0.188774 0.489944 0.610642 -0.277259
C18   C     C_R   0.232776 0.501840 0.499978 -0.119181
C19   C     C_R   0.185196 0.515312 0.389477 0.214429
C20   C     C_R   0.436299 0.793908 0.565333 -0.053408
C21   C     C_R   0.437055 0.208561 0.567009 -0.029808
C22   C     C_R   0.564345 0.795830 0.439927 0.404227
C23   C     C_R   0.564489 0.201740 0.440342 0.404580
C24   C     C_R   0.573682 0.896540 0.462688 -0.008974
C25   C     C_R   0.574033 0.101223 0.463619 0.004489
C26   C     C_R   0.671208 0.499759 0.502569 0.793373
C27   C     C_R   0.505715 0.948375 0.521396 0.052150
C28   C     C_R   0.505807 0.051761 0.521645 0.050053
C29   C     C_R   0.435796 0.897229 0.573213 -0.007042
C30   C     C_R   0.436125 0.105268 0.574000 -0.014681
C31   C     C_R   0.648154 0.947229 0.422380 -0.208355
C32   C     C_R   0.648744 0.048234 0.424290 -0.212298
C33   C     C_R   0.367893 0.053805 0.631404 -0.186183
C34   C     C_R   0.367676 0.950977 0.630887 -0.181259
C35   C     C_R   0.495652 0.500181 0.739886 0.756055
C36   C     C_3   0.422172 0.573573 0.071791 -0.361279
C37   C     C_3   0.469746 0.397235 0.070690 -0.434261
C38   C     C_3   0.418150 0.570967 0.928757 0.085470
C39   C     C_3   0.465928 0.396363 0.928628 0.097032
C40   C     C_3   0.583635 0.527768 0.072820 -0.398000
C41   C     C_3   0.492148 0.499708 0.121659 0.063660
C42   C     C_3   0.492036 0.499832 0.877521 0.070003
Cu1   Cu    Cu3+1 0.499990 0.597420 0.500010 0.924940
Cu2   Cu    Cu3+1 0.499990 0.402580 0.500010 0.933922
H1    H     H_    0.435842 0.647340 0.107934 0.194426
H2    H     H_    0.520944 0.345959 0.102886 0.206452
H3    H     H_    0.228323 0.476864 0.692637 0.161568
H4    H     H_    0.078373 0.561719 0.200436 0.205152
H5    H     H_    0.384180 0.753912 0.608602 0.145343
H6    H     H_    0.386142 0.250564 0.612986 0.147895
H7    H     H_    0.704838 0.908965 0.384761 0.190764
H8    H     H_    0.706228 0.084760 0.389007 0.179445
H9    H     H_    0.313773 0.092902 0.674455 0.140934
H10   H     H_    0.313420 0.913645 0.673610 0.144669
H11   H     H_    0.356144 0.555100 0.105562 0.152726
H12   H     H_    0.405719 0.372217 0.107730 0.149631
H13   H     H_    0.353099 0.537987 0.903832 0.113185
H14   H     H_    0.394957 0.385813 0.902810 0.088654
H15   H     H_    0.604679 0.598843 0.111074 0.185074
H16   H     H_    0.633073 0.472778 0.102085 0.171241
H17   H     H_    0.601311 0.603630 0.900586 0.180465
H18   H     H_    0.636252 0.483120 0.898701 0.172007
H19   H     H_    0.923262 0.469519 0.809888 0.222108
N1    N     N_R   0.499930 0.743810 0.499950 -0.216086
N2    N     N_R   0.499930 0.256190 0.499950 -0.214346
O1    O     O_R   0.370250 0.582280 0.500040 -0.590352
O2    O     O_R   0.370250 0.417720 0.500040 -0.583776
O3    O     O_R   0.499970 0.582270 0.317700 -0.596832
O4    O     O_R   0.499970 0.417730 0.317700 -0.594182
O5    O     O_R   0.629730 0.582260 0.499980 -0.593485
O6    O     O_R   0.629730 0.417740 0.499980 -0.599831
O7    O     O_R   0.500000 0.582270 0.682320 -0.581932
O8    O     O_R   0.500000 0.417730 0.682320 -0.554994
C43   C     C_2   0.095309 0.461565 0.845095 0.818178
O9    O     O_2   0.152541 0.516829 0.883312 -0.620606
O10   O     O_R   0.070126 0.382452 0.915719 -0.778688
H20   H     H_    0.105082 0.377597 0.995690 0.320301
N3    N     N_2   0.229848 0.517317 0.275109 -0.435428
H21   H     H_    0.290011 0.551574 0.279587 0.247424
C44   C     C_3   0.233345 0.423916 0.212879 -0.716121
H22   H     H_    0.281430 0.375140 0.260495 0.232743
H23   H     H_    0.253772 0.433424 0.116062 0.232371
H24   H     H_    0.167127 0.389339 0.210994 0.236730
C45   C     C_2   0.905989 0.585386 0.172137 0.936634
O11   O     O_2   0.848303 0.647359 0.183997 -0.549708
O12   O     O_R   0.928751 0.554599 0.053616 -0.749278
H25   H     H_    0.972580 0.498650 0.053960 0.305528
N4    N     N_2   0.614682 0.754304 0.341639 -0.419097
H26   H     H_    0.625499 0.681302 0.340464 0.310954
C46   C     C_3   0.590114 0.788938 0.220194 -0.732366
H27   H     H_    0.521603 0.766498 0.196989 0.227410
H28   H     H_    0.636663 0.758878 0.151052 0.237730
H29   H     H_    0.593483 0.869085 0.214659 0.240043
N5    N     N_2   0.615408 0.241258 0.343215 -0.443542
H30   H     H_    0.619981 0.314745 0.339648 0.311865
C47   C     C_3   0.597536 0.199956 0.221966 -0.765169
H31   H     H_    0.636000 0.239178 0.152268 0.221679
H32   H     H_    0.525612 0.204460 0.199872 0.235452
H33   H     H_    0.618284 0.122944 0.215187 0.246477
N6    N     N_2   0.413513 0.668253 0.876131 -0.401084
H34   H     H_    0.376854 0.674436 0.795902 0.255997
C48   C     C_3   0.482908 0.739366 0.892339 -0.643498
H35   H     H_    0.452686 0.813079 0.892905 0.221035
H36   H     H_    0.529601 0.735217 0.814371 0.232962
H37   H     H_    0.519656 0.729971 0.980016 0.219204
N7    N     N_2   0.511021 0.310634 0.877227 -0.393871
H38   H     H_    0.478747 0.246743 0.895510 0.244171
C49   C     C_3   0.606580 0.300228 0.880498 -0.624177
H39   H     H_    0.625104 0.222419 0.869702 0.209824
H40   H     H_    0.635282 0.326697 0.968685 0.202700
H41   H     H_    0.635618 0.338692 0.801857 0.236820
N8    N     N_2   0.768760 0.479422 0.278051 -0.416371
H42   H     H_    0.701664 0.492265 0.278155 0.234393
C50   C     C_3   0.792028 0.385046 0.227152 -0.686105
H43   H     H_    0.755364 0.372465 0.139441 0.217503
H44   H     H_    0.775520 0.326989 0.292902 0.238486
H45   H     H_    0.863834 0.380545 0.207110 0.237698
N9    N     N_2   0.771109 0.508684 0.729681 -0.445110
H46   H     H_    0.709251 0.478356 0.728917 0.232994
C51   C     C_3   0.773294 0.604377 0.786155 -0.640327
H47   H     H_    0.723514 0.652613 0.741051 0.217816
H48   H     H_    0.839894 0.637384 0.779022 0.254196
H49   H     H_    0.758538 0.598764 0.885572 0.250620

loop_
_geom_bond_atom_site_label_1
_geom_bond_atom_site_label_2
_ccdc_geom_bond_type
C39   N7    S    
C12   O4    A    
Cu1   O7    S    
C40   H16   S    
C27   C29   A    
C11   C13   A    
C24   C27   A    
C6    C9    A    
N8    C50   S    
C50   H43   S    
C36   C41   S    
C7    C8    A    
C25   C28   A    
C12   O3    A    
C1    C18   S    
C12   C41   S    
C43   O10   S    
Cu2   O6    S    
C45   O12   S    
C38   C42   S    
C5    C6    A    
N3    C44   S    
N7    H38   S    
C15   C16   A    
C47   H33   S    
C16   C45   S    
C49   H39   S    
C48   H37   S    
C18   C19   A    
C35   C42   S    
N9    H46   S    
C32   H8    S    
C37   H12   S    
C11   C17   A    
Cu1   O3    S    
C47   H32   S    
C22   N4    S    
C9    C10   A    
C51   H49   S    
C25   C32   A    
C8    C16   A    
C40   H15   S    
C9    H19   S    
C13   C14   A    
C26   O6    A    
Cu2   N2    S    
C48   H35   S    
C15   H4    S    
C44   H24   S    
C21   H6    S    
C51   H48   S    
Cu1   N1    S    
C33   C34   A    
C39   C42   S    
C20   C29   A    
C33   H9    S    
C4    C26   S    
C43   O9    D    
Cu2   O4    S    
O10   H20   S    
C44   H23   S    
C3    C8    A    
O12   H25   S    
C4    C5    A    
C39   H14   S    
C29   C34   A    
C1    O1    A    
C20   N1    A    
C19   N3    S    
N5    C47   S    
Cu1   Cu2   S    
C20   H5    S    
C38   H13   S    
C46   H28   S    
C31   C32   A    
C3    N8    S    
C47   H31   S    
N6    C48   S    
C17   C18   A    
C36   H1    S    
C45   O11   D    
C48   H36   S    
C38   N6    S    
C40   C41   S    
N4    C46   S    
C35   O7    A    
C34   H10   S    
Cu1   O5    S    
C26   O5    A    
C22   C24   A    
C3    C4    A    
C51   H47   S    
C46   H29   S    
Cu2   O8    S    
C35   O8    A    
C30   C33   A    
C21   N2    A    
N3    H21   S    
C14   C19   A    
C17   H3    S    
C31   H7    S    
C44   H22   S    
C50   H44   S    
C2    H17   S    
C6    C7    A    
C21   C30   A    
C49   H41   S    
C5    N9    S    
C23   N2    A    
C36   C38   S    
C24   C31   A    
C37   C39   S    
C36   H11   S    
C10   C43   S    
C46   H27   S    
N7    C49   S    
C2    C42   S    
Cu1   O1    S    
C28   C30   A    
N6    H34   S    
C1    O2    A    
C49   H40   S    
N8    H42   S    
C23   C25   A    
C37   C41   S    
N5    H30   S    
N9    C51   S    
C50   H45   S    
C10   C11   A    
C22   N1    A    
C23   N5    S    
C2    C40   S    
C7    C13   A    
N4    H26   S    
C27   C28   A    
C14   C15   A    
Cu2   O2    S    
C37   H2    S    
C2    H18   S    
