data_mof_unit_13612.cif
_audit_creation_date              2012-12-11T15:59:48-0500
_audit_creation_method            fapswitch 2.2
_symmetry_space_group_name_H-M    P1
_symmetry_Int_Tables_number       1
_space_group_crystal_system       triclinic
_cell_length_a                    10.699572
_cell_length_b                    10.779993
_cell_length_c                    17.042106
_cell_angle_alpha                 99.44261
_cell_angle_beta                  98.935061
_cell_angle_gamma                 61.054497
_cell_volume                      1690.22873339

loop_
_atom_site_label
_atom_site_type_symbol
_atom_type_description
_atom_site_fract_x
_atom_site_fract_y
_atom_site_fract_z
_atom_type_partial_charge
C1    C     C_R   0.355727 0.777611 0.401811 0.571431
C2    C     C_R   0.855288 0.316912 0.332584 -0.003994
C3    C     C_R   0.317037 0.861455 0.168855 0.005830
C4    C     C_R   0.370064 0.346408 0.357624 0.547479
C5    C     C_R   0.453670 0.810350 0.210401 -0.008394
C6    C     C_R   0.464646 0.821064 0.294781 0.073064
C7    C     C_R   0.206859 0.903871 0.290610 -0.172128
C8    C     C_R   0.194628 0.911809 0.210211 -0.142981
C9    C     C_R   0.578652 0.750648 0.169842 -0.105798
C10   C     C_R   0.711140 0.715255 0.211883 -0.151883
C11   C     C_R   0.721022 0.742272 0.294485 -0.127302
C12   C     C_R   0.814580 0.234599 0.193912 0.008503
C13   C     C_R   0.598527 0.801445 0.336187 0.150967
C14   C     C_R   0.341195 0.849157 0.332617 0.019966
C15   C     C_R   0.285603 0.262277 0.793377 -0.001462
C16   C     C_R   0.781104 0.372720 0.405344 0.542510
C17   C     C_R   0.385705 0.148096 0.742885 -0.028497
C18   C     C_R   0.375753 0.166923 0.661595 0.016321
C19   C     C_R   0.200365 0.414996 0.686124 -0.153804
C20   C     C_R   0.187574 0.390877 0.761343 -0.147268
C21   C     C_R   0.497794 0.017347 0.769038 -0.089872
C22   C     C_R   0.596918 0.914792 0.717336 0.068152
C23   C     C_R   0.827200 0.218974 0.275565 0.025327
C24   C     C_R   0.572063 0.929863 0.635747 -0.007445
C25   C     C_R   0.451629 0.047570 0.607202 0.113714
C26   C     C_R   0.302414 0.306250 0.638457 -0.002444
C27   C     C_1   0.817429 0.342123 0.708948 -0.026302
C28   C     C_R   0.357507 0.769471 0.627261 0.561986
C29   C     C_1   0.845296 0.313616 0.776656 -0.031743
C30   C     C_1   0.338243 0.810119 0.709204 -0.021113
C31   C     C_1   0.313774 0.837841 0.777609 -0.035907
C32   C     C_R   0.898285 0.307609 0.090092 0.534336
C33   C     C_R   0.318645 0.299505 0.120085 0.564032
C34   C     C_R   0.915125 0.392816 0.309534 -0.153697
C35   C     C_R   0.290966 0.895682 0.087061 0.544407
C36   C     C_R   0.887328 0.296918 0.858940 0.546118
C37   C     C_R   0.278103 0.249796 0.877536 0.556622
C38   C     C_R   0.279769 0.884230 0.857450 0.545950
C39   C     C_R   0.363477 0.344175 0.580236 0.535032
C40   C     C_R   0.772428 0.381181 0.629803 0.551268
C41   C     C_1   0.343306 0.335694 0.274293 -0.029235
C42   C     C_1   0.330878 0.326324 0.203441 -0.033771
C43   C     C_R   0.866061 0.320224 0.171260 0.009691
C44   C     C_R   0.925427 0.389933 0.229768 -0.139791
C45   C     C_R   0.755636 0.160554 0.137658 -0.094309
C46   C     C_R   0.728353 0.058957 0.161119 -0.103290
C47   C     C_R   0.757395 0.031524 0.240435 -0.126430
C48   C     C_R   0.807869 0.108766 0.297152 -0.088902
Cr1   Cr    Cr6+3 0.608100 0.610860 0.522250 1.011093
Cr2   Cr    Cr6+3 0.288890 0.599990 0.488420 1.005422
Cr3   Cr    Cr6+3 0.603040 0.289190 0.489390 1.004151
Cr4   Cr    Cr6+3 0.053960 0.052250 0.967380 1.014506
Cr5   Cr    Cr6+3 0.059890 0.373160 0.992710 1.016904
Cr6   Cr    Cr6+3 0.373370 0.061690 0.991710 0.994294
H1    H     H_    0.946555 0.460591 0.352787 0.127928
H2    H     H_    0.687368 0.999387 0.117532 0.138744
H3    H     H_    0.739071 0.951780 0.258632 0.127660
H4    H     H_    0.835150 0.078234 0.357303 0.125523
H5    H     H_    0.111682 0.931349 0.319021 0.132258
H6    H     H_    0.575269 0.730030 0.105460 0.135466
H7    H     H_    0.087342 0.957003 0.180288 0.162878
H8    H     H_    0.691942 0.781548 0.449193 0.230617
H9    H     H_    0.634186 0.942024 0.417460 0.218444
H10   H     H_    0.779861 0.822701 0.788178 0.224183
H11   H     H_    0.778151 0.723284 0.702111 0.239201
H12   H     H_    0.805382 0.674178 0.179871 0.128156
H13   H     H_    0.291373 0.049312 0.526187 0.213851
H14   H     H_    0.388271 0.112563 0.493559 0.253973
H15   H     H_    0.823268 0.725127 0.325967 0.094544
H16   H     H_    0.137972 0.521685 0.667964 0.137780
H17   H     H_    0.515760 0.989621 0.828744 0.188460
H18   H     H_    0.108343 0.478219 0.796936 0.151922
H19   H     H_    0.638418 0.844129 0.593919 0.135566
H20   H     H_    0.730540 0.179978 0.075462 0.135601
H21   H     H_    0.978670 0.444833 0.214025 0.139335
N1    N     N_3   0.607542 0.860511 0.417148 -0.580150
N2    N     N_3   0.714806 0.789682 0.747933 -0.615209
N3    N     N_3   0.395079 0.035237 0.525833 -0.596910
O1    O     O_R   0.749810 0.499790 0.438040 -0.525257
O2    O     O_R   0.411730 0.181020 0.091530 -0.515194
O3    O     O_R   0.365010 0.944360 0.063320 -0.505373
O4    O     O_R   0.477660 0.726260 0.439290 -0.458225
O5    O     O_R   0.159380 0.906670 0.876210 -0.504093
O6    O     O_R   0.930820 0.177420 0.886730 -0.496840
O7    O     O_R   0.910360 0.395420 0.895720 -0.515310
O8    O     O_R   0.186010 0.361730 0.919870 -0.494506
O9    O     O_R   0.400000 0.173010 0.914630 -0.534096
O10   O     O_R   0.354140 0.936940 0.899340 -0.528827
O11   O     O_3   0.162410 0.162370 0.983930 -0.271522
O12   O     O_R   0.298970 0.468800 0.557390 -0.506064
O13   O     O_R   0.260150 0.743000 0.412270 -0.529896
O14   O     O_R   0.297740 0.466550 0.394720 -0.506078
O15   O     O_R   0.488080 0.253500 0.386430 -0.518892
O16   O     O_R   0.722670 0.303800 0.421940 -0.511540
O17   O     O_R   0.751130 0.502220 0.613520 -0.521272
O18   O     O_R   0.478890 0.728510 0.601960 -0.486058
O19   O     O_R   0.261470 0.745430 0.587750 -0.522073
O20   O     O_R   0.489400 0.255930 0.561910 -0.513261
O21   O     O_R   0.723890 0.306050 0.584610 -0.498584
O22   O     O_3   0.500010 0.500010 0.500020 -0.246753
O23   O     O_R   0.171100 0.914680 0.053100 -0.518589
O24   O     O_R   0.941680 0.184840 0.050710 -0.508051
O25   O     O_R   0.922080 0.403420 0.072610 -0.527229
O26   O     O_R   0.196880 0.369150 0.083850 -0.497551

loop_
_geom_bond_atom_site_label_1
_geom_bond_atom_site_label_2
_ccdc_geom_bond_type
C28   O19   A    
C38   O5    A    
C27   C29   T    
C33   O26   A    
C41   C42   T    
C19   C20   A    
C18   C26   A    
C40   O21   A    
C35   O3    A    
C7    C8    A    
C45   C46   A    
C18   C25   A    
C12   C23   A    
Cr4   O24   S    
C21   H17   S    
C33   C42   S    
C36   O6    A    
C12   C43   A    
C30   C31   T    
C26   C39   S    
C47   H3    S    
H9    N1    S    
Cr5   O26   S    
H10   N2    S    
Cr4   O6    S    
C19   C26   A    
C15   C37   S    
Cr2   O12   S    
C7    C14   A    
C44   H21   S    
Cr5   O8    S    
C2    C16   S    
C9    C10   A    
C39   O12   A    
C8    H7    S    
C2    C34   A    
Cr3   O20   S    
C34   H1    S    
C1    O13   A    
C21   C22   A    
H14   N3    S    
H8    N1    S    
Cr4   O11   S    
H13   N3    S    
C7    H5    S    
Cr6   O2    S    
C10   H12   S    
Cr3   O21   S    
C15   C20   A    
Cr4   O23   S    
H11   N2    S    
C25   N3    S    
C37   O8    A    
C34   C44   A    
C24   C25   A    
Cr6   O11   S    
C3    C8    A    
C39   O20   A    
C3    C5    A    
C1    O4    A    
C17   C21   A    
Cr1   O1    S    
C38   O10   A    
C45   H20   S    
Cr1   O4    S    
Cr4   O5    S    
C43   C44   A    
C5    C9    A    
C6    C14   A    
C47   C48   A    
C29   C36   S    
C13   N1    S    
C3    C35   S    
C27   C40   S    
C17   C18   A    
C32   O25   A    
Cr1   O17   S    
Cr3   O15   S    
Cr6   O9    S    
Cr2   O14   S    
Cr5   O11   S    
C32   O24   A    
C40   O17   A    
Cr3   O22   S    
C15   C17   A    
C46   C47   A    
Cr2   O19   S    
C23   C48   A    
C16   O16   A    
C37   O9    A    
C22   N2    S    
C12   C45   A    
C35   O23   A    
C11   H15   S    
C33   O2    A    
C48   H4    S    
C36   O7    A    
Cr2   O22   S    
C31   C38   S    
C28   O18   A    
C16   O1    A    
C9    H6    S    
C28   C30   S    
C6    C13   A    
Cr6   O10   S    
C11   C13   A    
C5    C6    A    
Cr5   O25   S    
C32   C43   S    
C22   C24   A    
Cr1   O18   S    
C24   H19   S    
C10   C11   A    
Cr3   O16   S    
C4    O15   A    
Cr2   O13   S    
C4    C41   S    
C46   H2    S    
C2    C23   A    
C20   H18   S    
C19   H16   S    
Cr5   O7    S    
C1    C14   S    
C4    O14   A    
Cr6   O3    S    
Cr1   O22   S    
