data_mof_unit_53854.cif
_audit_creation_date              2012-12-10T16:59:12-0500
_audit_creation_method            fapswitch 2.2
_symmetry_space_group_name_H-M    P1
_symmetry_Int_Tables_number       1
_space_group_crystal_system       triclinic
_cell_length_a                    7.746778
_cell_length_b                    8.600846
_cell_length_c                    27.51327
_cell_angle_alpha                 91.141885
_cell_angle_beta                  86.500759
_cell_angle_gamma                 93.307944
_cell_volume                      1826.46331961

loop_
_atom_site_label
_atom_site_type_symbol
_atom_type_description
_atom_site_fract_x
_atom_site_fract_y
_atom_site_fract_z
_atom_type_partial_charge
C1    C     C_R   0.545179 0.794286 0.498765 0.840833
C2    C     C_R   0.557079 0.667240 0.125024 -0.052484
C3    C     C_R   0.509656 0.478214 0.646415 -0.302536
C4    C     C_R   0.490389 0.521777 0.353574 -0.302597
C5    C     C_R   0.586791 0.632425 0.022353 0.055633
C6    C     C_R   0.414158 0.368043 0.977623 0.055634
C7    C     C_R   0.380442 0.403286 0.027840 -0.036559
C8    C     C_R   0.620415 0.597249 0.972121 -0.036553
C9    C     C_R   0.476100 0.527636 0.050441 0.079948
C10   C     C_R   0.524788 0.472851 0.949529 0.079918
C11   C     C_R   0.649407 0.773157 0.045329 -0.057177
C12   C     C_R   0.454822 0.205714 0.501243 0.840713
C13   C     C_R   0.351692 0.227212 0.954675 -0.057209
C14   C     C_R   0.643791 0.786194 0.096497 -0.073834
C15   C     C_R   0.357416 0.214031 0.903509 -0.073754
C16   C     C_R   0.502783 0.495738 0.593908 0.925432
C17   C     C_R   0.497218 0.504240 0.406088 0.925322
C18   C     C_R   0.756572 0.674702 0.944222 -0.299891
C19   C     C_R   0.244159 0.325927 0.055713 -0.299870
C20   C     C_2   0.569608 0.956490 0.498109 0.309713
C21   C     C_2   0.430393 0.043511 0.501915 0.309706
C22   C     C_R   0.653384 0.548448 0.819689 0.640569
C23   C     C_R   0.541880 0.453005 0.898332 -0.129100
C24   C     C_R   0.347160 0.452051 0.180263 0.640200
C25   C     C_R   0.441414 0.335714 0.823713 0.591032
C26   C     C_R   0.559474 0.664512 0.176282 0.591384
C27   C     C_R   0.623944 0.357074 0.715608 -0.175445
C28   C     C_R   0.376056 0.642807 0.284367 -0.175666
C29   C     C_R   0.615889 0.368317 0.665428 -0.116870
C30   C     C_R   0.383888 0.631429 0.334550 -0.116838
C31   C     C_R   0.409816 0.571840 0.678201 0.543024
C32   C     C_R   0.590685 0.428510 0.321791 0.542953
C33   C     C_R   0.419284 0.559441 0.728267 0.623688
C34   C     C_R   0.458960 0.547443 0.101639 -0.129058
C35   C     C_R   0.581455 0.441058 0.271721 0.623653
C36   C     C_R   0.527247 0.453016 0.746774 0.054458
C37   C     C_R   0.473250 0.547250 0.253207 0.054593
C38   C     C_1   0.285825 0.736836 0.365427 0.307837
C39   C     C_1   0.713432 0.262536 0.634546 0.307541
C40   C     C_1   0.716478 0.927984 0.118789 0.314117
C41   C     C_1   0.285149 0.072022 0.881241 0.314328
C42   C     C_1   0.695801 0.913425 0.017652 0.168384
C43   C     C_1   0.305335 0.087013 0.982389 0.168381
C44   C     C_R   0.656176 0.554844 0.870419 -0.183726
C45   C     C_R   0.344474 0.445704 0.129532 -0.183690
C46   C     C_R   0.770601 0.658727 0.894004 0.700964
C47   C     C_R   0.229986 0.341943 0.105926 0.701000
C48   C     C_R   0.443906 0.333055 0.874967 -0.052468
F1    F     F_    0.307446 0.678260 0.660751 -0.565092
F2    F     F_    0.263053 0.984012 0.506442 -0.565410
F3    F     F_    0.693310 0.322298 0.339241 -0.565014
F4    F     F_    0.030626 0.361333 0.455634 -0.491530
F5    F     F_    0.969374 0.638668 0.544365 -0.491542
F6    F     F_    0.325326 0.652033 0.758966 -0.570122
F7    F     F_    0.675882 0.348826 0.241026 -0.570072
F8    F     F_    0.897410 0.744897 0.868943 -0.592219
F9    F     F_    0.103005 0.255908 0.130964 -0.592288
F10   F     F_    0.736949 0.015990 0.493590 -0.565428
H1    H     H_    0.294186 0.725379 0.269234 0.201478
H2    H     H_    0.705603 0.274310 0.730735 0.201541
H3    H     H_    0.856427 0.746587 0.960760 0.187395
H4    H     H_    0.144330 0.254071 0.039152 0.187396
N1    N     N_R   0.541697 0.444760 0.797971 -0.331524
N2    N     N_1   0.268721 0.974909 0.004193 -0.181644
N3    N     N_R   0.458960 0.555573 0.202005 -0.331503
N4    N     N_2   0.950320 0.457960 0.486880 0.271099
N5    N     N_2   0.049680 0.542040 0.513120 0.271080
N6    N     N_1   0.207407 0.821279 0.390140 -0.080412
N7    N     N_1   0.791432 0.177784 0.609834 -0.080363
N8    N     N_1   0.774038 0.041291 0.136363 -0.010620
N9    N     N_1   0.227940 0.958533 0.863691 -0.010993
N10   N     N_1   0.732442 0.025589 0.995879 -0.181613
O1    O     O_R   0.389250 0.738570 0.503220 -0.574973
O2    O     O_2   0.242843 0.353368 0.207877 -0.416428
O3    O     O_2   0.664148 0.765837 0.200432 -0.509270
O4    O     O_2   0.336836 0.234233 0.799588 -0.509139
O5    O     O_R   0.610750 0.261430 0.496780 -0.574985
O6    O     O_R   0.678390 0.711630 0.494810 -0.547330
O7    O     O_R   0.321610 0.288370 0.505190 -0.547323
O8    O     O_R   0.355440 0.513440 0.575450 -0.560124
O9    O     O_R   0.644560 0.486560 0.424550 -0.560045
O10   O     O_R   0.644590 0.486500 0.567040 -0.604167
O11   O     O_R   0.355410 0.513500 0.432960 -0.604201
O12   O     O_2   0.757498 0.647231 0.792054 -0.416461
Zn1   Zn    Zn3+2 0.306940 0.517990 0.505620 1.213092
Zn2   Zn    Zn3+2 0.693060 0.482010 0.494380 1.213118

loop_
_geom_bond_atom_site_label_1
_geom_bond_atom_site_label_2
_ccdc_geom_bond_type
C27   C29   A    
C13   C43   S    
C40   N8    T    
C24   C45   A    
C35   C37   A    
C5    C11   A    
C27   H2    S    
C11   C14   A    
C19   C47   A    
C19   H4    S    
C12   O7    A    
C33   C36   A    
C30   C38   S    
C11   C42   S    
C25   N1    A    
C3    C29   A    
C22   N1    A    
C22   C44   A    
C37   N3    S    
C31   C33   A    
C36   N1    S    
O9    Zn2   S    
C41   N9    T    
C2    C34   A    
N4    N5    D    
C1    O6    A    
C15   C48   A    
C31   F1    S    
F5    N5    S    
C18   C46   A    
C42   N10   T    
C21   F2    S    
C44   C46   A    
C43   N2    T    
C45   C47   A    
N5    Zn1   S    
C35   F7    S    
C32   C35   A    
C15   C41   S    
O10   Zn2   S    
C12   C21   S    
C8    C18   A    
C23   C44   A    
C16   O8    A    
C22   O12   S    
C32   F3    S    
C5    C9    A    
O8    Zn1   S    
C47   F9    S    
C12   O5    A    
C29   C39   S    
C16   O10   A    
C26   O3    S    
C39   N7    T    
C2    C26   A    
C34   C45   A    
C3    C31   A    
C25   C48   A    
O1    Zn1   S    
C4    C32   A    
C24   N3    A    
C4    C17   S    
O11   Zn1   S    
C38   N6    T    
O5    Zn2   S    
C7    C19   A    
C13   C15   A    
C9    C34   A    
C10   C23   A    
C20   F10   S    
O7    Zn1   S    
F4    N4    S    
C28   H1    S    
C33   F6    S    
C7    C9    A    
C1    C20   S    
C23   C48   A    
C26   N3    A    
N4    Zn2   S    
C5    C8    A    
C18   H3    S    
C6    C7    A    
C27   C36   A    
C25   O4    S    
C1    O1    A    
C28   C30   A    
C6    C13   A    
C24   O2    S    
C28   C37   A    
C17   O9    A    
C2    C14   A    
C6    C10   A    
C14   C40   S    
C20   C21   D    
C8    C10   A    
O6    Zn2   S    
C46   F8    S    
C17   O11   A    
C4    C30   A    
C3    C16   S    
