data_mof_unit_18756.cif
_audit_creation_date              2012-10-26T20:22:28-0400
_audit_creation_method            fapswitch 2.2
_symmetry_space_group_name_H-M    P1
_symmetry_Int_Tables_number       1
_space_group_crystal_system       triclinic
_cell_length_a                    9.595818
_cell_length_b                    10.843545
_cell_length_c                    16.982523
_cell_angle_alpha                 91.64444
_cell_angle_beta                  84.649373
_cell_angle_gamma                 89.138707
_cell_volume                      1758.37441756

loop_
_atom_site_label
_atom_site_type_symbol
_atom_type_description
_atom_site_fract_x
_atom_site_fract_y
_atom_site_fract_z
_atom_type_partial_charge
C1    C     C_R   0.500142 0.737462 0.498515 0.541931
C2    C     C_R   0.084891 0.412473 0.458131 0.023384
C3    C     C_R   0.062881 0.589679 0.541381 0.108707
C4    C     C_R   0.937169 0.411643 0.457212 0.109477
C5    C     C_R   0.480300 0.496350 0.650925 0.517730
C6    C     C_R   0.519901 0.493227 0.349111 0.516095
C7    C     C_R   0.468214 0.467272 0.735822 0.024620
C8    C     C_R   0.531591 0.454297 0.264639 0.016084
C9    C     C_R   0.526350 0.354549 0.756753 -0.151780
C10   C     C_R   0.449499 0.354084 0.243832 -0.153757
C11   C     C_R   0.508269 0.315277 0.834568 -0.137000
C12   C     C_R   0.500325 0.263011 0.499561 0.533476
C13   C     C_R   0.457718 0.307073 0.166349 -0.144809
C14   C     C_R   0.447651 0.394899 0.895297 0.036146
C15   C     C_R   0.535598 0.368331 0.106317 0.041447
C16   C     C_R   0.396406 0.510399 0.874831 -0.095844
C17   C     C_R   0.617830 0.468130 0.126208 -0.093848
C18   C     C_R   0.395747 0.543349 0.795817 0.006442
C19   C     C_R   0.624590 0.506595 0.205340 0.001965
C20   C     C_2   0.426133 0.359845 0.980282 0.014330
C21   C     C_2   0.537268 0.328817 0.021631 0.010142
C22   C     C_3   0.731964 0.601537 0.222531 -0.289125
C23   C     C_R   0.555182 0.932770 0.429480 0.007776
C24   C     C_3   0.880745 0.548981 0.205491 -0.436458
C25   C     C_3   0.315619 0.658661 0.779358 -0.287870
C26   C     C_3   0.158298 0.644416 0.799690 -0.444194
C27   C     C_3   0.674943 0.277711 0.979906 -0.275038
C28   C     C_3   0.783754 0.237770 0.035123 -0.446879
C29   C     C_3   0.280908 0.389149 0.022901 -0.270864
C30   C     C_3   0.162982 0.340337 0.976570 -0.449170
C31   C     C_3   0.623220 0.859359 0.358051 -0.261510
C32   C     C_3   0.781903 0.848316 0.361924 -0.431144
C33   C     C_3   0.363690 0.140923 0.636117 -0.258600
C34   C     C_R   0.443115 0.069073 0.566666 0.002225
C35   C     C_3   0.205816 0.133774 0.631561 -0.417315
C36   C     C_3   0.599351 0.128671 0.353645 -0.402636
C37   C     C_3   0.435491 0.877023 0.646639 -0.406197
C38   C     C_3   0.120380 0.696928 0.584777 -0.358390
C39   C     C_3   0.880008 0.308809 0.409139 -0.356723
C40   C     C_R   0.553024 0.062799 0.429372 -0.019462
C41   C     C_R   0.456485 0.940033 0.568401 -0.013778
C42   C     C_R   0.499646 0.129490 0.498596 0.018241
C43   C     C_R   0.502059 0.872209 0.498395 0.020576
C44   C     C_R   0.915175 0.587877 0.541497 0.021490
Cu1   Cu    Cu3+1 0.359340 0.499980 0.500000 0.905943
Cu2   Cu    Cu3+1 0.640660 0.500020 0.500000 0.900810
H1    H     H_    0.579699 0.293351 0.711769 0.109514
H2    H     H_    0.903816 0.524268 0.141653 0.136672
H3    H     H_    0.956920 0.619086 0.221959 0.136121
H4    H     H_    0.718581 0.683774 0.186198 0.126820
H5    H     H_    0.719755 0.632741 0.284785 0.174178
H6    H     H_    0.102391 0.729182 0.783701 0.129290
H7    H     H_    0.119967 0.564613 0.765839 0.164706
H8    H     H_    0.133702 0.630597 0.863985 0.141559
H9    H     H_    0.353559 0.738396 0.813452 0.131913
H10   H     H_    0.331933 0.678812 0.716765 0.139878
H11   H     H_    0.825987 0.318512 0.065861 0.147456
H12   H     H_    0.382081 0.308879 0.288553 0.115287
H13   H     H_    0.737092 0.173252 0.079492 0.156830
H14   H     H_    0.872584 0.189408 0.999867 0.127874
H15   H     H_    0.652289 0.192431 0.946418 0.135054
H16   H     H_    0.722277 0.346344 0.938521 0.146662
H17   H     H_    0.159705 0.386875 0.919450 0.161063
H18   H     H_    0.176235 0.239242 0.965245 0.149750
H19   H     H_    0.061264 0.358776 0.011786 0.125446
H20   H     H_    0.265398 0.346219 0.080974 0.147681
H21   H     H_    0.266723 0.490081 0.034088 0.130074
H22   H     H_    0.834115 0.820543 0.302921 0.121655
H23   H     H_    0.349903 0.573923 0.920498 0.105041
H24   H     H_    0.826499 0.937444 0.380018 0.145881
H25   H     H_    0.806937 0.778153 0.404969 0.181819
H26   H     H_    0.577244 0.766702 0.354067 0.141873
H27   H     H_    0.601465 0.901838 0.301808 0.129720
H28   H     H_    0.176722 0.174120 0.575843 0.170127
H29   H     H_    0.170930 0.036734 0.633691 0.139092
H30   H     H_    0.150367 0.186766 0.682322 0.135334
H31   H     H_    0.390342 0.107644 0.694002 0.128695
H32   H     H_    0.391019 0.239414 0.637381 0.163397
H33   H     H_    0.591533 0.230132 0.359426 0.138854
H34   H     H_    0.681252 0.513344 0.079700 0.108059
H35   H     H_    0.709912 0.105198 0.333393 0.126712
H36   H     H_    0.531605 0.101741 0.306738 0.118479
H37   H     H_    0.479048 0.781949 0.642772 0.129978
H38   H     H_    0.495254 0.924486 0.691085 0.116473
H39   H     H_    0.322749 0.876895 0.667984 0.121876
H40   H     H_    0.209662 0.668243 0.615693 0.186743
H41   H     H_    0.149975 0.770734 0.542816 0.143740
H42   H     H_    0.041633 0.737211 0.630874 0.060420
H43   H     H_    0.801154 0.342739 0.371668 0.174703
H44   H     H_    0.963222 0.264154 0.367540 0.054057
H45   H     H_    0.399303 0.225681 0.152834 0.101586
H46   H     H_    0.838807 0.235395 0.448455 0.153128
H47   H     H_    0.539489 0.222083 0.845904 0.096990
H48   H     H_    0.850468 0.658313 0.574052 0.120371
H49   H     H_    0.149882 0.342674 0.425140 0.114582
H50   H     H_    0.894442 0.465696 0.240803 0.158446
N1    N     N_R   0.147930 0.499970 0.499980 -0.222733
N2    N     N_R   0.852070 0.500030 0.500020 -0.224554
O1    O     O_R   0.381260 0.680340 0.500000 -0.507334
O2    O     O_R   0.618740 0.319660 0.500000 -0.509368
O3    O     O_R   0.618830 0.680370 0.500010 -0.510101
O4    O     O_R   0.381170 0.319630 0.499990 -0.511135
O5    O     O_R   0.367440 0.500000 0.613600 -0.509228
O6    O     O_R   0.632560 0.500000 0.386400 -0.516490
O7    O     O_R   0.605010 0.500030 0.613600 -0.493425
O8    O     O_R   0.394990 0.499970 0.386400 -0.493937

loop_
_geom_bond_atom_site_label_1
_geom_bond_atom_site_label_2
_ccdc_geom_bond_type
C5    O5    A    
C35   H28   S    
C4    N2    A    
C34   C42   A    
C25   H10   S    
C1    O1    A    
C5    O7    A    
Cu1   Cu2   S    
Cu2   N2    S    
C18   C25   S    
C35   H29   S    
C38   H40   S    
C37   H39   S    
C2    H49   S    
C10   H12   S    
C30   H18   S    
C24   H50   S    
C11   C14   A    
C33   H32   S    
C31   H27   S    
C23   C40   A    
Cu2   O7    S    
C23   C43   A    
C15   C17   A    
C12   C42   S    
C27   H15   S    
C17   C19   A    
C29   H21   S    
C44   N2    A    
C1    C43   S    
C3    C38   S    
C36   H36   S    
C37   H38   S    
C6    O6    A    
Cu1   O5    S    
C39   H44   S    
C32   H22   S    
C11   H47   S    
C40   C42   A    
C21   C27   S    
C30   H17   S    
C13   H45   S    
C41   C43   A    
C34   C41   A    
C26   H8    S    
C32   H25   S    
C20   C29   S    
C28   H14   S    
C3    C44   A    
Cu2   O3    S    
C35   H30   S    
C8    C19   A    
C24   H2    S    
C14   C20   S    
C36   C40   S    
C19   C22   S    
C2    N1    A    
Cu1   O1    S    
C5    C7    S    
C6    C8    S    
C25   C26   S    
C28   H11   S    
Cu2   O6    S    
C10   C13   A    
C17   H34   S    
C38   H42   S    
C23   C31   S    
C2    C4    A    
C12   O4    A    
C29   C30   S    
C27   H16   S    
C26   H6    S    
C3    N1    A    
C31   C32   S    
C4    C39   S    
C36   H35   S    
C7    C18   A    
C33   C34   S    
C6    O8    A    
C9    C11   A    
C16   C18   A    
C31   H26   S    
C9    H1    S    
C13   C15   A    
C14   C16   A    
C26   H7    S    
C1    O3    A    
C39   H46   S    
Cu1   O8    S    
C28   H13   S    
C24   H3    S    
C7    C9    A    
Cu2   O2    S    
C16   H23   S    
C25   H9    S    
C36   H33   S    
C32   H24   S    
C22   H4    S    
C38   H41   S    
Cu1   N1    S    
C33   H31   S    
C33   C35   S    
C22   C24   S    
C37   C41   S    
C12   O2    A    
C30   H19   S    
C44   H48   S    
Cu1   O4    S    
C29   H20   S    
C15   C21   S    
C20   C21   D    
C8    C10   A    
C27   C28   S    
C37   H37   S    
C39   H43   S    
C22   H5    S    
