data_mof_unit_19571.cif
_audit_creation_date              2013-03-05T16:21:02-0500
_audit_creation_method            fapswitch 2.2
_symmetry_space_group_name_H-M    P1
_symmetry_Int_Tables_number       1
_space_group_crystal_system       triclinic
_cell_length_a                    8.303871
_cell_length_b                    18.741263
_cell_length_c                    19.003112
_cell_angle_alpha                 103.412215
_cell_angle_beta                  92.298742
_cell_angle_gamma                 91.681767
_cell_volume                      2872.11346115

loop_
_atom_site_label
_atom_site_type_symbol
_atom_site_description
_atom_site_fract_x
_atom_site_fract_y
_atom_site_fract_z
_atom_type_partial_charge
P1    P     P_3+3 0.941030 0.670050 0.569830 0.484302
O1    O     O_2   0.114280 0.679350 0.549180 -0.365937
O2    O     O_3   0.866400 0.589600 0.543550 -0.415362
O3    O     O_3   0.362150 0.623490 0.415650 -0.374855
O4    O     O_2   0.239461 0.752321 0.472100 -0.368015
O5    O     O_3   0.963072 0.690656 0.664670 -0.523870
O6    O     O_3   0.331398 0.738473 0.342445 -0.444242
H1    H     H_    0.382421 0.646446 0.265561 0.104686
C1    C     C_3   0.453624 0.745522 0.233195 -0.751711
H2    H     H_    0.334584 0.759226 0.213026 0.280321
H3    H     H_    0.522620 0.797829 0.256439 0.290987
P2    P     P_3+3 0.370400 0.428500 0.331430 0.554973
P3    P     P_3+3 0.912934 0.596962 0.290577 0.464983
O7    O     O_2   0.197490 0.449210 0.322030 -0.329107
O8    O     O_3   0.950520 0.583920 0.376610 -0.305978
O9    O     O_2   0.036797 0.547100 0.247305 -0.417572
O10   O     O_3   0.367736 0.332663 0.310683 -0.474727
O11   O     O_3   0.985529 0.687173 0.296351 -0.522027
C2    C     C_3   0.909335 0.717762 0.243391 0.679097
H4    H     H_    0.777643 0.706319 0.240870 -0.072557
C3    C     C_3   0.977187 0.687470 0.168442 -0.227416
H5    H     H_    0.110208 0.694369 0.172081 0.144302
C4    C     C_3   0.904770 0.263206 0.289818 0.474873
H6    H     H_    0.977799 0.229693 0.319120 -0.030848
C5    C     C_3   0.789942 0.212612 0.231844 0.319553
H7    H     H_    0.859236 0.188330 0.183851 0.142177
Ba1   Ba    Ba6+2 0.155460 0.532000 0.467920 1.641280
C6    C     C_3   0.001842 0.627047 0.687601 0.442066
H8    H     H_    0.108582 0.602589 0.660105 0.080081
H9    H     H_    0.899688 0.586145 0.675382 0.129662
C7    C     C_3   0.038324 0.646375 0.769244 -0.831337
H10   H     H_    0.145719 0.684413 0.783328 0.303464
H11   H     H_    0.060242 0.596085 0.788659 0.185086
H12   H     H_    0.934783 0.672419 0.798307 0.286596
C8    C     C_3   0.317688 0.306392 0.369739 0.470052
H13   H     H_    0.192806 0.322268 0.381516 0.041847
H14   H     H_    0.397930 0.327560 0.418668 0.122624
C9    C     C_3   0.324457 0.223284 0.349743 -0.897093
H15   H     H_    0.251896 0.199951 0.298855 0.291324
H16   H     H_    0.278278 0.199277 0.393318 0.195161
H17   H     H_    0.451204 0.208293 0.341245 0.279274
P4    P     P_3+3 0.869270 0.329940 0.430110 0.516644
O12   O     O_2   0.696020 0.320600 0.450800 -0.349193
O13   O     O_3   0.943900 0.410390 0.456390 -0.360885
O14   O     O_3   0.448150 0.376500 0.584290 -0.347089
O15   O     O_3   0.821037 0.318672 0.336154 -0.505906
P5    P     P_3+3 0.891333 0.411769 0.712812 0.461367
O16   O     O_3   0.365880 0.544470 0.588730 -0.393380
O17   O     O_3   0.859790 0.416060 0.623340 -0.332233
O18   O     O_2   0.791796 0.475573 0.752629 -0.416701
O19   O     O_3   0.799237 0.332194 0.729529 -0.532864
Ba2   Ba    Ba6+2 0.654730 0.467990 0.532020 1.626961
P6    P     P_3+3 0.378629 0.718547 0.426091 0.498265
C10   C     C_3   0.435762 0.701977 0.291000 0.351386
H18   H     H_    0.558586 0.696855 0.314581 0.025277
H19   H     H_    0.516748 0.713210 0.186732 0.223441
O20   O     O_3   0.444420 0.455520 0.411210 -0.412706
C11   C     C_3   0.533713 0.706498 0.685826 0.741476
H20   H     H_    0.602686 0.673328 0.641616 -0.039936
C12   C     C_3   0.451253 0.766570 0.657346 -0.202971
H21   H     H_    0.543140 0.804415 0.643008 0.104521
H22   H     H_    0.376849 0.741364 0.607696 0.139463
P7    P     P_3+3 0.430260 0.570863 0.680615 0.450428
O21   O     O_2   0.612810 0.550740 0.677950 -0.372709
O22   O     O_3   0.415987 0.665883 0.712848 -0.576602
H23   H     H_    0.949491 0.627845 0.149936 0.084026
C13   C     C_3   0.904754 0.273018 0.716932 0.671834
H24   H     H_    0.028583 0.287701 0.703604 -0.069524
C14   C     C_3   0.915837 0.240197 0.783816 -0.141673
H25   H     H_    0.794364 0.229599 0.801577 0.152054
H26   H     H_    0.980573 0.279020 0.829665 0.142986
P8    P     P_3+3 0.424387 0.282312 0.577479 0.492556
C15   C     C_3   0.384371 0.268237 0.709587 0.149975
H27   H     H_    0.285319 0.226517 0.689528 0.092827
O23   O     O_2   0.548907 0.247599 0.523214 -0.358369
O24   O     O_3   0.501721 0.264104 0.657965 -0.454470
H28   H     H_    0.336614 0.324043 0.723209 0.084883
C16   C     C_3   0.469648 0.251951 0.776778 -0.056396
H29   H     H_    0.558266 0.297489 0.800786 0.139627
H30   H     H_    0.535673 0.200550 0.759139 0.163381
C17   C     C_R   0.999851 0.952955 0.530813 0.025612
C18   C     C_R   0.093676 0.907824 0.564372 0.109184
C19   C     C_R   0.250556 0.931896 0.591630 -0.108840
C20   C     C_R   0.311603 0.001227 0.588473 -0.160380
C21   C     C_R   0.216900 0.047946 0.557884 0.149493
C22   C     C_R   0.061353 0.023447 0.527935 0.071240
C23   C     C_R   0.274707 0.119010 0.558061 -0.244832
C24   C     C_R   0.177616 0.167671 0.530518 -0.003821
C25   C     C_R   0.025738 0.141499 0.495719 0.073570
C26   C     C_R   0.967302 0.069436 0.495528 0.051550
C27   C     C_R   0.224784 0.242415 0.538749 0.128461
C28   C     C_R   0.123982 0.288686 0.510882 -0.452157
C29   C     C_R   0.981229 0.262487 0.470474 0.175640
C30   C     C_R   0.928286 0.188348 0.464415 -0.026718
C31   C     C_R   0.844403 0.928000 0.500972 0.040611
C32   C     C_R   0.784841 0.856654 0.502468 0.037442
C33   C     C_R   0.880945 0.810516 0.535245 -0.046728
C34   C     C_R   0.030767 0.839005 0.569383 -0.086469
H31   H     H_    0.327325 0.896888 0.614697 0.159621
H32   H     H_    0.432658 0.018504 0.610494 0.156068
H33   H     H_    0.162165 0.345645 0.517386 0.154322
H34   H     H_    0.393998 0.136351 0.581854 0.186814
H35   H     H_    0.102247 0.807638 0.598824 0.187808
C35   C     C_R   0.777054 0.160708 0.432152 -0.069824
C36   C     C_R   0.716538 0.090821 0.434669 0.104226
C37   C     C_R   0.811575 0.044650 0.466062 0.033295
C38   C     C_R   0.749642 0.974135 0.468778 0.015915
C39   C     C_R   0.560389 0.067024 0.406955 -0.186818
C40   C     C_R   0.498181 0.997618 0.408893 0.320919
C41   C     C_R   0.592527 0.950212 0.439788 0.011071
C42   C     C_R   0.629454 0.831689 0.471125 -0.027883
C43   C     C_R   0.533943 0.879725 0.442026 -0.167870
C44   C     C_R   0.575024 0.758940 0.469023 0.133191
C45   C     C_R   0.674380 0.712754 0.497748 -0.499353
C46   C     C_R   0.825082 0.737105 0.531446 0.264009
H36   H     H_    0.701644 0.193753 0.406447 0.164250
H37   H     H_    0.485531 0.102406 0.383473 0.177699
H38   H     H_    0.413237 0.862435 0.420978 0.219432
H39   H     H_    0.632005 0.656971 0.495035 0.176968
C47   C     C_R   0.353256 0.527878 0.810159 -0.314044
H40   H     H_    0.436068 0.572211 0.837417 0.175606
C48   C     C_R   0.321456 0.518282 0.735119 0.299634
C49   C     C_R   0.167337 0.426563 0.808233 -0.302530
H41   H     H_    0.121575 0.380943 0.827211 0.156685
C50   C     C_R   0.103995 0.433997 0.741334 0.163066
C51   C     C_R   0.634492 0.561005 0.192252 -0.389015
H42   H     H_    0.673083 0.603146 0.166055 0.155275
C52   C     C_R   0.703609 0.560898 0.260902 0.163884
C53   C     C_R   0.468172 0.454950 0.197663 -0.252536
H43   H     H_    0.392499 0.406985 0.172989 0.187381
C54   C     C_R   0.495547 0.471973 0.273069 0.300787
C55   C     C_R   0.287256 0.476956 0.847766 0.110960
C56   C     C_R   0.192583 0.472823 0.701646 -0.389374
H44   H     H_    0.152623 0.472756 0.646725 0.139972
C57   C     C_R   0.522938 0.504169 0.156237 0.106279
C58   C     C_R   0.622554 0.521389 0.303631 -0.310605
H45   H     H_    0.662208 0.526814 0.359601 0.158696
C59   C     C_R   0.079412 0.435868 0.963004 -0.146670
C60   C     C_R   0.986357 0.412013 0.012852 -0.084952
C61   C     C_R   0.036364 0.429929 0.084939 -0.038934
C62   C     C_R   0.184247 0.466424 0.105359 -0.176662
C63   C     C_R   0.298495 0.474089 0.054167 0.054506
C64   C     C_R   0.241928 0.461996 0.979731 0.139640
C65   C     C_R   0.462523 0.496152 0.076982 -0.043311
C66   C     C_R   0.567706 0.507826 0.022679 0.119329
C67   C     C_R   0.511701 0.495372 0.948432 0.056271
C68   C     C_R   0.346364 0.476930 0.925907 -0.012548
C69   C     C_R   0.731842 0.530326 0.039317 -0.168402
C70   C     C_R   0.826917 0.552917 0.989537 -0.044800
C71   C     C_R   0.777003 0.534852 0.917407 -0.079743
C72   C     C_R   0.627887 0.498864 0.896966 -0.161826
H46   H     H_    0.013230 0.437977 0.914480 0.114757
H47   H     H_    0.865976 0.388436 0.996999 0.143749
H48   H     H_    0.955941 0.420150 0.125477 0.173641
H49   H     H_    0.207756 0.488076 0.161931 0.181505
H50   H     H_    0.794404 0.527049 0.088643 0.127177
H51   H     H_    0.948099 0.575393 0.005411 0.136159
H52   H     H_    0.859385 0.544065 0.877542 0.156467
H53   H     H_    0.602688 0.474367 0.840605 0.189804
Br1   Br    Br    0.617016 0.264705 0.196633 -0.363034
Br2   Br    Br    0.702560 0.126820 0.258676 -0.461099
Br3   Br    Br    0.681650 0.753435 0.765705 -0.382103
Br4   Br    Br    0.313182 0.822484 0.729132 -0.352326
Br5   Br    Br    0.815662 0.198857 0.635312 -0.482500
Br6   Br    Br    0.024015 0.147431 0.765784 -0.360233
N1    N     N_R   0.359482 0.242545 0.831958 0.256649
O25   O     O_R   0.355320 0.180793 0.852161 -0.261511
O26   O     O_R   0.301796 0.299940 0.873940 -0.417481
N2    N     N_R   0.938118 0.797367 0.264691 0.264388
O27   O     O_R   0.818369 0.840598 0.280094 -0.370375
O28   O     O_R   0.084665 0.825399 0.273091 -0.287788
Br7   Br    Br    0.283946 0.971352 0.367206 -0.425209
N3    N     N_R   0.910191 0.724383 0.114830 0.268387
O29   O     O_R   0.004759 0.761780 0.082486 -0.278238
O30   O     O_R   0.756955 0.717144 0.096450 -0.368548
Br8   Br    Br    0.041285 0.311203 0.232817 -0.466867

loop_
_geom_bond_atom_site_label_1
_geom_bond_atom_site_label_2
_geom_bond_distance
_ccdc_geom_bond_type
Ba1   O16   2.789903 S    
C43   H38   1.076231 S    
C23   C24   1.409379 A    
P7    O22   1.752900 S    
C51   H42   1.074512 S    
P2    C54   1.853549 S    
O3    P6    1.746812 S    
P4    C29   1.874138 S    
N2    O28   1.300118 A    
N2    O27   1.300587 A    
C2    H4    1.105177 S    
P8    O24   1.744798 S    
C66   C69   1.416082 A    
C66   C67   1.431666 A    
C49   H41   1.067905 S    
P5    O17   1.730577 S    
C21   C22   1.409989 A    
Ba1   Ba2   4.547070 S    
C64   C68   1.437445 A    
C69   H50   1.068544 S    
C29   C30   1.422307 A    
P3    O11   1.755729 S    
C19   C20   1.395989 A    
O4    P6    1.538772 D    
C6    H8    1.103923 S    
C2    C3    1.541532 S    
C53   H43   1.081877 S    
C59   C64   1.420074 A    
C52   C58   1.397908 A    
C9    H15   1.109526 S    
C17   C31   1.410437 A    
O2    Ba2   2.798960 S    
C16   H30   1.112143 S    
O12   Ba2   2.872301 S    
C49   C50   1.394668 A    
C37   C38   1.416869 A    
C60   H47   1.083242 S    
C11   C12   1.525602 S    
C34   H35   1.075785 S    
C33   C34   1.410418 A    
C12   Br4   1.950984 S    
C39   C40   1.394444 A    
C12   H22   1.106541 S    
P1    O1    1.521962 D    
P4    O15   1.776404 S    
C25   C30   1.423047 A    
C14   H26   1.105841 S    
C53   C57   1.420687 A    
P3    C52   1.863268 S    
C62   C63   1.413461 A    
Ba1   O13   2.798408 S    
O5    C6    1.402487 S    
C42   C43   1.408166 A    
C47   C48   1.408401 A    
P2    O10   1.746543 S    
C4    H6    1.108977 S    
C7    H11   1.106144 S    
O1    Ba1   2.871762 S    
O7    Ba1   2.886016 S    
C33   C46   1.423746 A    
C1    H2    1.104597 S    
C17   C22   1.416079 A    
C40   Br7   1.920755 S    
O13   Ba2   2.950598 S    
C21   C23   1.401606 A    
C30   C35   1.404989 A    
P7    O21   1.572737 D    
C4    O15   1.416423 S    
C35   H36   1.073693 S    
C3    H5    1.105869 S    
O14   P8    1.744465 S    
N1    O26   1.298373 A    
C18   C34   1.402443 A    
P4    O13   1.574084 S    
P8    O23   1.539344 D    
C13   Br5   1.931915 S    
C35   C36   1.400960 A    
C36   C39   1.399954 A    
P6    C44   1.852714 S    
P5    C50   1.833319 S    
P5    O18   1.540782 D    
C41   C43   1.404835 A    
N3    O30   1.300680 A    
C15   H27   1.109967 S    
C61   C62   1.384100 A    
C32   C42   1.418526 A    
C16   N1    1.456274 S    
C63   C64   1.436872 A    
C67   C68   1.429685 A    
P2    Ba1   3.451983 S    
C13   H24   1.110767 S    
C20   H32   1.083848 S    
C8    C9    1.518492 S    
C20   C21   1.400998 A    
C26   C37   1.409798 A    
C9    H17   1.105748 S    
C54   C58   1.396881 A    
C22   C26   1.406848 A    
C5    Br2   1.926966 S    
C27   C28   1.397566 A    
P8    C27   1.849890 S    
C16   H29   1.110679 S    
O11   C2    1.406994 S    
O16   P7    1.757342 S    
P5    O19   1.755608 S    
C4    Br8   1.938586 S    
O14   Ba2   2.761050 S    
C59   H46   1.063664 S    
C11   H20   1.112425 S    
N3    O29   1.300747 A    
C17   C18   1.406467 A    
P1    O5    1.754218 S    
C12   H21   1.110877 S    
P1    O2    1.574082 S    
C8    H13   1.104459 S    
C72   H53   1.072370 S    
C48   C56   1.384247 A    
C23   H34   1.080880 S    
C11   O22   1.405940 S    
O8    Ba1   2.738127 S    
C7    H10   1.109117 S    
C24   C27   1.414696 A    
C15   C16   1.531636 S    
O17   Ba2   2.738959 S    
C32   C33   1.422309 A    
C5    Br1   1.941924 S    
C7    H12   1.104610 S    
C42   C44   1.414885 A    
C1    H19   1.108500 S    
O19   C13   1.416218 S    
C69   C70   1.386902 A    
Ba1   O20   2.943819 S    
C1    H3    1.109146 S    
C31   C38   1.409886 A    
C28   H33   1.082176 S    
P2    O20   1.575915 S    
C57   C65   1.540312 S    
P2    O7    1.512760 D    
C51   C57   1.419193 A    
C3    N3    1.459495 S    
P3    O8    1.725973 S    
Ba2   O21   2.886258 S    
N1    O25   1.301068 A    
C15   O24   1.401337 S    
C63   C65   1.431983 A    
P4    O12   1.522317 D    
O6    P6    1.747537 S    
H1    C10   1.111464 S    
Ba2   O20   2.789364 S    
C11   Br3   1.937687 S    
O3    Ba1   2.761615 S    
C47   H40   1.081550 S    
C44   C45   1.397452 A    
C50   C56   1.380967 A    
C10   H18   1.113224 S    
C51   C52   1.404461 A    
C71   H52   1.080273 S    
C8    H14   1.108855 S    
C47   C55   1.427928 A    
C55   C68   1.545253 S    
C39   H37   1.079086 S    
C6    C7    1.524852 S    
C62   H49   1.065197 S    
C2    N2    1.462161 S    
C65   C66   1.428799 A    
C49   C55   1.415477 A    
C60   C61   1.376427 A    
C45   C46   1.396771 A    
P1    C46   1.865020 S    
C36   C37   1.403280 A    
C3    H23   1.105155 S    
C6    H9    1.106583 S    
C5    H7    1.111269 S    
C70   C71   1.377001 A    
C9    H16   1.106038 S    
P7    C48   1.832056 S    
C56   H44   1.082107 S    
C45   H39   1.082298 S    
O2    Ba1   2.949829 S    
C28   C29   1.397793 A    
C38   C41   1.414242 A    
C4    C5    1.549197 S    
C14   H25   1.103398 S    
C14   Br6   1.945987 S    
C59   C60   1.388950 A    
C67   C72   1.411841 A    
O16   Ba2   2.943048 S    
C24   C25   1.419425 A    
C18   C19   1.404235 A    
P3    O9    1.541140 D    
P4    Ba2   3.441063 S    
C31   C32   1.418882 A    
P1    Ba1   3.440549 S    
C15   H28   1.106843 S    
C71   C72   1.389203 A    
C58   H45   1.081577 S    
C19   H31   1.079139 S    
C1    C10   1.522010 S    
O10   C8    1.398658 S    
O6    C10   1.402555 S    
C13   C14   1.535862 S    
C25   C26   1.420751 A    
C40   C41   1.411992 A    
C70   H51   1.082988 S    
C61   H48   1.082866 S    
C53   C54   1.401538 A    
