data_mof_unit_61836.cif
_audit_creation_date              2012-12-10T20:58:27-0500
_audit_creation_method            fapswitch 2.2
_symmetry_space_group_name_H-M    P1
_symmetry_Int_Tables_number       1
_space_group_crystal_system       triclinic
_cell_length_a                    15.85143
_cell_length_b                    15.085086
_cell_length_c                    11.570832
_cell_angle_alpha                 89.999967
_cell_angle_beta                  89.97586
_cell_angle_gamma                 90.0
_cell_volume                      2766.81924024

loop_
_atom_site_label
_atom_site_type_symbol
_atom_type_description
_atom_site_fract_x
_atom_site_fract_y
_atom_site_fract_z
_atom_type_partial_charge
C1    C     C_R   0.338869 0.500000 0.500055 0.906717
C2    C     C_R   0.559148 0.046855 0.565617 -0.162399
C3    C     C_R   0.559148 0.953145 0.565617 -0.162399
C4    C     C_R   0.440852 0.046855 0.434383 -0.162399
C5    C     C_1   0.500000 0.807146 0.500000 0.043532
C6    C     C_1   0.500000 0.192854 0.500000 0.043532
C7    C     C_1   0.500008 0.500000 0.161132 -0.184659
C8    C     C_1   0.499992 0.500000 0.838868 -0.184659
C9    C     C_1   0.500003 0.500000 0.059191 0.003912
C10   C     C_1   0.499997 0.500000 0.940809 0.003912
C11   C     C_R   0.956259 0.580696 0.499917 -0.183040
C12   C     C_R   0.661131 0.500000 0.499945 0.906718
C13   C     C_R   0.043741 0.419304 0.500083 -0.183040
C14   C     C_R   0.043741 0.580696 0.499949 -0.183040
C15   C     C_R   0.956259 0.419304 0.500050 -0.183039
C16   C     C_R   0.913150 0.500000 0.499967 0.171875
C17   C     C_R   0.086850 0.500000 0.500033 0.171875
C18   C     C_1   0.824367 0.500000 0.499946 -0.073237
C19   C     C_1   0.175632 0.500000 0.500054 -0.073237
C20   C     C_1   0.250469 0.500000 0.500061 -0.178217
C21   C     C_1   0.749531 0.500000 0.499939 -0.178216
C22   C     C_R   0.500000 0.905036 0.500000 0.080348
C23   C     C_R   0.500000 0.094964 0.500000 0.080348
C24   C     C_R   0.500012 0.500000 0.281330 0.905485
C25   C     C_R   0.499988 0.500000 0.718670 0.905486
C26   C     C_R   0.440852 0.953145 0.434383 -0.162399
H1    H     H_    0.394475 0.081801 0.382935 0.134864
H2    H     H_    0.605525 0.918199 0.617065 0.134864
H3    H     H_    0.605525 0.081801 0.617065 0.134864
H4    H     H_    0.394475 0.918199 0.382935 0.134864
H5    H     H_    0.077647 0.643088 0.499909 0.142995
H6    H     H_    0.922353 0.356912 0.500091 0.142995
H7    H     H_    0.922353 0.643088 0.499854 0.142996
H8    H     H_    0.077647 0.356912 0.500146 0.142996
N1    N     N_1   0.500000 0.270550 0.500000 -0.085422
N2    N     N_1   0.500000 0.729450 0.500000 -0.085422
O1    O     O_R   0.378020 0.573650 0.500040 -0.609782
O2    O     O_R   0.621980 0.426350 0.499960 -0.609782
O3    O     O_R   0.621980 0.573650 0.499960 -0.609782
O4    O     O_R   0.378020 0.426350 0.500040 -0.609781
O5    O     O_R   0.500010 0.573670 0.334460 -0.608295
O6    O     O_R   0.499990 0.426330 0.665540 -0.608295
O7    O     O_R   0.499990 0.573670 0.665540 -0.608294
O8    O     O_R   0.500010 0.426330 0.334460 -0.608294
Zn1   Zn    Zn3+2 0.500000 0.598370 0.500000 0.980975
Zn2   Zn    Zn3+2 0.500000 0.401630 0.500000 0.980975

loop_
_geom_bond_atom_site_label_1
_geom_bond_atom_site_label_2
_ccdc_geom_bond_type
C25   O6    A    
C4    C26   A    
C8    C25   S    
C1    O1    A    
C18   C21   T    
C9    C10   S    
C19   C20   T    
C13   C17   A    
C14   H5    S    
O3    Zn1   S    
C25   O7    A    
C12   O3    A    
C2    C3    A    
N2    Zn1   S    
O4    Zn2   S    
C24   O5    A    
O7    Zn1   S    
C14   C17   A    
C22   C26   A    
C2    H3    S    
C6    C23   S    
C8    C10   T    
C3    H2    S    
C17   C19   S    
O8    Zn2   S    
C26   H4    S    
C13   C15   A    
C12   O2    A    
C24   O8    A    
C11   C14   A    
O2    Zn2   S    
C11   C16   A    
O1    Zn1   S    
C7    C24   S    
C5    N2    T    
C11   H7    S    
C4    H1    S    
C6    N1    T    
C16   C18   S    
O6    Zn2   S    
C2    C23   A    
C7    C9    T    
C4    C23   A    
O5    Zn1   S    
C1    C20   S    
C13   H8    S    
C1    O4    A    
N1    Zn2   S    
C12   C21   S    
C5    C22   S    
C15   C16   A    
C3    C22   A    
C15   H6    S    
