data_mof_unit_61574.cif
_audit_creation_date              2012-12-10T18:28:14-0500
_audit_creation_method            fapswitch 2.2
_symmetry_space_group_name_H-M    P1
_symmetry_Int_Tables_number       1
_space_group_crystal_system       triclinic
_cell_length_a                    16.056688
_cell_length_b                    17.317505
_cell_length_c                    23.509631
_cell_angle_alpha                 90.145664
_cell_angle_beta                  92.850153
_cell_angle_gamma                 97.615207
_cell_volume                      6471.18439268

loop_
_atom_site_label
_atom_site_type_symbol
_atom_type_description
_atom_site_fract_x
_atom_site_fract_y
_atom_site_fract_z
_atom_type_partial_charge
C1    C     C_R   0.488490 0.349903 0.501635 0.845548
C2    C     C_R   0.511510 0.650097 0.498365 0.845549
C3    C     C_R   0.575965 0.502427 0.241368 0.185385
C4    C     C_R   0.424036 0.497584 0.758632 0.185384
C5    C     C_R   0.575790 0.502351 0.300693 -0.237468
C6    C     C_R   0.424211 0.497659 0.699307 -0.237471
C7    C     C_R   0.499942 0.499930 0.328324 -0.099866
C8    C     C_R   0.500058 0.500071 0.671676 -0.099869
C9    C     C_R   0.424023 0.497618 0.295614 -0.189804
C10   C     C_R   0.575977 0.502376 0.704385 -0.189799
C11   C     C_R   0.423708 0.497694 0.236277 0.176508
C12   C     C_R   0.576292 0.502302 0.763723 0.176509
C13   C     C_R   0.499800 0.500085 0.208910 0.256027
C14   C     C_R   0.500200 0.499920 0.791090 0.256028
C15   C     C_R   0.480606 0.265252 0.504775 -0.042761
C16   C     C_R   0.519394 0.734748 0.495225 -0.042760
C17   C     C_R   0.531405 0.226790 0.543421 -0.023247
C18   C     C_R   0.468595 0.773210 0.456579 -0.023248
C19   C     C_R   0.526153 0.145780 0.540153 -0.216714
C20   C     C_R   0.473848 0.854220 0.459846 -0.216714
C21   C     C_R   0.470262 0.103003 0.500279 0.178369
C22   C     C_R   0.529738 0.896997 0.499721 0.178369
C23   C     C_R   0.499980 0.499852 0.390985 0.866182
C24   C     C_R   0.500020 0.500148 0.609015 0.866182
C25   C     C_R   0.416622 0.141166 0.464984 -0.137746
C26   C     C_R   0.583378 0.858834 0.535016 -0.137745
C27   C     C_R   0.422052 0.221817 0.466983 -0.212506
C28   C     C_R   0.577948 0.778183 0.533018 -0.212507
C29   C     C_2   0.466033 0.018182 0.495081 -0.201853
C30   C     C_2   0.533967 0.981818 0.504918 -0.201853
C31   C     C_R   0.747849 0.462354 0.472959 0.079652
C32   C     C_R   0.252151 0.537649 0.527039 0.079654
C33   C     C_R   0.834504 0.461668 0.476731 -0.243569
C34   C     C_R   0.165497 0.538335 0.523265 -0.243571
C35   C     C_R   0.885078 0.510942 0.515956 0.088927
C36   C     C_R   0.114922 0.489060 0.484041 0.088929
C37   C     C_R   0.846262 0.561025 0.551022 -0.088048
C38   C     C_R   0.153738 0.438975 0.448978 -0.088050
C39   C     C_R   0.758290 0.558857 0.545516 0.102759
C40   C     C_R   0.241710 0.441142 0.454485 0.102759
C41   C     C_2   0.976864 0.506214 0.522258 -0.201339
C42   C     C_2   0.023137 0.493789 0.477739 -0.201339
C43   C     C_R   0.507689 0.569559 0.880776 0.593117
C44   C     C_R   0.492312 0.430445 0.119223 0.593117
C45   C     C_R   0.492785 0.430348 0.880041 0.596115
C46   C     C_R   0.507218 0.569657 0.119958 0.596114
C47   C     C_R   0.492525 0.428903 0.939678 -0.021317
C48   C     C_R   0.507477 0.571102 0.060321 -0.021317
C49   C     C_R   0.500068 0.499990 0.969990 -0.009172
C50   C     C_R   0.499933 0.500014 0.030009 -0.009172
C51   C     C_R   0.507741 0.571054 0.940428 -0.018900
C52   C     C_R   0.492259 0.428951 0.059572 -0.018899
C53   C     C_R   0.484912 0.358399 0.969583 -0.136626
C54   C     C_R   0.515090 0.641606 0.030416 -0.136626
C55   C     C_R   0.484779 0.358423 0.028925 -0.136180
C56   C     C_R   0.515222 0.641582 0.971075 -0.136179
Cu1   Cu    Cu3+1 0.415410 0.495980 0.497100 0.983461
Cu2   Cu    Cu3+1 0.584590 0.504020 0.502900 0.983460
H1    H     H_    0.479030 0.303004 0.947261 0.194942
H2    H     H_    0.520972 0.697001 0.052739 0.194943
H3    H     H_    0.372254 0.108668 0.434643 0.142639
H4    H     H_    0.627746 0.891332 0.565357 0.142639
H5    H     H_    0.435928 0.884021 0.429956 0.126266
H6    H     H_    0.564074 0.115979 0.570044 0.126266
H7    H     H_    0.708996 0.423549 0.443302 0.130483
H8    H     H_    0.291004 0.576456 0.556694 0.130482
H9    H     H_    0.273545 0.404098 0.428185 0.157580
H10   H     H_    0.726454 0.595899 0.571818 0.157581
H11   H     H_    0.993119 0.487841 0.435294 0.151480
H12   H     H_    0.006882 0.512162 0.564703 0.151481
H13   H     H_    0.138738 0.578963 0.549752 0.142227
H14   H     H_    0.861263 0.421043 0.450243 0.142227
H15   H     H_    0.478806 0.303046 0.050665 0.194840
H16   H     H_    0.521194 0.696959 0.949335 0.194840
H17   H     H_    0.635083 0.504125 0.325027 0.182593
H18   H     H_    0.364918 0.495891 0.674973 0.182592
H19   H     H_    0.364773 0.495780 0.315980 0.193946
H20   H     H_    0.635227 0.504206 0.684019 0.193949
H21   H     H_    0.617928 0.749404 0.562230 0.159706
H22   H     H_    0.382071 0.250596 0.437770 0.159706
H23   H     H_    0.594037 0.014500 0.518705 0.150046
H24   H     H_    0.405963 0.985500 0.481295 0.150046
N1    N     N_R   0.500266 0.499942 0.852037 -0.456742
N2    N     N_R   0.499736 0.500063 0.147963 -0.456743
N3    N     N_R   0.711660 0.510070 0.507250 -0.198732
N4    N     N_R   0.288340 0.489930 0.492750 -0.198731
O1    O     O_R   0.420280 0.382610 0.497280 -0.595789
O2    O     O_R   0.579720 0.617390 0.502720 -0.595788
O3    O     O_R   0.563150 0.389410 0.502170 -0.565069
O4    O     O_R   0.436850 0.610590 0.497830 -0.565070
O5    O     O_R   0.428550 0.496580 0.415430 -0.567770
O6    O     O_R   0.571450 0.503420 0.584570 -0.567772
O7    O     O_R   0.571420 0.503370 0.420330 -0.598150
O8    O     O_R   0.428580 0.496630 0.579670 -0.598147
O9    O     O_2   0.514954 0.636944 0.851627 -0.511477
O10   O     O_2   0.485046 0.363060 0.148373 -0.511477
O11   O     O_2   0.485618 0.362941 0.850180 -0.504759
O12   O     O_2   0.514387 0.637065 0.149819 -0.504758
C57   C     C_2   0.895861 0.616623 0.592075 0.359734
H25   H     H_    0.963991 0.625550 0.592832 0.080042
O13   O     O_2   0.860936 0.654093 0.625528 -0.524088
C58   C     C_2   0.104139 0.383377 0.407924 0.359729
H26   H     H_    0.036010 0.374455 0.407164 0.080043
O14   O     O_2   0.139064 0.345904 0.374472 -0.524084
I1    I     I_    0.692550 0.506065 0.202387 -0.268927
I2    I     I_    0.307452 0.493957 0.797614 -0.268928
I3    I     I_    0.307010 0.494119 0.189522 -0.236133
I4    I     I_    0.692990 0.505866 0.810476 -0.236131
C59   C     C_2   0.587959 0.267239 0.589243 0.380203
H27   H     H_    0.639099 0.239011 0.607976 0.074412
O15   O     O_2   0.576074 0.330083 0.608598 -0.528442
C60   C     C_2   0.412042 0.732761 0.410756 0.380203
H28   H     H_    0.360903 0.760990 0.392022 0.074413
O16   O     O_2   0.423926 0.669916 0.391402 -0.528441

loop_
_geom_bond_atom_site_label_1
_geom_bond_atom_site_label_2
_ccdc_geom_bond_type
C16   C28   A    
C1    O1    A    
C31   N3    A    
C43   N1    A    
C41   C42   D    
C36   C42   S    
C60   O16   D    
C10   H20   S    
C47   C49   A    
C54   H2    S    
C3    I1    S    
C48   C54   A    
C13   N2    S    
C35   C37   A    
Cu2   O7    S    
C18   C60   S    
C59   O15   D    
C33   C35   A    
Cu1   N4    S    
C31   H7    S    
C51   C56   A    
C39   H10   S    
C45   C47   A    
C40   N4    A    
C2    O4    A    
C28   H21   S    
C33   H14   S    
C8    C24   S    
C15   C27   A    
C49   C51   A    
C40   H9    S    
C50   C52   A    
C31   C33   A    
C2    O2    A    
C1    C15   S    
C2    C16   S    
C18   C20   A    
C3    C13   A    
C52   C55   A    
C47   C53   A    
C44   C52   A    
C48   C50   A    
C46   O12   S    
C45   N1    A    
C14   N1    S    
C24   O6    A    
C25   H3    S    
C60   H28   S    
C46   C48   A    
C53   C55   A    
C53   H1    S    
C37   C39   A    
C54   C56   A    
C56   H16   S    
Cu1   O4    S    
C4    C6    A    
C27   H22   S    
C12   I4    S    
C6    C8    A    
C3    C5    A    
C21   C29   S    
C42   H11   S    
C23   O7    A    
Cu2   O2    S    
C32   C34   A    
C5    H17   S    
C29   C30   D    
C44   O10   S    
C24   O8    A    
C5    C7    A    
C43   O9    S    
C57   H25   S    
C19   H6    S    
C32   N4    A    
C9    H19   S    
C58   O14   D    
C9    C11   A    
C10   C12   A    
C46   N2    A    
C8    C10   A    
C57   O13   D    
C12   C14   A    
Cu1   O8    S    
C11   I3    S    
C23   O5    A    
C39   N3    A    
Cu2   N3    S    
C37   C57   S    
C32   H8    S    
C7    C9    A    
C21   C25   A    
C1    O3    A    
Cu1   O5    S    
C19   C21   A    
C20   C22   A    
C44   N2    A    
C17   C59   S    
C6    H18   S    
C25   C27   A    
C26   C28   A    
C20   H5    S    
C36   C38   A    
C26   H4    S    
C29   H24   S    
C38   C58   S    
C22   C30   S    
C59   H27   S    
C38   C40   A    
C11   C13   A    
C43   C51   A    
Cu1   Cu2   S    
C4    I2    S    
C30   H23   S    
C7    C23   S    
C17   C19   A    
C34   C36   A    
C4    C14   A    
C58   H26   S    
C35   C41   S    
Cu2   O3    S    
C55   H15   S    
Cu1   O1    S    
C16   C18   A    
C49   C50   A    
C22   C26   A    
C45   O11   S    
C15   C17   A    
Cu2   O6    S    
C34   H13   S    
C41   H12   S    
