data_mof_unit_58261.cif
_audit_creation_date              2012-12-10T16:48:47-0500
_audit_creation_method            fapswitch 2.2
_symmetry_space_group_name_H-M    P1
_symmetry_Int_Tables_number       1
_space_group_crystal_system       triclinic
_cell_length_a                    17.260478
_cell_length_b                    8.684443
_cell_length_c                    7.464822
_cell_angle_alpha                 102.844451
_cell_angle_beta                  91.10789
_cell_angle_gamma                 93.091299
_cell_volume                      1088.80818857

loop_
_atom_site_label
_atom_site_type_symbol
_atom_type_description
_atom_site_fract_x
_atom_site_fract_y
_atom_site_fract_z
_atom_type_partial_charge
C1    C     C_R   0.497630 0.199816 0.453706 0.887258
C2    C     C_R   0.502371 0.800183 0.546294 0.890088
C3    C     C_2   0.496516 0.031956 0.427621 -0.362848
C4    C     C_2   0.503498 0.968047 0.572377 -0.363976
C5    C     C_R   0.350975 0.502178 0.524143 0.800676
C6    C     C_R   0.648864 0.494387 0.475193 0.802198
C7    C     C_R   0.266427 0.507592 0.531576 -0.061857
C8    C     C_R   0.732370 0.473886 0.463436 -0.060050
C9    C     C_R   0.223091 0.471188 0.364875 -0.224140
C10   C     C_R   0.776559 0.489042 0.627126 -0.234879
C11   C     C_R   0.143516 0.487337 0.359975 0.033562
C12   C     C_R   0.854430 0.455449 0.623139 0.008296
C13   C     C_R   0.105401 0.532177 0.527785 0.080576
C14   C     C_R   0.890093 0.415110 0.452275 0.082409
C15   C     C_R   0.148782 0.571837 0.694397 -0.153424
C16   C     C_R   0.845583 0.394172 0.288956 -0.091630
C17   C     C_R   0.228959 0.558731 0.696814 -0.167170
C18   C     C_R   0.767074 0.424220 0.293926 -0.169940
C19   C     C_2   0.020643 0.531949 0.536020 -0.126605
C20   C     C_2   0.974605 0.410462 0.441032 -0.114529
Cu1   Cu    Cu3+1 0.508700 0.517250 0.683000 0.958803
Cu2   Cu    Cu3+1 0.491300 0.482750 0.317000 0.958890
H1    H     H_    0.251817 0.435267 0.235673 0.192809
H2    H     H_    0.749782 0.520765 0.759413 0.181118
H3    H     H_    0.733670 0.407672 0.166042 0.160567
H4    H     H_    0.261454 0.589776 0.826646 0.163805
H5    H     H_    0.998627 0.312175 0.346559 0.150960
H6    H     H_    0.995811 0.629338 0.630461 0.161587
H7    H     H_    0.120171 0.610206 0.823213 0.179484
H8    H     H_    0.872101 0.357622 0.157750 0.168597
H9    H     H_    0.489942 0.960602 0.288043 0.180194
H10   H     H_    0.510073 0.039403 0.711954 0.180009
H11   H     H_    0.439049 0.378234 0.957833 0.227957
H12   H     H_    0.560950 0.621763 0.042169 0.226998
N1    N     N_2   0.478180 0.456750 0.041980 -0.219000
N2    N     N_2   0.521820 0.543250 0.958020 -0.219669
O1    O     O_R   0.505650 0.286040 0.618880 -0.583709
O2    O     O_R   0.494350 0.713960 0.381120 -0.582445
O3    O     O_R   0.490960 0.256910 0.309800 -0.585169
O4    O     O_R   0.509040 0.743090 0.690200 -0.584338
O5    O     O_R   0.394600 0.516230 0.672450 -0.589873
O6    O     O_R   0.605400 0.483770 0.327550 -0.592549
O7    O     O_R   0.379910 0.487100 0.363380 -0.587863
O8    O     O_R   0.620090 0.512900 0.636620 -0.587740
C21   C     C_2   0.895456 0.450713 0.797307 0.813145
O9    O     O_2   0.884180 0.549265 0.937661 -0.579740
O10   O     O_R   0.945251 0.329769 0.801208 -0.759013
H13   H     H_    0.965224 0.330485 0.929646 0.342296
C22   C     C_2   0.104214 0.465269 0.176884 0.770186
O11   O     O_2   0.051102 0.547312 0.154149 -0.576454
O12   O     O_R   0.130484 0.354066 0.028360 -0.772923
H14   H     H_    0.100798 0.350691 0.909154 0.349062

loop_
_geom_bond_atom_site_label_1
_geom_bond_atom_site_label_2
_ccdc_geom_bond_type
C2    C4    S    
C5    O5    A    
C15   C17   A    
C11   C22   S    
C20   H5    S    
C2    O4    A    
Cu1   O8    S    
C11   C13   A    
C2    O2    A    
C19   C20   D    
C1    O1    A    
C13   C15   A    
C5    O7    A    
Cu1   N2    S    
Cu2   O6    S    
C21   O9    D    
C3    H9    S    
Cu2   N1    S    
C9    C11   A    
C4    H10   S    
Cu1   O4    S    
C10   C12   A    
Cu1   O5    S    
C17   H4    S    
C8    C10   A    
H11   N1    S    
C12   C14   A    
C15   H7    S    
H12   N2    S    
C21   O10   S    
C19   H6    S    
C18   H3    S    
C14   C16   A    
Cu2   O3    S    
C16   H8    S    
O12   H14   S    
Cu2   O2    S    
C14   C20   S    
Cu1   O1    S    
C6    O8    A    
C7    C9    A    
C22   O11   D    
C6    O6    A    
C1    C3    S    
C5    C7    S    
C1    O3    A    
C9    H1    S    
C13   C19   S    
C6    C8    S    
N1    N2    D    
C10   H2    S    
Cu1   Cu2   S    
C16   C18   A    
C8    C18   A    
C3    C4    D    
O10   H13   S    
C12   C21   S    
C22   O12   S    
Cu2   O7    S    
C7    C17   A    
