data_mof_unit_52018.cif
_audit_creation_date              2012-12-11T14:50:32-0500
_audit_creation_method            fapswitch 2.2
_symmetry_space_group_name_H-M    P1
_symmetry_Int_Tables_number       1
_space_group_crystal_system       triclinic
_cell_length_a                    10.83147
_cell_length_b                    10.970643
_cell_length_c                    18.753603
_cell_angle_alpha                 90.526823
_cell_angle_beta                  90.262831
_cell_angle_gamma                 60.043149
_cell_volume                      1930.65707588

loop_
_atom_site_label
_atom_site_type_symbol
_atom_type_description
_atom_site_fract_x
_atom_site_fract_y
_atom_site_fract_z
_atom_type_partial_charge
Br1   Br    Br    0.448462 0.948144 0.338431 -0.541086
C1    C     C_R   0.232558 0.648167 0.608387 0.528284
C2    C     C_R   0.619542 0.059050 0.772478 -0.141881
C3    C     C_R   0.598628 0.093268 0.700553 0.254184
C4    C     C_R   0.626412 0.586357 0.608827 0.554226
C5    C     C_R   0.682692 0.142418 0.668086 0.039280
C6    C     C_R   0.185692 0.556621 0.719133 -0.153536
C7    C     C_R   0.174384 0.564381 0.793119 -0.152859
C8    C     C_R   0.155017 0.685366 0.829080 0.026090
C9    C     C_R   0.143589 0.799032 0.790028 -0.146603
C10   C     C_R   0.148956 0.793435 0.716671 -0.145649
C11   C     C_R   0.177385 0.669636 0.680804 0.024961
C12   C     C_3   0.728316 0.498902 0.806075 -0.236570
C13   C     C_R   0.723793 0.527780 0.271326 -0.156366
C14   C     C_R   0.722330 0.540311 0.198329 -0.141549
C15   C     C_R   0.649007 0.673113 0.167343 -0.001727
C16   C     C_R   0.631622 0.222509 0.601446 0.560606
C17   C     C_R   0.564656 0.792174 0.209916 -0.098749
C18   C     C_R   0.562026 0.779703 0.283770 0.144030
C19   C     C_R   0.646624 0.646710 0.315138 0.043127
C20   C     C_R   0.516370 0.211576 0.280005 -0.097262
C21   C     C_R   0.521542 0.202735 0.207038 -0.133581
C22   C     C_R   0.645963 0.175952 0.172076 0.029884
C23   C     C_3   0.685526 0.655405 0.818039 0.057034
C24   C     C_R   0.759178 0.173726 0.209967 -0.146770
C25   C     C_R   0.754620 0.181013 0.283453 -0.153298
C26   C     C_R   0.634033 0.197482 0.318800 0.050748
C27   C     C_R   0.087437 0.805640 0.305570 -0.119522
C28   C     C_R   0.217179 0.650516 0.403065 0.546386
C29   C     C_R   0.071990 0.816404 0.233054 -0.113846
C30   C     C_R   0.105112 0.696935 0.191237 0.036049
C31   C     C_R   0.140531 0.569295 0.223309 -0.138542
C32   C     C_R   0.158664 0.557808 0.296511 -0.129268
C33   C     C_R   0.142179 0.673983 0.336654 0.031592
C34   C     C_3   0.645105 0.613675 0.684551 0.044064
C35   C     C_R   0.729348 0.039345 0.888933 0.562982
C36   C     C_R   0.716514 0.682264 0.891526 0.532775
C37   C     C_R   0.112659 0.709776 0.903751 0.539766
C38   C     C_R   0.672994 0.112253 0.102391 0.559319
C39   C     C_R   0.693225 0.690054 0.096793 0.549301
C40   C     C_R   0.640651 0.620932 0.390906 0.586787
C41   C     C_R   0.082043 0.715944 0.115659 0.555066
C42   C     C_R   0.614852 0.232989 0.393451 0.564607
C43   C     C_3   0.525562 0.746417 0.798651 -0.239092
C44   C     C_3   0.500752 0.715415 0.721065 -0.236248
C45   C     C_3   0.742819 0.678914 0.689517 -0.221346
C46   C     C_3   0.778347 0.688349 0.767658 -0.226546
C47   C     C_3   0.367051 0.132400 0.693438 -0.004205
C48   C     C_3   0.252841 0.168512 0.636997 -0.346241
C49   C     C_3   0.713458 0.473207 0.726265 -0.242515
C50   C     C_R   0.797137 0.138426 0.706003 -0.201033
C51   C     C_R   0.816149 0.104084 0.778417 -0.160935
C52   C     C_R   0.723274 0.069352 0.812503 -0.016388
Cr1   Cr    Cr6+3 0.392930 0.397900 0.502230 1.030760
Cr2   Cr    Cr6+3 0.398240 0.708600 0.501260 1.059438
Cr3   Cr    Cr6+3 0.708800 0.393470 0.496460 1.008363
Cr4   Cr    Cr6+3 0.937620 0.938540 0.007640 1.008295
Cr5   Cr    Cr6+3 0.625150 0.937450 0.994520 1.004951
Cr6   Cr    Cr6+3 0.937990 0.625080 0.001190 1.009721
H1    H     H_    0.489734 0.859623 0.804858 0.119151
H2    H     H_    0.126342 0.894917 0.815863 0.128968
H3    H     H_    0.459803 0.723137 0.835472 0.120859
H4    H     H_    0.141354 0.882820 0.688576 0.131217
H5    H     H_    0.785731 0.423461 0.293358 0.144020
H6    H     H_    0.787327 0.446844 0.166499 0.136587
H7    H     H_    0.508423 0.896002 0.186576 0.158674
H8    H     H_    0.418853 0.231160 0.305739 0.167582
H9    H     H_    0.432026 0.207148 0.178654 0.133744
H10   H     H_    0.855054 0.156724 0.183305 0.122860
H11   H     H_    0.844143 0.175250 0.312410 0.121769
H12   H     H_    0.820818 0.399702 0.704119 0.129877
H13   H     H_    0.069856 0.897245 0.336196 0.141770
H14   H     H_    0.433727 0.665236 0.721186 0.128722
H15   H     H_    0.036896 0.918414 0.209817 0.140150
H16   H     H_    0.159352 0.478251 0.191866 0.123950
H17   H     H_    0.197186 0.455726 0.320501 0.135531
H18   H     H_    0.442318 0.815981 0.691539 0.152849
H19   H     H_    0.765543 0.792795 0.779110 0.118979
H20   H     H_    0.688505 0.785678 0.665669 0.176653
H21   H     H_    0.840351 0.426918 0.822782 0.135373
H22   H     H_    0.659058 0.472644 0.838512 0.126349
H23   H     H_    0.892928 0.611200 0.776838 0.136562
H24   H     H_    0.645974 0.423668 0.720577 0.116892
H25   H     H_    0.340145 0.229966 0.724089 0.116725
H26   H     H_    0.364255 0.055122 0.730084 0.104800
H27   H     H_    0.274767 0.072207 0.606742 0.165430
H28   H     H_    0.146750 0.213377 0.662873 0.070712
H29   H     H_    0.251087 0.247140 0.599515 0.176858
H30   H     H_    0.843997 0.614477 0.659659 0.139376
H31   H     H_    0.865842 0.170763 0.680960 0.122371
H32   H     H_    0.898974 0.110113 0.807985 0.127968
H33   H     H_    0.554253 0.023319 0.797742 0.118555
H34   H     H_    0.205361 0.461242 0.692059 0.124047
H35   H     H_    0.178638 0.477240 0.821932 0.123923
O1    O     O_R   0.507430 0.255570 0.581420 -0.461344
O2    O     O_R   0.837200 0.593290 0.915250 -0.527374
O3    O     O_R   0.065330 0.635370 0.931590 -0.503935
O4    O     O_R   0.280190 0.527390 0.578910 -0.516013
O5    O     O_R   0.068300 0.828790 0.091860 -0.525670
O6    O     O_R   0.798730 0.057480 0.079370 -0.506891
O7    O     O_R   0.584680 0.080480 0.076790 -0.520793
O8    O     O_R   0.626790 0.809640 0.067050 -0.505124
O9    O     O_R   0.816010 0.596460 0.076500 -0.517007
O10   O     O_R   0.045680 0.638310 0.081070 -0.499380
O11   O     O_3   0.833590 0.833690 0.001120 -0.263642
O12   O     O_R   0.524460 0.695920 0.424060 -0.439318
O13   O     O_R   0.260310 0.739740 0.584580 -0.539552
O14   O     O_R   0.532250 0.695150 0.573830 -0.488997
O15   O     O_R   0.744930 0.503430 0.576380 -0.524897
O16   O     O_R   0.699250 0.276390 0.571950 -0.535820
O17   O     O_R   0.499020 0.256400 0.419850 -0.500473
O18   O     O_R   0.272400 0.528160 0.429140 -0.513306
O19   O     O_R   0.251910 0.740570 0.423020 -0.498558
O20   O     O_3   0.502026 0.073121 0.659973 -0.539935
O21   O     O_R   0.736530 0.504260 0.414810 -0.530286
O22   O     O_R   0.691460 0.277160 0.422180 -0.514793
O23   O     O_3   0.499990 0.499990 0.499980 -0.281295
O24   O     O_R   0.089490 0.825610 0.930610 -0.533167
O25   O     O_R   0.818370 0.054540 0.929880 -0.502129
O26   O     O_R   0.605870 0.077310 0.915530 -0.523285
O27   O     O_R   0.646440 0.806700 0.917570 -0.526331

loop_
_geom_bond_atom_site_label_1
_geom_bond_atom_site_label_2
_ccdc_geom_bond_type
Cr4   O11   S    
C30   C41   S    
Cr3   O23   S    
C48   H28   S    
C28   O18   A    
C18   C19   A    
C1    C11   S    
C16   O16   A    
C31   H16   S    
C19   C40   S    
C6    C7    A    
C45   H30   S    
C51   C52   A    
C1    O4    A    
C25   C26   A    
Cr6   O11   S    
Cr6   O10   S    
C3    O20   S    
C10   H4    S    
C50   H31   S    
C29   C30   A    
C29   H15   S    
C14   C15   A    
Cr4   O5    S    
C12   H22   S    
C1    O13   A    
C44   H14   S    
C17   C18   A    
C46   H23   S    
C35   O25   A    
C35   C52   S    
C7    C8    A    
Cr5   O8    S    
C5    C50   A    
C8    C9    A    
Cr4   O25   S    
C20   C26   A    
C12   H21   S    
C27   C33   A    
C20   C21   A    
C20   H8    S    
C48   H29   S    
C27   H13   S    
C42   O17   A    
C40   O21   A    
C37   O3    A    
Cr3   O16   S    
C49   H24   S    
C38   O7    A    
C6    C11   A    
C6    H34   S    
Br1   C18   S    
Cr6   O3    S    
C40   O12   A    
Cr2   O12   S    
C50   C51   A    
C13   C19   A    
C7    H35   S    
C3    C5    A    
Cr2   O19   S    
C43   H3    S    
C24   C25   A    
Cr4   O6    S    
C28   C33   S    
C47   H25   S    
C12   C23   S    
Cr2   O13   S    
C2    H33   S    
C49   H12   S    
C42   O22   A    
C32   H17   S    
C30   C31   A    
C13   C14   A    
C13   H5    S    
C34   C49   S    
Cr5   O26   S    
C23   C36   S    
Cr3   O22   S    
Cr1   O18   S    
Cr5   O7    S    
C21   H9    S    
Cr1   O1    S    
C15   C39   S    
C16   O1    A    
C47   C48   S    
C23   C43   S    
C25   H11   S    
C36   O27   A    
C9    H2    S    
C24   H10   S    
Cr6   O2    S    
C2    C3    A    
C34   C44   S    
Cr3   O15   S    
C43   C44   S    
C47   O20   S    
Cr2   O23   S    
C5    C16   S    
C28   O19   A    
C45   C46   S    
Cr5   O27   S    
C47   H26   S    
C23   C46   S    
C48   H27   S    
C41   O10   A    
C10   C11   A    
C17   H7    S    
Cr2   O14   S    
Cr5   O11   S    
Cr6   O9    S    
C31   C32   A    
C27   C29   A    
C41   O5    A    
C39   O9    A    
C2    C52   A    
C38   O6    A    
C45   H20   S    
C4    O15   A    
C43   H1    S    
C22   C38   S    
C4    C34   S    
C8    C37   S    
Cr3   O21   S    
C32   C33   A    
Cr1   O17   S    
C22   C24   A    
C35   O26   A    
C9    C10   A    
C39   O8    A    
C12   C49   S    
C37   O24   A    
C26   C42   S    
C36   O2    A    
C15   C17   A    
Cr1   O23   S    
C21   C22   A    
Cr1   O4    S    
C51   H32   S    
C44   H18   S    
C46   H19   S    
C34   C45   S    
Cr4   O24   S    
C4    O14   A    
C14   H6    S    
