data_mof_unit_53551.cif
_audit_creation_date              2012-12-11T14:04:15-0500
_audit_creation_method            fapswitch 2.2
_symmetry_space_group_name_H-M    P1
_symmetry_Int_Tables_number       1
_space_group_crystal_system       triclinic
_cell_length_a                    19.041216
_cell_length_b                    10.988067
_cell_length_c                    18.758785
_cell_angle_alpha                 89.909628
_cell_angle_beta                  90.371352
_cell_angle_gamma                 89.599883
_cell_volume                      3924.64519713

loop_
_atom_site_label
_atom_site_type_symbol
_atom_type_description
_atom_site_fract_x
_atom_site_fract_y
_atom_site_fract_z
_atom_type_partial_charge
C1    C     C_R   0.239008 0.468015 0.646133 0.531183
C2    C     C_R   0.989956 0.670651 0.576884 0.009143
C3    C     C_R   0.503040 0.159907 0.427424 -0.001042
C4    C     C_R   0.489956 0.170651 0.576885 0.009142
C5    C     C_R   0.023735 0.880184 0.424199 -0.021725
C6    C     C_R   0.999443 0.895585 0.570098 -0.068294
C7    C     C_R   0.523735 0.380183 0.424200 -0.021727
C8    C     C_R   0.499443 0.395585 0.570098 -0.068293
C9    C     C_R   0.030503 0.990913 0.458976 -0.078015
C10   C     C_R   0.016624 0.999512 0.531465 -0.116246
C11   C     C_R   0.530503 0.490913 0.458976 -0.078010
C12   C     C_R   0.760325 0.464935 0.352270 0.604999
C13   C     C_R   0.516623 0.499512 0.531465 -0.116243
C14   C     C_R   0.998687 0.779870 0.537176 0.001024
C15   C     C_R   0.007301 0.773475 0.462250 -0.005010
C16   C     C_R   0.498686 0.279870 0.537177 0.001024
C17   C     C_R   0.507300 0.273475 0.462250 -0.005013
C18   C     C_R   0.976644 0.561796 0.540026 0.014434
C19   C     C_R   0.000010 0.552298 0.469447 0.003298
C20   C     C_R   0.476642 0.061796 0.540027 0.014432
C21   C     C_R   0.500007 0.052298 0.469447 0.003298
C22   C     C_R   0.948222 0.458515 0.574349 0.276434
C23   C     C_R   0.739008 0.968015 0.646133 0.531183
C24   C     C_R   0.016221 0.435029 0.442569 0.260637
C25   C     C_R   0.448221 0.958516 0.574351 0.276429
C26   C     C_R   0.516217 0.935028 0.442570 0.260638
C27   C     C_R   0.956496 0.343665 0.543036 -0.163568
C28   C     C_R   0.992600 0.331955 0.479274 -0.173373
C29   C     C_R   0.456492 0.843666 0.543037 -0.163571
C30   C     C_R   0.492595 0.831954 0.479275 -0.173372
C31   C     C_2   0.238790 0.895539 0.929237 -0.103658
C32   C     C_2   0.743872 0.928544 0.083360 -0.102784
C33   C     C_2   0.738790 0.395539 0.929237 -0.103658
C34   C     C_R   0.260325 0.964934 0.352269 0.604998
C35   C     C_2   0.243872 0.428544 0.083360 -0.102784
C36   C     C_2   0.247698 0.895743 0.085592 -0.107133
C37   C     C_2   0.745047 0.939305 0.927219 -0.093872
C38   C     C_2   0.747698 0.395743 0.085592 -0.107133
C39   C     C_2   0.245047 0.439305 0.927219 -0.093872
C40   C     C_R   0.212087 0.837374 0.639441 0.563061
C41   C     C_R   0.772383 0.876135 0.351430 0.561993
C42   C     C_R   0.712087 0.337376 0.639441 0.563059
C43   C     C_R   0.272383 0.376135 0.351430 0.561993
C44   C     C_2   0.188476 0.914885 0.049044 -0.160657
C45   C     C_2   0.276620 0.808394 0.529130 -0.181642
C46   C     C_2   0.770718 0.025752 0.970982 -0.150121
C47   C     C_2   0.688476 0.414884 0.049044 -0.160657
C48   C     C_2   0.270718 0.525752 0.970982 -0.150121
C49   C     C_2   0.183497 0.888555 0.973473 -0.153813
C50   C     C_2   0.782890 0.005797 0.046381 -0.164054
C51   C     C_2   0.683497 0.388554 0.973473 -0.153813
C52   C     C_2   0.282890 0.505797 0.046381 -0.164054
C53   C     C_2   0.990645 0.664868 0.916369 -0.107214
C54   C     C_2   0.989091 0.655807 0.073559 -0.092746
C55   C     C_2   0.490645 0.164868 0.916369 -0.107214
C56   C     C_2   0.703980 0.862277 0.459115 -0.086152
C57   C     C_2   0.489091 0.155807 0.073559 -0.092746
C58   C     C_2   0.961960 0.570729 0.029892 -0.152227
C59   C     C_2   0.976430 0.565405 0.954198 -0.162869
C60   C     C_2   0.461960 0.070729 0.029892 -0.152227
C61   C     C_2   0.476430 0.065405 0.954198 -0.162869
C62   C     C_R   0.026360 0.656635 0.646745 0.570200
C63   C     C_R   0.972464 0.654199 0.354391 0.577589
C64   C     C_R   0.526360 0.156635 0.646745 0.570204
C65   C     C_R   0.472463 0.154199 0.354392 0.577588
C66   C     C_R   0.237998 0.470652 0.852670 0.555269
C67   C     C_2   0.776620 0.308395 0.529130 -0.181644
C68   C     C_R   0.760557 0.463088 0.150535 0.552565
C69   C     C_R   0.737998 0.970652 0.852670 0.555268
C70   C     C_R   0.260557 0.963088 0.150535 0.552566
C71   C     C_R   0.225933 0.869920 0.854748 0.565142
C72   C     C_R   0.771369 0.875588 0.148386 0.557694
C73   C     C_R   0.725933 0.369920 0.854748 0.565141
C74   C     C_R   0.271369 0.375588 0.148386 0.557695
C75   C     C_R   0.028073 0.653000 0.849790 0.561320
C76   C     C_R   0.968418 0.651573 0.147672 0.556124
C77   C     C_R   0.528073 0.153000 0.849790 0.561321
C78   C     C_2   0.203980 0.362275 0.459116 -0.086153
C79   C     C_R   0.468418 0.151573 0.147672 0.556123
C80   C     C_2   0.230358 0.873200 0.567486 -0.085243
C81   C     C_2   0.748611 0.925735 0.418785 -0.042707
C82   C     C_2   0.730360 0.373204 0.567487 -0.085239
C83   C     C_2   0.248611 0.425734 0.418785 -0.042704
C84   C     C_2   0.241979 0.885012 0.410959 0.234115
C85   C     C_2   0.750992 0.909057 0.577421 0.231158
C86   C     C_2   0.741979 0.385014 0.410960 0.234114
C87   C     C_2   0.250992 0.409057 0.577422 0.231158
C88   C     C_2   0.292625 0.845318 0.455989 -0.155190
C89   C     C_R   0.003042 0.659908 0.427424 -0.001040
C90   C     C_2   0.695269 0.892241 0.534088 -0.102018
C91   C     C_2   0.792625 0.345316 0.455989 -0.155189
C92   C     C_2   0.195270 0.392239 0.534088 -0.102019
Cr1   Cr    Cr6+3 0.113970 0.508630 0.747920 1.034993
Cr2   Cr    Cr6+3 0.887700 0.820070 0.250200 1.024038
Cr3   Cr    Cr6+3 0.612300 0.320070 0.749800 1.014663
Cr4   Cr    Cr6+3 0.387700 0.320070 0.250200 1.024038
Cr5   Cr    Cr6+3 0.886030 0.508630 0.252080 1.035472
Cr6   Cr    Cr6+3 0.613970 0.008630 0.747920 1.034994
Cr7   Cr    Cr6+3 0.386030 0.008630 0.252080 1.035473
Cr8   Cr    Cr6+3 0.269200 0.666740 0.749850 1.010344
Cr9   Cr    Cr6+3 0.730800 0.666740 0.250150 1.030976
Cr10  Cr    Cr6+3 0.769200 0.166740 0.749850 1.010344
Cr11  Cr    Cr6+3 0.230800 0.166740 0.250150 1.030976
Cr12  Cr    Cr6+3 0.112300 0.820070 0.749800 1.014663
H1    H     H_    0.347559 0.855917 0.442663 0.137823
H2    H     H_    0.726178 0.852244 0.946308 0.096375
H3    H     H_    0.790843 0.343744 0.062894 0.095417
H4    H     H_    0.226178 0.352244 0.946308 0.096375
H5    H     H_    0.292004 0.911221 0.947998 0.088317
H6    H     H_    0.695786 0.891337 0.061059 0.111023
H7    H     H_    0.792004 0.411221 0.947998 0.088317
H8    H     H_    0.195786 0.391337 0.061059 0.111023
H9    H     H_    0.930602 0.496569 0.050755 0.152271
H10   H     H_    0.979647 0.475294 0.930600 0.156466
H11   H     H_    0.430602 0.996569 0.050755 0.152271
H12   H     H_    0.641844 0.905830 0.552645 0.118509
H13   H     H_    0.479647 0.975294 0.930600 0.156466
H14   H     H_    0.020155 0.731274 0.054176 0.089119
H15   H     H_    0.983944 0.755227 0.938882 0.102945
H16   H     H_    0.520155 0.231274 0.054176 0.089119
H17   H     H_    0.483944 0.255227 0.938882 0.102945
H18   H     H_    0.305772 0.732893 0.552603 0.152360
H19   H     H_    0.675575 0.784487 0.438348 0.145677
H20   H     H_    0.805770 0.232891 0.552603 0.152359
H21   H     H_    0.175576 0.284485 0.438349 0.145676
H22   H     H_    0.203342 0.951469 0.544298 0.161178
H23   H     H_    0.847558 0.355908 0.442661 0.137823
H24   H     H_    0.775601 0.004532 0.440448 0.135062
H25   H     H_    0.703346 0.451474 0.544300 0.161183
H26   H     H_    0.275601 0.504532 0.440448 0.135062
H27   H     H_    0.047792 0.069059 0.429109 0.107234
H28   H     H_    0.020164 0.086422 0.558167 0.105782
H29   H     H_    0.547791 0.569059 0.429109 0.107235
H30   H     H_    0.520163 0.586423 0.558167 0.105781
H31   H     H_    0.037140 0.877389 0.368262 0.155125
H32   H     H_    0.985937 0.907196 0.625576 0.128387
H33   H     H_    0.537140 0.377389 0.368262 0.155123
H34   H     H_    0.141844 0.405828 0.552645 0.118509
H35   H     H_    0.485936 0.407196 0.625577 0.128386
H36   H     H_    0.936494 0.262952 0.568828 0.101649
H37   H     H_    0.000392 0.242821 0.457328 0.096128
H38   H     H_    0.436490 0.762953 0.568830 0.101649
H39   H     H_    0.500385 0.742819 0.457328 0.096128
H40   H     H_    0.143726 0.960485 0.073133 0.154091
H41   H     H_    0.788831 0.112352 0.950127 0.156828
H42   H     H_    0.643726 0.460484 0.073133 0.154091
H43   H     H_    0.288831 0.612352 0.950127 0.156828
H44   H     H_    0.167341 0.784952 0.449451 0.326044
H45   H     H_    0.130906 0.871945 0.952892 0.152176
H46   H     H_    0.851411 0.897207 0.593800 0.330918
H47   H     H_    0.667340 0.284960 0.449453 0.326043
H48   H     H_    0.351411 0.397208 0.593801 0.330918
H49   H     H_    0.062854 0.335947 0.370699 0.311380
H50   H     H_    0.896585 0.391923 0.654521 0.331334
H51   H     H_    0.562851 0.835944 0.370701 0.311379
H52   H     H_    0.396594 0.891923 0.654528 0.331332
H53   H     H_    0.828707 0.048809 0.069933 0.152645
H54   H     H_    0.630906 0.371944 0.952892 0.152175
H55   H     H_    0.328707 0.548810 0.069933 0.152645
H56   H     H_    0.290843 0.843743 0.062894 0.095417
O1    O     O_R   0.043230 0.549300 0.667990 -0.476371
O2    O     O_R   0.832470 0.905110 0.169660 -0.515088
O3    O     O_R   0.667530 0.405110 0.830340 -0.506206
O4    O     O_R   0.332470 0.405110 0.169660 -0.515088
O5    O     O_R   0.054010 0.748440 0.822860 -0.507884
O6    O     O_R   0.945990 0.748440 0.177140 -0.497860
O7    O     O_R   0.554010 0.248440 0.822860 -0.507884
O8    O     O_R   0.445990 0.248440 0.177140 -0.497860
O9    O     O_3   0.165160 0.665150 0.749190 -0.269803
O10   O     O_3   0.834840 0.665150 0.250810 -0.256901
O11   O     O_3   0.665160 0.165150 0.749190 -0.269802
O12   O     O_R   0.956770 0.549300 0.332010 -0.457048
O13   O     O_3   0.334840 0.165150 0.250810 -0.256901
O14   O     O_R   0.178620 0.457600 0.674100 -0.519333
O15   O     O_R   0.821380 0.457600 0.325900 -0.535034
O16   O     O_R   0.678620 0.957600 0.674100 -0.519333
O17   O     O_R   0.321380 0.957600 0.325900 -0.535033
O18   O     O_R   0.284680 0.542100 0.669460 -0.536095
O19   O     O_R   0.715320 0.542100 0.330540 -0.488768
O20   O     O_R   0.784680 0.042100 0.669460 -0.536094
O21   O     O_R   0.215320 0.042100 0.330540 -0.488771
O22   O     O_R   0.262860 0.790390 0.676650 -0.495489
O23   O     O_R   0.543230 0.049300 0.667990 -0.476366
O24   O     O_R   0.737140 0.790390 0.323350 -0.502132
O25   O     O_R   0.762860 0.290390 0.676650 -0.495493
O26   O     O_R   0.237140 0.290390 0.323350 -0.502132
O27   O     O_R   0.167460 0.907030 0.670940 -0.504506
O28   O     O_R   0.832540 0.907030 0.329060 -0.509136
O29   O     O_R   0.667460 0.407030 0.670940 -0.504507
O30   O     O_R   0.332540 0.407030 0.329060 -0.509136
O31   O     O_R   0.053950 0.750220 0.675100 -0.534841
O32   O     O_R   0.946050 0.750220 0.324900 -0.517180
O33   O     O_R   0.553950 0.250220 0.675100 -0.534841
O34   O     O_R   0.456770 0.049300 0.332010 -0.457047
O35   O     O_R   0.446050 0.250220 0.324900 -0.517181
O36   O     O_R   0.043300 0.547370 0.827390 -0.503510
O37   O     O_R   0.956700 0.547370 0.172610 -0.510696
O38   O     O_R   0.543300 0.047370 0.827390 -0.503509
O39   O     O_R   0.456700 0.047370 0.172610 -0.510696
O40   O     O_R   0.178690 0.455820 0.821860 -0.490653
O41   O     O_R   0.821310 0.455820 0.178140 -0.509553
O42   O     O_R   0.678690 0.955820 0.821860 -0.490653
O43   O     O_R   0.321310 0.955820 0.178140 -0.509553
O44   O     O_R   0.284750 0.540170 0.828860 -0.515433
O45   O     O_R   0.262920 0.788600 0.824420 -0.496487
O46   O     O_R   0.715250 0.540170 0.171140 -0.513725
O47   O     O_R   0.784750 0.040170 0.828860 -0.515433
O48   O     O_R   0.215250 0.040170 0.171140 -0.513725
O49   O     O_3   0.171759 0.860673 0.421013 -0.729328
O50   O     O_3   0.818183 0.883316 0.553836 -0.707211
O51   O     O_3   0.671759 0.360683 0.421017 -0.729330
O52   O     O_3   0.318183 0.383315 0.553837 -0.707211
O53   O     O_3   0.057322 0.423468 0.382408 -0.684449
O54   O     O_3   0.912521 0.472730 0.637769 -0.670713
O55   O     O_3   0.557318 0.923466 0.382409 -0.684449
O56   O     O_R   0.737080 0.788600 0.175580 -0.497325
O57   O     O_3   0.412526 0.972730 0.637775 -0.670711
O58   O     O_R   0.762920 0.288600 0.824420 -0.496487
O59   O     O_R   0.237080 0.288600 0.175580 -0.497325
O60   O     O_R   0.167530 0.905110 0.830340 -0.506206

loop_
_geom_bond_atom_site_label_1
_geom_bond_atom_site_label_2
_ccdc_geom_bond_type
C44   C49   S    
C1    C87   S    
C21   C26   A    
C55   H17   S    
C35   C74   S    
C8    C13   A    
Cr5   O15   S    
C37   C69   S    
C2    C18   A    
C43   C83   S    
C13   H30   S    
C57   C79   S    
C25   O57   S    
C42   C82   S    
H50   O54   S    
C92   H34   S    
C67   H20   S    
Cr2   O6    S    
H49   O53   S    
C53   C59   D    
C56   C81   D    
C32   C72   S    
C40   O27   A    
C3    C65   S    
C7    C11   A    
Cr7   O34   S    
Cr1   O9    S    
Cr5   O12   S    
H47   O51   S    
C8    H35   S    
Cr9   O19   S    
H46   O50   S    
Cr2   O28   S    
Cr7   O17   S    
C86   C91   D    
C11   H29   S    
C55   C77   S    
C62   O1    A    
C15   C89   A    
C20   C25   A    
Cr9   O56   S    
C70   O48   A    
C63   O32   A    
C48   H43   S    
Cr1   O14   S    
Cr11  O13   S    
Cr10  O20   S    
C34   O21   A    
C18   C19   A    
C87   O52   S    
Cr4   O30   S    
Cr6   O23   S    
Cr12  O60   S    
C6    H32   S    
Cr12  O5    S    
C64   O23   A    
C78   C83   D    
Cr4   O35   S    
C43   O30   A    
C16   C17   A    
C7    C17   A    
C74   O59   A    
C58   H9    S    
Cr4   O8    S    
C41   O24   A    
C76   O6    A    
H52   O57   S    
C33   H7    S    
C90   H12   S    
C79   O8    A    
Cr8   O22   S    
Cr10  O47   S    
Cr2   O2    S    
C22   O54   S    
C71   O60   A    
C39   C48   D    
C66   O44   A    
C75   O36   A    
C52   H55   S    
C56   C90   S    
H48   O52   S    
C47   H42   S    
Cr8   O18   S    
C69   O42   A    
Cr3   O33   S    
Cr11  O21   S    
C87   C92   D    
C85   O50   S    
C68   O41   A    
C53   C75   S    
Cr11  O26   S    
C34   C84   S    
C31   C49   D    
Cr8   O44   S    
C9    C10   A    
C67   C91   S    
C36   C70   S    
C40   O22   A    
C9    H27   S    
C50   H53   S    
C25   C29   A    
C39   H4    S    
Cr10  O11   S    
C85   C90   D    
C1    O14   A    
C69   O47   A    
Cr10  O25   S    
C79   O39   A    
Cr4   O13   S    
Cr6   O38   S    
C61   H13   S    
C56   H19   S    
Cr5   O37   S    
C45   C88   S    
Cr11  O48   S    
C83   H26   S    
C7    H33   S    
C36   H56   S    
C84   O49   S    
C57   C60   D    
C47   C51   S    
C23   O16   A    
C43   O26   A    
C78   C92   S    
C58   C59   S    
Cr12  O31   S    
Cr5   O10   S    
Cr4   O4    S    
C41   O28   A    
C26   O55   S    
C4    C16   A    
C5    C9    A    
C29   C30   A    
C19   C89   A    
Cr3   O3    S    
C38   H3    S    
C6    C14   A    
Cr6   O16   S    
C1    O18   A    
Cr7   O13   S    
Cr1   O1    S    
C44   H40   S    
C41   C81   S    
C64   O33   A    
C63   C89   S    
C40   C80   S    
C23   O20   A    
Cr9   O10   S    
C75   O5    A    
C86   O51   S    
C82   H25   S    
H51   O55   S    
C32   C50   D    
C38   C47   D    
Cr9   O24   S    
C91   H23   S    
C57   H16   S    
C54   C76   S    
Cr6   O11   S    
C42   O25   A    
C33   C73   S    
C72   O56   A    
C38   C68   S    
C26   C30   A    
C22   C27   A    
C12   O15   A    
C81   H24   S    
C68   O46   A    
C39   C66   S    
C36   C44   D    
Cr1   O36   S    
C77   O7    A    
Cr1   O40   S    
C35   C52   D    
C24   C28   A    
C65   O34   A    
C54   C58   D    
C70   O43   A    
C5    H31   S    
Cr12  O27   S    
C46   C50   S    
Cr7   O43   S    
Cr8   O9    S    
C18   C22   A    
C31   H5    S    
Cr6   O42   S    
C84   C88   D    
C77   O38   A    
Cr5   O41   S    
C34   O17   A    
Cr3   O7    S    
C6    C10   A    
C71   O45   A    
Cr8   O45   S    
C53   H15   S    
C62   O31   A    
C49   H45   S    
C45   H18   S    
C33   C51   D    
C12   O19   A    
C4    C64   S    
C51   H54   S    
C27   H36   S    
C12   C86   S    
C76   O37   A    
C54   H14   S    
C19   C24   A    
C23   C85   S    
C37   H2    S    
C73   O3    A    
H44   O49   S    
Cr2   O10   S    
C24   O53   S    
C74   O4    A    
C88   H1    S    
C11   C13   A    
C42   O29   A    
C63   O12   A    
C80   H22   S    
C59   H10   S    
C29   H38   S    
C55   C61   D    
C31   C71   S    
C46   H41   S    
C73   O58   A    
C3    C17   A    
C45   C80   D    
C2    C14   A    
Cr2   O32   S    
C5    C15   A    
C3    C21   A    
Cr9   O46   S    
Cr10  O58   S    
C4    C20   A    
C10   H28   S    
C48   C52   S    
Cr3   O29   S    
C20   C21   A    
C30   H39   S    
C67   C82   D    
C8    C16   A    
C32   H6    S    
Cr7   O39   S    
C27   C28   A    
C72   O2    A    
C14   C15   A    
C60   C61   S    
C60   H11   S    
C28   H37   S    
C37   C46   D    
C78   H21   S    
Cr3   O11   S    
C66   O40   A    
C35   H8    S    
C2    C62   S    
Cr11  O59   S    
Cr12  O9    S    
C65   O35   A    
