data_mof_unit_57415.cif
_audit_creation_date              2012-12-10T19:05:20-0500
_audit_creation_method            fapswitch 2.2
_symmetry_space_group_name_H-M    P1
_symmetry_Int_Tables_number       1
_space_group_crystal_system       triclinic
_cell_length_a                    9.567443
_cell_length_b                    10.83156
_cell_length_c                    17.262135
_cell_angle_alpha                 90.765345
_cell_angle_beta                  85.861816
_cell_angle_gamma                 90.853419
_cell_volume                      1783.88379924

loop_
_atom_site_label
_atom_site_type_symbol
_atom_type_description
_atom_site_fract_x
_atom_site_fract_y
_atom_site_fract_z
_atom_type_partial_charge
C1    C     C_R   0.501642 0.737732 0.496908 0.799489
C2    C     C_R   0.356382 0.538052 0.782144 0.162963
C3    C     C_R   0.443284 0.394472 0.150060 -0.147245
C4    C     C_R   0.431751 0.414825 0.229770 -0.247686
C5    C     C_R   0.643466 0.543654 0.219129 0.392805
C6    C     C_R   0.655769 0.519497 0.139445 -0.149794
C7    C     C_R   0.554282 0.448316 0.104383 0.092620
C8    C     C_2   0.446641 0.439091 0.980195 -0.209787
C9    C     C_2   0.562476 0.437879 0.019427 -0.202277
C10   C     C_R   0.530397 0.489483 0.265179 -0.133185
C11   C     C_R   0.378315 0.934645 0.499611 0.093466
C12   C     C_R   0.481167 0.499854 0.650069 0.793891
C13   C     C_R   0.504378 0.871245 0.487284 -0.113123
C14   C     C_R   0.627286 0.939596 0.461745 0.141513
C15   C     C_R   0.622681 0.068950 0.463074 -0.207368
C16   C     C_R   0.498984 0.129933 0.488241 -0.142263
C17   C     C_R   0.375448 0.061393 0.499789 0.114506
C18   C     C_3   0.263250 0.066462 0.564426 -0.446492
C19   C     C_3   0.265963 0.926241 0.564230 -0.453142
C20   C     C_R   0.929301 0.407095 0.463669 0.189619
C21   C     C_R   0.924744 0.585281 0.542567 0.444680
C22   C     C_R   0.072402 0.584659 0.541541 -0.066242
C23   C     C_R   0.499384 0.262584 0.497956 0.814548
C24   C     C_R   0.076520 0.407183 0.463646 0.234848
C25   C     C_3   0.092123 0.373215 0.379505 -0.492415
C26   C     C_3   0.933466 0.372631 0.379685 -0.463979
C27   C     C_R   0.518745 0.500008 0.349984 0.776728
C28   C     C_R   0.469594 0.488162 0.734767 -0.036522
C29   C     C_R   0.572532 0.420356 0.768643 -0.241428
C30   C     C_R   0.564439 0.401374 0.848111 -0.152675
C31   C     C_R   0.453943 0.451452 0.895469 0.136701
C32   C     C_R   0.349805 0.518074 0.862298 -0.155745
Cu1   Cu    Cu3+1 0.359330 0.500020 0.500000 0.939546
Cu2   Cu    Cu3+1 0.640670 0.499980 0.500000 0.941766
H1    H     H_    0.658481 0.379660 0.733274 0.163583
H2    H     H_    0.741237 0.561956 0.104170 0.149050
H3    H     H_    0.717336 0.121972 0.447630 0.160569
H4    H     H_    0.300076 0.109442 0.618318 0.196493
H5    H     H_    0.163950 0.103772 0.545229 0.199716
H6    H     H_    0.303982 0.887497 0.618099 0.189709
H7    H     H_    0.168080 0.883017 0.544881 0.210991
H8    H     H_    0.126433 0.653873 0.574399 0.160612
H9    H     H_    0.142283 0.447892 0.343268 0.223178
H10   H     H_    0.347089 0.369702 0.264038 0.159882
H11   H     H_    0.138179 0.280242 0.369501 0.189418
H12   H     H_    0.893753 0.446421 0.343276 0.247273
H13   H     H_    0.887782 0.279204 0.370117 0.186178
H14   H     H_    0.665302 0.445673 0.988679 0.146948
H15   H     H_    0.264764 0.556716 0.899432 0.128429
H16   H     H_    0.365958 0.335954 0.124327 0.143395
H17   H     H_    0.344256 0.445866 0.011458 0.149409
H18   H     H_    0.644088 0.346575 0.872200 0.138112
N1    N     N_R   0.852130 0.499070 0.499500 -0.234764
N2    N     N_R   0.148040 0.499110 0.499500 -0.222493
O1    O     O_R   0.381190 0.680360 0.500000 -0.582003
O2    O     O_R   0.618770 0.680320 0.499990 -0.585210
O3    O     O_R   0.367430 0.500040 0.613600 -0.576611
O4    O     O_R   0.605020 0.500000 0.613590 -0.610707
O5    O     O_R   0.381230 0.319680 0.500010 -0.574854
O6    O     O_R   0.618810 0.319640 0.500000 -0.583157
O7    O     O_R   0.394980 0.500000 0.386410 -0.576224
O8    O     O_R   0.632570 0.499960 0.386400 -0.577156
C33   C     C_3   0.764499 0.880245 0.435528 -0.782103
H19   H     H_    0.747753 0.808138 0.390955 0.231674
H20   H     H_    0.841244 0.948244 0.409087 0.207513
H21   H     H_    0.811999 0.839858 0.485823 0.278606
O9    O     O_3   0.860648 0.677555 0.586812 -0.770551
H22   H     H_    0.762725 0.654662 0.599345 0.379106
O10   O     O_3   0.741177 0.622800 0.248629 -0.741035
H23   H     H_    0.698521 0.662628 0.296267 0.318341
C34   C     C_3   0.244889 0.615239 0.749654 -0.844496
H24   H     H_    0.177213 0.556403 0.714346 0.249398
H25   H     H_    0.176187 0.659183 0.796465 0.224484
H26   H     H_    0.294305 0.690135 0.713371 0.220975

loop_
_geom_bond_atom_site_label_1
_geom_bond_atom_site_label_2
_ccdc_geom_bond_type
C10   C27   S    
Cu1   O1    S    
C33   H20   S    
Cu2   O2    S    
C25   H9    S    
C22   N2    A    
C23   O5    A    
C11   C19   S    
C12   C28   S    
C5    C6    A    
C28   C29   A    
C1    O2    A    
C3    C7    A    
C30   C31   A    
C24   N2    A    
C15   C16   A    
Cu2   O8    S    
C2    C32   A    
C18   C19   S    
C15   H3    S    
C5    O10   S    
C27   O7    A    
C20   C24   A    
C16   C17   A    
C12   O4    A    
C33   H21   S    
Cu1   O5    S    
C13   C14   A    
C21   O9    S    
Cu2   O6    S    
C3    H16   S    
C17   C18   S    
C23   O6    A    
O9    H22   S    
C24   C25   S    
C34   H25   S    
C8    C9    D    
C4    H10   S    
C25   C26   S    
C3    C4    A    
C18   H5    S    
C29   C30   A    
C27   O8    A    
C31   C32   A    
Cu1   Cu2   S    
C8    H17   S    
C26   H13   S    
C9    H14   S    
C12   O3    A    
C16   C23   S    
C1    C13   S    
C4    C10   A    
C2    C34   S    
C25   H11   S    
Cu1   N2    S    
C7    C9    S    
C30   H18   S    
C11   C17   A    
Cu1   O3    S    
C8    C31   S    
C20   N1    A    
C34   H26   S    
C6    C7    A    
C29   H1    S    
C18   H4    S    
C5    C10   A    
C21   N1    A    
C11   C13   A    
C22   H8    S    
C20   C26   S    
C14   C33   S    
C6    H2    S    
C1    O1    A    
O10   H23   S    
C32   H15   S    
C19   H6    S    
C26   H12   S    
C33   H19   S    
C34   H24   S    
Cu2   N1    S    
Cu1   O7    S    
Cu2   O4    S    
C14   C15   A    
C2    C28   A    
C21   C22   A    
C19   H7    S    
