data_mof_unit_42046.cif
_audit_creation_date              2012-12-10T16:54:55-0500
_audit_creation_method            fapswitch 2.2
_symmetry_space_group_name_H-M    P1
_symmetry_Int_Tables_number       1
_space_group_crystal_system       triclinic
_cell_length_a                    7.761261
_cell_length_b                    8.573581
_cell_length_c                    15.724849
_cell_angle_alpha                 90.841184
_cell_angle_beta                  85.813066
_cell_angle_gamma                 93.60654
_cell_volume                      1041.44695809

loop_
_atom_site_label
_atom_site_type_symbol
_atom_type_description
_atom_site_fract_x
_atom_site_fract_y
_atom_site_fract_z
_atom_type_partial_charge
C1    C     C_R   0.544991 0.794233 0.492736 0.973911
C2    C     C_3   0.376340 0.615075 0.053057 -0.457605
C3    C     C_3   0.504821 0.499481 0.082553 0.170733
C4    C     C_3   0.451842 0.333699 0.049210 -0.360541
C5    C     C_3   0.456488 0.333261 0.951013 -0.356502
C6    C     C_1   0.497056 0.500222 0.174281 -0.002174
C7    C     C_1   0.509632 0.499299 0.825479 -0.000077
C8    C     C_1   0.506687 0.499609 0.750277 -0.121215
C9    C     C_2   0.566776 0.958006 0.488412 -0.442342
C10   C     C_2   0.430526 0.043771 0.477394 -0.218239
C11   C     C_R   0.502022 0.500024 0.661604 0.897406
C12   C     C_R   0.453876 0.205225 0.496952 0.885807
C13   C     C_R   0.498056 0.499987 0.338391 0.900307
C14   C     C_3   0.379686 0.614293 0.954978 -0.466223
C15   C     C_3   0.694539 0.551509 0.945345 0.224480
C16   C     C_3   0.690797 0.551125 0.044894 0.227228
C17   C     C_1   0.494684 0.500394 0.249677 -0.099196
C18   C     C_3   0.511434 0.498997 0.916937 0.175127
H1    H     H_    0.411153 0.735395 0.076380 0.184575
H2    H     H_    0.247802 0.579852 0.934942 0.260812
H3    H     H_    0.242729 0.581851 0.080156 0.257601
H4    H     H_    0.540205 0.247005 0.070324 0.219186
H5    H     H_    0.690197 0.008368 0.507799 0.193147
H6    H     H_    0.013581 0.381760 0.436667 0.216482
H7    H     H_    0.986446 0.618327 0.563285 0.202273
H8    H     H_    0.415054 0.734458 0.930971 0.178813
H9    H     H_    0.726682 0.673724 0.923790 0.085663
H10   H     H_    0.722394 0.673018 0.066785 0.089265
H11   H     H_    0.325957 0.295042 0.930524 0.208143
H12   H     H_    0.547853 0.247008 0.924468 0.217859
H13   H     H_    0.318871 0.296565 0.075747 0.206637
N1    N     N_2   0.950340 0.457950 0.477370 -0.152810
N2    N     N_2   0.049660 0.542050 0.522630 -0.154291
O1    O     O_R   0.389240 0.738570 0.505550 -0.596703
O2    O     O_R   0.678400 0.711630 0.491050 -0.629437
O3    O     O_R   0.355360 0.513470 0.630110 -0.605351
O4    O     O_R   0.644510 0.486530 0.615610 -0.610111
O5    O     O_R   0.321600 0.288370 0.508950 -0.588275
O6    O     O_R   0.610760 0.261430 0.494450 -0.614503
O7    O     O_R   0.355490 0.513470 0.384390 -0.607804
O8    O     O_R   0.644640 0.486530 0.369890 -0.603542
Zn1   Zn    Zn3+2 0.306930 0.517990 0.509680 1.014195
Zn2   Zn    Zn3+2 0.693070 0.482010 0.490320 0.992000
C19   C     C_2   0.269797 0.986564 0.436567 0.958848
O9    O     O_2   0.279017 0.896317 0.375620 -0.614865
O10   O     O_R   0.109412 0.039616 0.466371 -0.799723
H14   H     H_    0.010996 0.993497 0.433084 0.338288
Cl1   Cl    Cl    0.860356 0.438445 0.892859 -0.585749
Cl2   Cl    Cl    0.852197 0.436498 0.086492 -0.591507

loop_
_geom_bond_atom_site_label_1
_geom_bond_atom_site_label_2
_ccdc_geom_bond_type
O4    Zn2   S    
C15   C18   S    
H6    N1    S    
C16   H10   S    
O2    Zn2   S    
C9    C10   D    
C14   C18   S    
C15   H9    S    
O1    Zn1   S    
C13   C17   S    
C3    C6    S    
N1    N2    D    
C7    C18   S    
C2    H3    S    
O7    Zn1   S    
C2    C3    S    
C7    C8    T    
C14   H8    S    
O8    Zn2   S    
C10   C12   S    
C15   Cl1   S    
C12   O6    A    
C8    C11   S    
N2    Zn1   S    
C13   O8    A    
C11   O3    A    
N1    Zn2   S    
C19   O10   S    
C1    O1    A    
O5    Zn1   S    
C5    H11   S    
C12   O5    A    
C2    C14   S    
C4    H13   S    
C3    C16   S    
C10   C19   S    
C15   C16   S    
C14   H2    S    
C1    C9    S    
C16   Cl2   S    
C1    O2    A    
C5    H12   S    
C11   O4    A    
C6    C17   T    
C4    H4    S    
O10   H14   S    
C9    H5    S    
C13   O7    A    
O6    Zn2   S    
C5    C18   S    
C2    H1    S    
O3    Zn1   S    
C19   O9    D    
C3    C4    S    
H7    N2    S    
C4    C5    S    
