data_mof_unit_63175.cif
_audit_creation_date              2012-12-10T19:51:27-0500
_audit_creation_method            fapswitch 2.2
_symmetry_space_group_name_H-M    P1
_symmetry_Int_Tables_number       1
_space_group_crystal_system       triclinic
_cell_length_a                    18.274667
_cell_length_b                    18.276032
_cell_length_c                    21.359793
_cell_angle_alpha                 89.996305
_cell_angle_beta                  90.001816
_cell_angle_gamma                 90.012544
_cell_volume                      7133.92287512

loop_
_atom_site_label
_atom_site_type_symbol
_atom_type_description
_atom_site_fract_x
_atom_site_fract_y
_atom_site_fract_z
_atom_type_partial_charge
C1    C     C_R   0.500023 0.141242 0.499993 0.932131
C2    C     C_R   0.141210 0.500007 0.499999 0.949358
C3    C     C_R   0.499143 0.000012 0.878217 0.976681
C4    C     C_R   0.499107 0.000005 0.121781 0.976491
C5    C     C_R   0.999149 0.500014 0.378217 0.976729
C6    C     C_R   0.999130 0.499988 0.621783 0.976671
C7    C     C_R   0.358680 0.999993 0.000001 0.931946
C8    C     C_R   0.858680 0.499993 0.500002 0.932040
C9    C     C_R   0.640991 0.499997 0.500001 0.921369
C10   C     C_R   0.140991 0.999996 0.000001 0.921384
C11   C     C_R   0.500019 0.359012 0.500000 0.922286
C12   C     C_R   0.500010 0.858758 0.500008 0.931311
C13   C     C_R   0.500013 0.640988 0.499999 0.922165
C14   C     C_R   0.000020 0.859012 0.000000 0.922402
C15   C     C_R   0.000012 0.140988 0.999999 0.922191
C16   C     C_R   0.359008 0.500004 0.499999 0.919616
C17   C     C_R   0.859008 0.000003 1.000000 0.919762
C18   C     C_1   0.717708 0.000016 0.000002 -0.146265
C19   C     C_1   0.217708 0.500017 0.499997 -0.145828
C20   C     C_1   0.282500 0.500014 0.499997 -0.174747
C21   C     C_1   0.782500 0.000012 0.000000 -0.175553
C22   C     C_1   0.282222 0.999982 0.000004 -0.139744
C23   C     C_R   0.000023 0.641242 0.999991 0.931747
C24   C     C_1   0.782222 0.499983 0.500004 -0.139683
C25   C     C_R   0.499962 0.999968 0.621780 0.965811
C26   C     C_R   0.499962 0.000092 0.378219 0.965756
C27   C     C_R   0.999963 0.499972 0.121780 0.965857
C28   C     C_R   0.999960 0.500045 0.878220 0.965808
C29   C     C_1   0.717454 0.499987 0.500004 -0.160227
C30   C     C_1   0.217454 0.999986 0.000004 -0.160337
C31   C     C_3   0.536180 0.059904 0.729169 -0.296346
C32   C     C_3   0.531564 0.937629 0.270847 -0.293823
C33   C     C_3   0.536958 0.059624 0.270774 -0.304419
C34   C     C_R   0.000010 0.358758 0.000009 0.931708
C35   C     C_3   0.532401 0.937850 0.729188 -0.302006
C36   C     C_3   0.036483 0.559730 0.229168 -0.296244
C37   C     C_3   0.035857 0.439936 0.770837 -0.295638
C38   C     C_3   0.032716 0.562007 0.770803 -0.302710
C39   C     C_3   0.032095 0.437697 0.229187 -0.302165
C40   C     C_3   0.567213 0.997906 0.770157 0.419421
C41   C     C_3   0.567142 0.997081 0.229825 0.418935
C42   C     C_3   0.067207 0.497577 0.270155 0.419376
C43   C     C_3   0.067211 0.501773 0.729842 0.419357
C44   C     C_3   0.498720 0.000066 0.810910 -0.270523
C45   C     C_1   0.500039 0.282517 0.499999 -0.165977
C46   C     C_3   0.498667 0.000037 0.189088 -0.270327
C47   C     C_3   0.998728 0.500078 0.310910 -0.270693
C48   C     C_3   0.998703 0.499937 0.689090 -0.270467
C49   C     C_3   0.466559 0.060514 0.769891 0.602629
C50   C     C_3   0.462059 0.942203 0.230123 0.602406
C51   C     C_3   0.467330 0.061019 0.230049 0.598656
C52   C     C_3   0.462858 0.941643 0.769941 0.598403
C53   C     C_3   0.966869 0.560687 0.269891 0.602415
C54   C     C_3   0.966228 0.439654 0.730114 0.602489
C55   C     C_3   0.963152 0.558541 0.730052 0.598491
C56   C     C_1   0.500013 0.717484 0.500002 -0.166998
C57   C     C_3   0.962573 0.441837 0.269941 0.598835
C58   C     C_3   0.429267 0.002142 0.728723 -0.282493
C59   C     C_3   0.429286 0.003206 0.271284 -0.282628
C60   C     C_3   0.929284 0.502503 0.228724 -0.282379
C61   C     C_3   0.929246 0.498209 0.771275 -0.282463
C62   C     C_3   0.499660 0.999937 0.689080 -0.229549
C63   C     C_3   0.499660 0.000176 0.310917 -0.229560
C64   C     C_3   0.999663 0.499947 0.189079 -0.229627
C65   C     C_3   0.999653 0.500083 0.810919 -0.229552
C66   C     C_1   0.500045 0.217731 0.499995 -0.170873
C67   C     C_1   0.000040 0.782516 0.999998 -0.166469
C68   C     C_1   0.500012 0.782269 0.500006 -0.172202
C69   C     C_1   0.000046 0.717731 0.999993 -0.171476
C70   C     C_1   0.000012 0.282269 0.000007 -0.171614
C71   C     C_3   0.691889 0.988663 0.750249 0.103546
C72   C     C_3   0.727087 0.913048 0.756061 -0.346344
C73   C     C_3   0.787505 0.902411 0.707611 -0.906351
C74   C     C_3   0.692213 0.998173 0.249517 0.103303
C75   C     C_3   0.732851 0.070827 0.242121 -0.345303
C76   C     C_3   0.793726 0.078616 0.290553 -0.909291
C77   C     C_3   0.191830 0.487691 0.250238 0.103740
C78   C     C_1   0.000013 0.217483 0.000002 -0.166637
C79   C     C_3   0.226738 0.411952 0.256141 -0.347203
C80   C     C_3   0.287110 0.401005 0.207701 -0.905431
C81   C     C_3   0.191936 0.510889 0.749652 0.103351
C82   C     C_3   0.227450 0.586307 0.743237 -0.346405
C83   C     C_3   0.288056 0.597188 0.791484 -0.906230
C84   C     C_R   0.641210 0.000006 0.000003 0.949284
F1    F     F_    0.432589 0.122767 0.792416 -0.627834
F2    F     F_    0.423526 0.882676 0.207547 -0.628905
F3    F     F_    0.434128 0.123651 0.207442 -0.632685
F4    F     F_    0.425082 0.881675 0.792605 -0.633656
F5    F     F_    0.933211 0.623113 0.292412 -0.628070
F6    F     F_    0.931933 0.377562 0.707589 -0.627874
F7    F     F_    0.925684 0.618687 0.707387 -0.633640
F8    F     F_    0.924500 0.382060 0.292612 -0.632748
H1    H     H_    0.566475 0.108039 0.710902 0.171594
H2    H     H_    0.372444 0.005767 0.289490 0.192820
H3    H     H_    0.872415 0.504531 0.210527 0.193048
H4    H     H_    0.872358 0.496749 0.789466 0.192963
H5    H     H_    0.734513 0.030937 0.758482 0.170630
H6    H     H_    0.671697 0.997066 0.701414 0.143197
H7    H     H_    0.750664 0.906672 0.803733 0.242207
H8    H     H_    0.684811 0.870084 0.749372 0.227754
H9    H     H_    0.764824 0.907160 0.659525 0.264272
H10   H     H_    0.811919 0.847157 0.713155 0.285968
H11   H     H_    0.831185 0.943994 0.714156 0.264393
H12   H     H_    0.558176 0.887390 0.289142 0.170293
H13   H     H_    0.731594 0.952677 0.242159 0.171196
H14   H     H_    0.671558 0.992633 0.298511 0.143374
H15   H     H_    0.756983 0.073956 0.194413 0.241816
H16   H     H_    0.693778 0.116927 0.247638 0.228734
H17   H     H_    0.770576 0.077247 0.338631 0.264925
H18   H     H_    0.822232 0.131683 0.283728 0.283634
H19   H     H_    0.834190 0.033691 0.285261 0.264645
H20   H     H_    0.234618 0.529818 0.258400 0.170537
H21   H     H_    0.171654 0.496074 0.201395 0.143154
H22   H     H_    0.250294 0.405563 0.303820 0.242304
H23   H     H_    0.567188 0.107610 0.289348 0.165812
H24   H     H_    0.184292 0.369143 0.249504 0.227587
H25   H     H_    0.264467 0.405874 0.159611 0.264084
H26   H     H_    0.311237 0.345625 0.213246 0.286210
H27   H     H_    0.331002 0.442362 0.214258 0.264548
H28   H     H_    0.234375 0.468367 0.741733 0.170714
H29   H     H_    0.171732 0.503077 0.798556 0.143132
H30   H     H_    0.250919 0.592130 0.695474 0.242238
H31   H     H_    0.185370 0.629494 0.749702 0.227877
H32   H     H_    0.265525 0.592882 0.839650 0.264353
H33   H     H_    0.312609 0.652337 0.785556 0.285903
H34   H     H_    0.558857 0.887732 0.710555 0.163788
H35   H     H_    0.331599 0.555451 0.785080 0.264345
H36   H     H_    0.067020 0.607713 0.210902 0.171795
H37   H     H_    0.065906 0.391662 0.789109 0.171566
H38   H     H_    0.059456 0.611995 0.789424 0.163977
H39   H     H_    0.058315 0.387451 0.210558 0.163664
H40   H     H_    0.372390 0.003883 0.710524 0.192958
O1    O     O_R   0.439410 0.107330 0.500000 -0.615269
O2    O     O_R   0.560610 0.892690 0.500000 -0.623811
O3    O     O_R   0.060610 0.607310 0.000000 -0.623335
O4    O     O_R   0.060610 0.392690 0.000000 -0.623610
O5    O     O_R   0.439410 0.000000 0.593020 -0.618260
O6    O     O_R   0.439410 0.000000 0.406980 -0.618231
O7    O     O_R   0.939410 0.500000 0.093020 -0.618188
O8    O     O_R   0.939410 0.500000 0.906980 -0.618248
O9    O     O_R   0.560610 0.000000 0.593010 -0.637845
O10   O     O_R   0.560610 0.000000 0.406990 -0.637759
O11   O     O_R   0.060610 0.500000 0.093010 -0.637878
O12   O     O_R   0.439410 0.892670 0.500000 -0.614475
O13   O     O_R   0.060610 0.500000 0.906990 -0.637845
O14   O     O_R   0.607280 0.939410 0.000000 -0.622275
O15   O     O_R   0.607280 0.060590 0.000000 -0.622958
O16   O     O_R   0.107280 0.439410 0.500000 -0.622710
O17   O     O_R   0.107280 0.560590 0.500000 -0.622771
O18   O     O_R   0.499930 0.939410 0.906960 -0.594377
O19   O     O_R   0.499930 0.060590 0.093040 -0.593566
O20   O     O_R   0.499930 0.939410 0.093040 -0.590966
O21   O     O_R   0.499930 0.060590 0.906960 -0.590309
O22   O     O_R   0.999930 0.439410 0.406960 -0.594278
O23   O     O_R   0.939410 0.607330 0.000000 -0.615005
O24   O     O_R   0.999930 0.560590 0.593040 -0.594260
O25   O     O_R   0.999930 0.439410 0.593040 -0.590474
O26   O     O_R   0.999930 0.560590 0.406960 -0.590400
O27   O     O_R   0.392580 0.939390 0.000000 -0.610997
O28   O     O_R   0.392580 0.060610 0.000000 -0.612603
O29   O     O_R   0.892580 0.439390 0.500000 -0.611456
O30   O     O_R   0.892580 0.560610 0.500000 -0.612027
O31   O     O_R   0.607360 0.500000 0.552500 -0.613136
O32   O     O_R   0.607360 0.500000 0.447500 -0.613010
O33   O     O_R   0.107360 0.000000 0.052500 -0.613062
O34   O     O_R   0.939410 0.392670 0.000000 -0.614613
O35   O     O_R   0.107360 1.000000 0.947500 -0.613106
O36   O     O_R   0.500010 0.392660 0.552500 -0.613815
O37   O     O_R   0.500010 0.607340 0.447500 -0.614236
O38   O     O_R   0.500010 0.392660 0.447500 -0.616006
O39   O     O_R   0.500010 0.607340 0.552500 -0.616582
O40   O     O_R   0.000010 0.892660 0.052500 -0.613532
O41   O     O_R   0.000010 0.107340 0.947500 -0.613658
O42   O     O_R   0.000010 0.892660 0.947500 -0.616662
O43   O     O_R   0.000010 0.107340 0.052500 -0.616814
O44   O     O_3   0.637732 0.996852 0.797021 -0.631931
O45   O     O_R   0.392660 0.500000 0.552510 -0.617922
O46   O     O_3   0.637508 0.992700 0.202922 -0.631928
O47   O     O_3   0.137722 0.496169 0.297013 -0.631899
O48   O     O_3   0.137723 0.502428 0.702958 -0.631986
O49   O     O_R   0.392660 0.500000 0.447490 -0.617801
O50   O     O_R   0.892660 0.000000 0.052510 -0.618545
O51   O     O_R   0.892660 0.000000 0.947490 -0.617611
O52   O     O_R   0.560610 0.107310 0.500000 -0.622999
Zn1   Zn    Zn3+2 0.419080 0.000000 0.500000 0.998888
Zn2   Zn    Zn3+2 0.500000 0.500000 0.429880 1.000235
Zn3   Zn    Zn3+2 1.000000 0.000000 0.070120 0.999598
Zn4   Zn    Zn3+2 1.000000 0.000000 0.929880 1.000050
Zn5   Zn    Zn3+2 0.919080 0.500000 0.000000 0.999082
Zn6   Zn    Zn3+2 0.580940 0.000000 0.500000 0.958647
Zn7   Zn    Zn3+2 0.080940 0.500000 0.000000 0.958520
Zn8   Zn    Zn3+2 0.499940 0.919080 0.000000 1.062835
Zn9   Zn    Zn3+2 0.499940 0.080920 0.000000 1.064509
Zn10  Zn    Zn3+2 0.999940 0.419080 0.500000 1.063631
Zn11  Zn    Zn3+2 0.999940 0.580920 0.500000 1.063466
Zn12  Zn    Zn3+2 0.500000 0.500000 0.570120 0.999920

loop_
_geom_bond_atom_site_label_1
_geom_bond_atom_site_label_2
_ccdc_geom_bond_type
C44   C49   S    
C58   C62   S    
C48   C55   S    
O41   Zn4   S    
C75   H15   S    
C57   F8    S    
C23   O23   A    
C70   C78   T    
C18   C21   T    
C23   C69   S    
C13   O39   A    
C36   C42   S    
C19   C20   T    
C28   O8    A    
C75   C76   S    
C81   C82   S    
C61   H4    S    
C4    C46   S    
C31   C40   S    
C48   C54   S    
C39   C64   S    
C12   C68   S    
C81   H28   S    
C28   O13   A    
O33   Zn3   S    
C6    C48   S    
C50   C59   S    
C38   H38   S    
O45   Zn12  S    
C83   H33   S    
O37   Zn2   S    
C54   F6    S    
O32   Zn2   S    
C8    O29   A    
C76   H19   S    
C77   H21   S    
C15   C78   S    
C7    O27   A    
C14   C67   S    
O40   Zn3   S    
C2    O16   A    
C5    O22   A    
C39   C57   S    
C3    O21   A    
C71   O44   S    
C9    O31   A    
C10   C30   S    
C24   C29   T    
C55   F7    S    
C36   C53   S    
O23   Zn5   S    
O42   Zn4   S    
C17   O50   A    
C1    O52   A    
C38   C55   S    
C58   H40   S    
C76   H17   S    
O20   Zn8   S    
C37   C65   S    
O30   Zn11  S    
C18   C84   S    
C41   C46   S    
C32   H12   S    
O15   Zn9   S    
C59   H2    S    
C34   O4    A    
C83   H32   S    
C35   C62   S    
C43   C48   S    
C34   C70   S    
C38   C43   S    
O1    Zn1   S    
C47   C53   S    
C13   C56   S    
C44   C52   S    
C2    O17   A    
C73   H9    S    
C80   H27   S    
C75   H16   S    
C12   O2    A    
C79   H24   S    
O13   Zn7   S    
O8    Zn5   S    
C31   C62   S    
O14   Zn8   S    
C36   H36   S    
C31   C49   S    
C1    O1    A    
C53   C60   S    
C39   C42   S    
O5    Zn1   S    
O12   Zn1   S    
C77   C79   S    
C4    O20   A    
C71   H6    S    
C80   H26   S    
C3    C44   S    
C33   H23   S    
C74   C75   S    
C15   O41   A    
O4    Zn7   S    
O25   Zn10  S    
C5    C47   S    
C49   F1    S    
C41   O46   S    
C52   F4    S    
O24   Zn11  S    
C32   C63   S    
C72   C73   S    
C14   O40   A    
C51   F3    S    
C40   O44   S    
C16   O49   A    
C10   O35   A    
C57   C60   S    
C7    O28   A    
O7    Zn5   S    
C31   H1    S    
O18   Zn8   S    
C46   C51   S    
C17   C21   S    
C49   C58   S    
C12   O12   A    
C35   H34   S    
C81   H29   S    
C13   O37   A    
C67   C69   T    
C37   C43   S    
C9    O32   A    
C25   O5    A    
C26   C63   S    
C77   H20   S    
C74   H14   S    
C71   H5    S    
C17   O51   A    
C27   O11   A    
C74   O46   S    
C38   C65   S    
C73   H11   S    
C42   O47   S    
C16   C20   S    
C32   C50   S    
O38   Zn2   S    
C1    C66   S    
C33   C63   S    
C77   O47   S    
O31   Zn12  S    
O3    Zn7   S    
C52   C58   S    
C37   C54   S    
O16   Zn10  S    
C73   H10   S    
C82   C83   S    
C53   F5    S    
C11   O36   A    
O52   Zn6   S    
C11   C45   S    
C51   C59   S    
C32   C41   S    
C82   H31   S    
C35   C52   S    
C6    O25   A    
C16   O45   A    
O50   Zn3   S    
C72   H8    S    
C84   O15   A    
C4    O19   A    
C80   H25   S    
C3    O18   A    
C22   C30   T    
C2    C19   S    
O27   Zn8   S    
C25   O9    A    
O9    Zn6   S    
C81   O48   S    
C83   H35   S    
O39   Zn12  S    
C26   O6    A    
O49   Zn2   S    
C26   O10   A    
C54   C61   S    
C84   O14   A    
C25   C62   S    
C33   C51   S    
C7    C22   S    
C46   C50   S    
C59   C63   S    
O26   Zn11  S    
C23   O3    A    
C60   C64   S    
O34   Zn5   S    
C33   C41   S    
O19   Zn9   S    
C35   C40   S    
C71   C72   S    
C14   O42   A    
C56   C68   T    
O51   Zn4   S    
O17   Zn11  S    
C74   H13   S    
C9    C29   S    
O2    Zn6   S    
C39   H39   S    
C43   O48   S    
C10   O33   A    
O35   Zn4   S    
C55   C61   S    
C36   C64   S    
C8    C24   S    
C37   H37   S    
O29   Zn10  S    
C28   C65   S    
C15   O43   A    
C42   C47   S    
C27   O7    A    
C27   C64   S    
C50   F2    S    
O43   Zn3   S    
C79   C80   S    
O22   Zn10  S    
C60   H3    S    
C61   C65   S    
O6    Zn1   S    
C40   C44   S    
O21   Zn9   S    
C11   O38   A    
C76   H18   S    
C5    O26   A    
O36   Zn12  S    
C79   H22   S    
C45   C66   T    
O11   Zn7   S    
C8    O30   A    
C34   O34   A    
C47   C57   S    
C82   H30   S    
C6    O24   A    
O28   Zn9   S    
C72   H7    S    
O10   Zn6   S    
