data_mof_unit_64465.cif
_audit_creation_date              2013-03-05T15:42:56-0500
_audit_creation_method            fapswitch 2.2
_symmetry_space_group_name_H-M    P1
_symmetry_Int_Tables_number       1
_space_group_crystal_system       triclinic
_cell_length_a                    21.75784
_cell_length_b                    21.757895
_cell_length_c                    55.71844
_cell_angle_alpha                 89.634606
_cell_angle_beta                  90.172085
_cell_angle_gamma                 90.003489
_cell_volume                      26376.7214631

loop_
_atom_site_label
_atom_site_type_symbol
_atom_site_description
_atom_site_fract_x
_atom_site_fract_y
_atom_site_fract_z
_atom_type_partial_charge
O1    O     O_R   0.499960 0.590510 0.020150 -0.614559
O2    O     O_R   0.409490 0.499960 0.020150 -0.616866
O3    O     O_R   0.500040 0.409490 0.020150 -0.617496
O4    O     O_R   0.590510 0.500040 0.020150 -0.614915
O5    O     O_R   0.999960 0.090510 0.520150 -0.615074
O6    O     O_R   0.909490 0.999960 0.520150 -0.617684
O7    O     O_R   0.000040 0.909490 0.520150 -0.616352
O8    O     O_R   0.090510 0.000040 0.520150 -0.613582
O9    O     O_R   0.499990 0.590510 0.979930 -0.608939
O10   O     O_R   0.409490 0.499990 0.979930 -0.610650
O11   O     O_R   0.500010 0.409490 0.979930 -0.614027
O12   O     O_R   0.590510 0.500010 0.979930 -0.612476
O13   O     O_R   0.999990 0.090510 0.479930 -0.610439
O14   O     O_R   0.909490 0.999990 0.479930 -0.608581
O15   O     O_R   0.000010 0.909490 0.479930 -0.611496
O16   O     O_R   0.090510 0.000010 0.479930 -0.613272
C1    C     C_R   0.503106 0.618900 0.999915 0.945227
C2    C     C_R   0.381099 0.503085 0.999938 0.937536
C3    C     C_R   0.496820 0.381093 0.000157 0.933564
C4    C     C_R   0.618908 0.496834 0.000135 0.940801
C5    C     C_R   0.003102 0.118900 0.499915 0.943080
C6    C     C_R   0.881099 0.003089 0.499938 0.941351
C7    C     C_R   0.996801 0.881093 0.500157 0.942206
C8    C     C_R   0.118907 0.996818 0.500135 0.943206
C9    C     C_R   0.500122 0.000876 0.123704 0.289373
C10   C     C_R   0.998150 0.498830 0.123706 0.289249
C11   C     C_R   0.000102 0.501059 0.623700 0.288857
C12   C     C_R   0.498230 0.998831 0.623707 0.289132
Zn1   Zn    Zn3+2 0.500000 0.500000 0.026890 1.030797
Zn2   Zn    Zn3+2 0.000000 1.000000 0.526890 1.033827
Zn3   Zn    Zn3+2 0.500000 0.500000 0.973180 1.048424
Zn4   Zn    Zn3+2 0.000000 1.000000 0.473180 1.054589
C13   C     C_2   0.782205 0.463018 0.982433 0.243269
C14   C     C_2   0.537961 0.781949 0.017403 0.303980
C15   C     C_2   0.217915 0.537673 0.017408 0.306364
C16   C     C_2   0.462712 0.217937 0.982446 0.244688
C17   C     C_2   0.282221 0.963077 0.482408 0.292402
C18   C     C_2   0.037983 0.281944 0.517394 0.303949
C19   C     C_2   0.717912 0.037667 0.517412 0.305071
C20   C     C_2   0.962757 0.717921 0.482424 0.291788
C21   C     C_2   0.815107 0.503085 0.995741 0.337055
C22   C     C_2   0.497032 0.815047 0.004382 0.308018
C23   C     C_2   0.184912 0.496928 0.004448 0.304279
C24   C     C_2   0.502984 0.184932 0.995805 0.334267
C25   C     C_2   0.315107 0.003104 0.495739 0.307340
C26   C     C_2   0.997033 0.315046 0.504385 0.307939
C27   C     C_2   0.684912 0.996929 0.504447 0.306318
C28   C     C_2   0.003001 0.684932 0.495801 0.307370
C29   C     C_2   0.715518 0.470918 0.981127 -0.184677
C30   C     C_2   0.530063 0.715295 0.018766 -0.132032
C31   C     C_2   0.284560 0.529734 0.018790 -0.136163
C32   C     C_2   0.470580 0.284630 0.981156 -0.184363
C33   C     C_2   0.215510 0.970838 0.481130 -0.128278
C34   C     C_2   0.030078 0.215292 0.518761 -0.131969
C35   C     C_2   0.784559 0.029732 0.518792 -0.137555
C36   C     C_2   0.970485 0.784639 0.481160 -0.123356
C37   C     C_2   0.684169 0.486095 0.000801 -0.266289
C38   C     C_2   0.513708 0.684154 0.999180 -0.278730
C39   C     C_2   0.315843 0.513636 0.999227 -0.281866
C40   C     C_2   0.486042 0.315834 0.000848 -0.271770
C41   C     C_2   0.184174 0.986093 0.500799 -0.284320
C42   C     C_2   0.013698 0.184153 0.499178 -0.278632
C43   C     C_2   0.815842 0.013645 0.499228 -0.276744
C44   C     C_2   0.986035 0.815829 0.500847 -0.287199
H1    H     H_    0.692167 0.463353 0.964142 0.208118
H2    H     H_    0.538705 0.691773 0.035698 0.213541
H3    H     H_    0.307958 0.538184 0.035700 0.212880
H4    H     H_    0.462798 0.308106 0.964153 0.208271
H5    H     H_    0.192121 0.963133 0.464162 0.216262
H6    H     H_    0.038742 0.191770 0.535691 0.213602
H7    H     H_    0.807957 0.038173 0.535703 0.213054
H8    H     H_    0.962552 0.808153 0.464175 0.216655
H9    H     H_    0.706748 0.488089 0.018216 0.198030
H10   H     H_    0.510749 0.706886 0.981777 0.201800
H11   H     H_    0.293221 0.510869 0.981837 0.202772
H12   H     H_    0.488250 0.293144 0.018274 0.197288
H13   H     H_    0.206765 0.988179 0.518209 0.199090
H14   H     H_    0.010718 0.206885 0.481775 0.201576
H15   H     H_    0.793220 0.010886 0.481838 0.203311
H16   H     H_    0.988345 0.793127 0.518268 0.197269
O17   O     O_R   0.999980 0.448970 0.964420 -0.583092
O18   O     O_R   0.551030 0.999980 0.964420 -0.628523
O19   O     O_R   0.000020 0.551030 0.964420 -0.629274
O20   O     O_R   0.448970 0.000020 0.964420 -0.583577
O21   O     O_R   0.499980 0.948970 0.464420 -0.583837
O22   O     O_R   0.051030 0.499980 0.464420 -0.628885
O23   O     O_R   0.500020 0.051030 0.464420 -0.629677
O24   O     O_R   0.948970 0.500020 0.464420 -0.584701
C45   C     C_R   0.999966 0.500180 0.952940 0.953852
C46   C     C_R   0.499907 0.000036 0.952943 0.953501
C47   C     C_R   0.499972 0.000180 0.452942 0.957112
C48   C     C_R   0.999907 0.500034 0.452942 0.956899
O25   O     O_R   0.909490 0.448990 0.000040 -0.593809
O26   O     O_R   0.551010 0.909490 0.000040 -0.586445
O27   O     O_R   0.090510 0.551010 0.000040 -0.585911
O28   O     O_R   0.448990 0.090510 0.000040 -0.593853
O29   O     O_R   0.409490 0.948990 0.500040 -0.592820
O30   O     O_R   0.051010 0.409490 0.500040 -0.586591
O31   O     O_R   0.590510 0.051010 0.500040 -0.586138
O32   O     O_R   0.948990 0.590510 0.500040 -0.593105
O33   O     O_R   0.909510 0.551130 0.000040 -0.575214
O34   O     O_R   0.448870 0.909510 0.000040 -0.575597
O35   O     O_R   0.090490 0.448870 0.000040 -0.577220
O36   O     O_R   0.551130 0.090490 0.000040 -0.576936
O37   O     O_R   0.409510 0.051130 0.500040 -0.575280
O38   O     O_R   0.948870 0.409510 0.500040 -0.575929
O39   O     O_R   0.590490 0.948870 0.500040 -0.576603
O40   O     O_R   0.051130 0.590490 0.500040 -0.575747
C49   C     C_R   0.880948 0.500301 0.998585 0.867840
C50   C     C_R   0.499738 0.880923 0.001490 0.884601
C51   C     C_R   0.119064 0.499708 0.001508 0.885532
C52   C     C_R   0.500271 0.119065 0.998604 0.868769
C53   C     C_R   0.380948 0.000306 0.498587 0.878510
C54   C     C_R   0.999739 0.380923 0.501490 0.884634
C55   C     C_R   0.619064 0.999708 0.501508 0.884875
C56   C     C_R   0.000276 0.619065 0.498606 0.878413
Zn5   Zn    Zn3+2 0.999950 0.431840 0.000040 1.117076
Zn6   Zn    Zn3+2 0.568160 0.999950 0.000040 1.117618
Zn7   Zn    Zn3+2 0.000050 0.568160 0.000040 1.119922
Zn8   Zn    Zn3+2 0.431840 0.000050 0.000040 1.119673
Zn9   Zn    Zn3+2 0.499950 0.931840 0.500040 1.115058
Zn10  Zn    Zn3+2 0.068160 0.499950 0.500040 1.118474
Zn11  Zn    Zn3+2 0.500050 0.068160 0.500040 1.119418
Zn12  Zn    Zn3+2 0.931840 0.500050 0.500040 1.116379
O41   O     O_R   0.999930 0.448970 0.035660 -0.633668
O42   O     O_R   0.551030 0.999930 0.035660 -0.593271
O43   O     O_R   0.000070 0.551030 0.035660 -0.591915
O44   O     O_R   0.448970 0.000070 0.035660 -0.632305
O45   O     O_R   0.499930 0.948970 0.535660 -0.633588
O46   O     O_R   0.051030 0.499930 0.535660 -0.593159
O47   O     O_R   0.500070 0.051030 0.535660 -0.592104
O48   O     O_R   0.948970 0.500070 0.535660 -0.632283
C57   C     C_R   0.999787 0.499823 0.047154 0.895285
C58   C     C_R   0.500080 0.000196 0.047153 0.894949
C59   C     C_R   0.499792 0.999822 0.547154 0.895667
C60   C     C_R   0.000080 0.500210 0.547152 0.895213
C61   C     C_R   0.045248 0.533839 0.762880 0.044258
C62   C     C_R   0.465377 0.046197 0.762622 0.044029
C63   C     C_R   0.951258 0.470234 0.762799 0.043995
C64   C     C_R   0.530714 0.953406 0.763075 0.044213
C65   C     C_R   0.544786 0.034347 0.262881 0.044240
C66   C     C_R   0.965575 0.546410 0.262619 0.044227
C67   C     C_R   0.451671 0.969466 0.262805 0.044162
C68   C     C_R   0.030388 0.453253 0.263075 0.044180
C69   C     C_R   0.998107 0.502078 0.775423 0.087016
C70   C     C_R   0.498189 0.000035 0.775431 0.086968
C71   C     C_R   0.498072 0.001962 0.275426 0.086775
C72   C     C_R   0.998131 0.500070 0.275430 0.086781
C73   C     C_R   0.093396 0.560833 0.776286 -0.193330
C74   C     C_R   0.437707 0.094245 0.775731 -0.192168
C75   C     C_R   0.902750 0.443418 0.776082 -0.192396
C76   C     C_R   0.558675 0.905843 0.776658 -0.193469
C77   C     C_R   0.592538 0.062030 0.276287 -0.193674
C78   C     C_R   0.938188 0.594624 0.275725 -0.192863
C79   C     C_R   0.403534 0.941990 0.276092 -0.192987
C80   C     C_R   0.058077 0.405534 0.276660 -0.193813
C81   C     C_R   0.093684 0.558947 0.801195 -0.093737
C82   C     C_R   0.439879 0.095275 0.800630 -0.091465
C83   C     C_R   0.901966 0.445336 0.800980 -0.091529
C84   C     C_R   0.557083 0.905743 0.801563 -0.093958
C85   C     C_R   0.592826 0.060188 0.301196 -0.094471
C86   C     C_R   0.940381 0.595657 0.300625 -0.093705
C87   C     C_R   0.402711 0.943919 0.300989 -0.093745
C88   C     C_R   0.056489 0.405451 0.301565 -0.094505
C89   C     C_R   0.045906 0.530424 0.813679 -0.037584
C90   C     C_R   0.469382 0.048361 0.813402 -0.043374
C91   C     C_R   0.949581 0.473732 0.813574 -0.043341
C92   C     C_R   0.527877 0.953127 0.813868 -0.037437
C93   C     C_R   0.545441 0.031017 0.313682 -0.037912
C94   C     C_R   0.969619 0.548580 0.313398 -0.041793
C95   C     C_R   0.449916 0.972990 0.313581 -0.041706
C96   C     C_R   0.027562 0.453008 0.313867 -0.037785
C97   C     C_R   0.997851 0.502099 0.800877 -0.046384
C98   C     C_R   0.498484 0.000510 0.800885 -0.046261
C99   C     C_R   0.497796 0.002011 0.300881 -0.046597
C100  C     C_R   0.998439 0.500555 0.300883 -0.046627
C101  C     C_R   0.045306 0.528963 0.838814 0.654806
C102  C     C_R   0.470929 0.048350 0.838540 0.658628
C103  C     C_R   0.949922 0.474844 0.838710 0.658376
C104  C     C_R   0.526831 0.954005 0.838997 0.654524
C105  C     C_R   0.544847 0.029572 0.338817 0.655192
C106  C     C_R   0.971175 0.548571 0.338536 0.658989
C107  C     C_R   0.450226 0.974131 0.338717 0.658819
C108  C     C_R   0.026528 0.453903 0.338997 0.655040
N1    N     N_R   0.997597 0.501745 0.850722 -0.329391
N2    N     N_R   0.498966 0.001362 0.850729 -0.329271
N3    N     N_R   0.497517 0.001701 0.350728 -0.328447
N4    N     N_R   0.998942 0.501425 0.350727 -0.328446
H17   H     H_    0.132640 0.582427 0.768042 0.150864
H18   H     H_    0.415299 0.132849 0.767244 0.151329
H19   H     H_    0.863648 0.421867 0.767733 0.151275
H20   H     H_    0.580887 0.866927 0.768560 0.150820
H21   H     H_    0.631486 0.084161 0.268045 0.150663
H22   H     H_    0.916000 0.633351 0.267235 0.150832
H23   H     H_    0.364740 0.919884 0.267746 0.150791
H24   H     H_    0.080060 0.366487 0.268561 0.150634
H25   H     H_    0.131651 0.580207 0.810643 0.199253
H26   H     H_    0.418014 0.133092 0.809845 0.200989
H27   H     H_    0.863807 0.424104 0.810335 0.200960
H28   H     H_    0.579148 0.868261 0.811151 0.199292
H29   H     H_    0.630482 0.081991 0.310643 0.199063
H30   H     H_    0.918741 0.633606 0.309838 0.199511
H31   H     H_    0.364848 0.922163 0.310346 0.199509
H32   H     H_    0.078338 0.367845 0.311154 0.199038
O49   O     O_2   0.092050 0.554231 0.851311 -0.502208
O50   O     O_2   0.444844 0.094884 0.850759 -0.483530
O51   O     O_2   0.903054 0.449421 0.851103 -0.483801
O52   O     O_2   0.553168 0.907888 0.851666 -0.502713
O53   O     O_2   0.591233 0.055491 0.351312 -0.502440
O54   O     O_2   0.945365 0.595261 0.350754 -0.491823
O55   O     O_2   0.403704 0.948079 0.351112 -0.492140
O56   O     O_2   0.052602 0.407639 0.351667 -0.502987
C109  C     C_R   0.542642 0.037483 0.237458 0.045560
C110  C     C_R   0.961977 0.543439 0.237232 0.045241
C111  C     C_R   0.454561 0.965929 0.237425 0.045173
C112  C     C_R   0.033478 0.455323 0.237660 0.045486
C113  C     C_R   0.043114 0.537051 0.737459 0.045630
C114  C     C_R   0.461812 0.043224 0.737234 0.045305
C115  C     C_R   0.954094 0.466672 0.737419 0.045231
C116  C     C_R   0.533794 0.955499 0.737659 0.045558
C117  C     C_R   0.498806 0.001582 0.224857 0.077459
C118  C     C_R   0.997640 0.499192 0.224861 0.077467
C119  C     C_R   0.998799 0.501749 0.724854 0.077607
C120  C     C_R   0.497720 0.999177 0.724862 0.077607
C121  C     C_R   0.415033 0.927347 0.224088 -0.199820
C122  C     C_R   0.071780 0.415329 0.224506 -0.200108
C123  C     C_R   0.582596 0.075808 0.224103 -0.200656
C124  C     C_R   0.923405 0.582955 0.223694 -0.200372
C125  C     C_R   0.914063 0.428615 0.724080 -0.199313
C126  C     C_R   0.572310 0.915713 0.724504 -0.199721
C127  C     C_R   0.083547 0.574878 0.724109 -0.200317
C128  C     C_R   0.423038 0.082542 0.723696 -0.199833
C129  C     C_R   0.417116 0.926046 0.199197 -0.120479
C130  C     C_R   0.072713 0.416680 0.199597 -0.121300
C131  C     C_R   0.581341 0.076595 0.199190 -0.121720
C132  C     C_R   0.922233 0.580955 0.198799 -0.120838
C133  C     C_R   0.916134 0.427289 0.699189 -0.120078
C134  C     C_R   0.573232 0.917070 0.699595 -0.120898
C135  C     C_R   0.082272 0.575726 0.699197 -0.121268
C136  C     C_R   0.421891 0.080552 0.698801 -0.120426
C137  C     C_R   0.458378 0.963345 0.186647 -0.026304
C138  C     C_R   0.035310 0.457643 0.186847 -0.025547
C139  C     C_R   0.540501 0.039034 0.186641 -0.023427
C140  C     C_R   0.959651 0.539787 0.186448 -0.024152
C141  C     C_R   0.957873 0.464058 0.686642 -0.026286
C142  C     C_R   0.535613 0.957836 0.686846 -0.025648
C143  C     C_R   0.040942 0.538706 0.686643 -0.023521
C144  C     C_R   0.459530 0.039588 0.686449 -0.024274
C145  C     C_R   0.499228 0.001321 0.199397 -0.049771
C146  C     C_R   0.997515 0.498857 0.199400 -0.049776
C147  C     C_R   0.999204 0.501506 0.699395 -0.049754
C148  C     C_R   0.497603 0.998850 0.699401 -0.049723
C149  C     C_R   0.539508 0.038793 0.161485 0.512321
C150  C     C_R   0.959724 0.538246 0.161303 0.512590
C151  C     C_R   0.460139 0.963134 0.161503 0.516274
C152  C     C_R   0.035366 0.458868 0.161691 0.516054
C153  C     C_R   0.039926 0.538509 0.661488 0.512628
C154  C     C_R   0.459620 0.038059 0.661304 0.512869
C155  C     C_R   0.959643 0.463820 0.661499 0.516428
C156  C     C_R   0.535656 0.959059 0.661689 0.516290
N5    N     N_R   0.499976 0.000888 0.149447 -0.353953
N6    N     N_R   0.997652 0.498556 0.149448 -0.353931
N7    N     N_R   0.999937 0.501089 0.649444 -0.353916
N8    N     N_R   0.497744 0.998559 0.649449 -0.353991
H33   H     H_    0.382901 0.896179 0.232389 0.152015
H34   H     H_    0.103037 0.383404 0.232952 0.151622
H35   H     H_    0.614455 0.107147 0.232384 0.151520
H36   H     H_    0.892188 0.615046 0.231834 0.151934
H37   H     H_    0.881531 0.397865 0.732380 0.152372
H38   H     H_    0.603737 0.883954 0.732947 0.151798
H39   H     H_    0.115816 0.605788 0.732397 0.151694
H40   H     H_    0.391646 0.114462 0.731836 0.152247
H41   H     H_    0.385895 0.895667 0.189814 0.196756
H42   H     H_    0.102939 0.385172 0.190361 0.196126
H43   H     H_    0.612861 0.106793 0.189793 0.196042
H44   H     H_    0.891906 0.612208 0.189255 0.196690
H45   H     H_    0.884523 0.397319 0.689803 0.196911
H46   H     H_    0.603624 0.885723 0.690357 0.196286
H47   H     H_    0.114169 0.605530 0.689803 0.196217
H48   H     H_    0.391404 0.111649 0.689257 0.196850
O57   O     O_2   0.577363 0.076544 0.149141 -0.549732
O58   O     O_2   0.921879 0.575822 0.148785 -0.547523
O59   O     O_2   0.422666 0.925152 0.149189 -0.542681
O60   O     O_2   0.073251 0.421115 0.149551 -0.544951
O61   O     O_2   0.078219 0.575825 0.649149 -0.549239
O62   O     O_2   0.421598 0.075455 0.648786 -0.547181
O63   O     O_2   0.921725 0.426278 0.649185 -0.542699
O64   O     O_2   0.573720 0.921491 0.649547 -0.544454
C157  C     C_R   0.019168 0.448844 0.889008 0.446567
C158  C     C_R   0.550903 0.023407 0.889031 0.454112
C159  C     C_R   0.976883 0.553124 0.889089 0.455294
C160  C     C_R   0.447285 0.979501 0.889082 0.448070
C161  C     C_R   0.519687 0.949045 0.389015 0.447207
C162  C     C_R   0.050996 0.523197 0.389028 0.453895
C163  C     C_R   0.476248 0.052852 0.389097 0.454389
C164  C     C_R   0.947155 0.479825 0.389079 0.447645
C165  C     C_R   0.018856 0.448746 0.914046 -0.210859
C166  C     C_R   0.551029 0.021831 0.914069 -0.235207
C167  C     C_R   0.978679 0.552597 0.914122 -0.236294
C168  C     C_R   0.447786 0.980102 0.914118 -0.212517
C169  C     C_R   0.519379 0.948945 0.414053 -0.218860
C170  C     C_R   0.051123 0.521608 0.414066 -0.236395
C171  C     C_R   0.478099 0.052361 0.414130 -0.236927
C172  C     C_R   0.947674 0.480392 0.414114 -0.219837
H49   H     H_    0.034814 0.408559 0.923779 0.230279
H50   H     H_    0.590920 0.038030 0.923817 0.227737
H51   H     H_    0.963167 0.592489 0.923913 0.228043
H52   H     H_    0.408090 0.963627 0.923903 0.229924
H53   H     H_    0.535770 0.908936 0.423788 0.229673
H54   H     H_    0.091101 0.537599 0.423812 0.227937
H55   H     H_    0.462168 0.092082 0.423925 0.227734
H56   H     H_    0.907897 0.464109 0.423898 0.229662
C173  C     C_R   0.999259 0.500556 0.926659 -0.177873
C174  C     C_R   0.499615 0.000586 0.926665 -0.177667
C175  C     C_R   0.499247 0.000548 0.426664 -0.176099
C176  C     C_R   0.999610 0.500604 0.426663 -0.176568
C177  C     C_R   0.997749 0.501186 0.876418 0.016633
C178  C     C_R   0.498989 0.001583 0.876425 0.016512
C179  C     C_R   0.497679 0.001145 0.376425 0.016966
C180  C     C_R   0.998967 0.501649 0.376422 0.016984
C181  C     C_R   0.446732 0.016681 0.110964 -0.085519
C182  C     C_R   0.982665 0.445527 0.111059 -0.084553
C183  C     C_R   0.553616 0.985077 0.111229 -0.093026
C184  C     C_R   0.014161 0.552443 0.111136 -0.094101
C185  C     C_R   0.946852 0.517285 0.610948 -0.085027
C186  C     C_R   0.482915 0.945474 0.611065 -0.084277
C187  C     C_R   0.053471 0.484802 0.611231 -0.092819
C188  C     C_R   0.514051 0.052495 0.611135 -0.093904
H57   H     H_    0.405337 0.029462 0.120450 0.158509
H58   H     H_    0.969765 0.404023 0.120618 0.158818
H59   H     H_    0.594982 0.972437 0.120922 0.161411
H60   H     H_    0.026603 0.593729 0.120755 0.161281
H61   H     H_    0.905558 0.530436 0.620424 0.158883
H62   H     H_    0.470167 0.903928 0.620627 0.158950
H63   H     H_    0.094729 0.471830 0.620929 0.161767
H64   H     H_    0.526359 0.093823 0.620753 0.161270
C189  C     C_R   0.446588 0.016043 0.085989 -0.204705
C190  C     C_R   0.983715 0.445652 0.086077 -0.206349
C191  C     C_R   0.553861 0.985475 0.086244 -0.140420
C192  C     C_R   0.014162 0.552959 0.086159 -0.138272
C193  C     C_R   0.946708 0.516576 0.585973 -0.204305
C194  C     C_R   0.483933 0.945602 0.586082 -0.205509
C195  C     C_R   0.053736 0.485169 0.586247 -0.140241
C196  C     C_R   0.514038 0.053007 0.586158 -0.138122
H65   H     H_    0.404781 0.028282 0.076503 0.175757
H66   H     H_    0.971654 0.403951 0.076654 0.175459
H67   H     H_    0.595753 0.973321 0.076962 0.197418
H68   H     H_    0.026391 0.594989 0.076817 0.197939
H69   H     H_    0.905007 0.529131 0.576479 0.175899
H70   H     H_    0.472000 0.903860 0.576663 0.175818
H71   H     H_    0.095537 0.472678 0.576972 0.197904
H72   H     H_    0.526128 0.095074 0.576814 0.197772
C197  C     C_R   0.500204 0.000557 0.073453 -0.042674
C198  C     C_R   0.999296 0.499447 0.073454 -0.042533
C199  C     C_R   0.000202 0.500632 0.573449 -0.042772
C200  C     C_R   0.499326 0.999447 0.573456 -0.042457
S1    S     S_3+6 0.815436 0.404936 0.964415 0.065454
O65   O     O_2   0.866288 0.431918 0.949519 -0.258636
O66   O     O_2   0.841278 0.354759 0.980132 -0.266367
O67   O     O_3   0.762279 0.374638 0.945967 -0.481683
H73   H     H_    0.735791 0.349071 0.956464 0.366287
S2    S     S_3+6 0.597500 0.814755 0.034934 0.031270
O68   O     O_2   0.646760 0.839586 0.018692 -0.256429
O69   O     O_2   0.571912 0.865949 0.049855 -0.339251
O70   O     O_3   0.628353 0.761013 0.053152 -0.532582
H74   H     H_    0.660424 0.782933 0.062406 0.395824
S3    S     S_3+6 0.185008 0.597059 0.034810 0.030430
O71   O     O_2   0.160285 0.646470 0.018467 -0.255593
O72   O     O_2   0.133723 0.571330 0.049809 -0.340539
O73   O     O_3   0.238639 0.627743 0.052940 -0.534208
H75   H     H_    0.216664 0.659729 0.062131 0.395623
S4    S     S_3+6 0.404425 0.184824 0.964324 0.065758
O74   O     O_2   0.431227 0.134055 0.949500 -0.258568
O75   O     O_2   0.354421 0.158892 0.979953 -0.266197
O76   O     O_3   0.373932 0.238099 0.945796 -0.481244
H76   H     H_    0.348469 0.264512 0.956232 0.367388
S5    S     S_3+6 0.315472 0.905145 0.464348 0.047443
O77   O     O_2   0.366679 0.932111 0.449621 -0.305102
O78   O     O_2   0.340411 0.854720 0.480158 -0.259337
O79   O     O_3   0.261986 0.875500 0.445890 -0.522136
H77   H     H_    0.284077 0.844181 0.436398 0.406771
S6    S     S_3+6 0.097565 0.314737 0.534905 0.031092
O80   O     O_2   0.146792 0.339568 0.518647 -0.256761
O81   O     O_2   0.072011 0.365930 0.549836 -0.339519
O82   O     O_3   0.128451 0.260989 0.553111 -0.532515
H78   H     H_    0.160539 0.282907 0.562358 0.395867
S7    S     S_3+6 0.685000 0.097038 0.534821 0.030531
O83   O     O_2   0.660277 0.146460 0.518483 -0.256070
O84   O     O_2   0.633714 0.071297 0.549816 -0.340016
O85   O     O_3   0.738629 0.127711 0.552955 -0.533999
H79   H     H_    0.716655 0.159700 0.562144 0.395638
S8    S     S_3+6 0.904604 0.684790 0.464266 0.048104
O86   O     O_2   0.931375 0.633657 0.449611 -0.304667
O87   O     O_2   0.854360 0.659770 0.479995 -0.259444
O88   O     O_3   0.874757 0.738391 0.445731 -0.520603
H80   H     H_    0.843334 0.716359 0.436184 0.407118
F1    F     F_    0.787829 0.554439 0.004746 -0.641535
F2    F     F_    0.445071 0.787877 0.995706 -0.642233
F3    F     F_    0.212141 0.445050 0.995878 -0.649403
F4    F     F_    0.554446 0.212143 0.004902 -0.649546
F5    F     F_    0.287822 0.054429 0.504766 -0.643725
F6    F     F_    0.945055 0.287878 0.495722 -0.642493
F7    F     F_    0.712143 0.945057 0.495873 -0.643065
F8    F     F_    0.054438 0.712152 0.504915 -0.646242
S9    S     S_3+6 0.046671 0.383073 0.873888 0.070695
O89   O     O_2   0.993372 0.349926 0.862658 -0.239663
O90   O     O_2   0.091061 0.401980 0.854594 -0.284485
O91   O     O_3   0.082434 0.335416 0.893287 -0.522651
H81   H     H_    0.095009 0.299676 0.883534 0.405111
S10   S     S_3+6 0.616162 0.052812 0.873931 0.067651
O92   O     O_2   0.650776 0.000559 0.862779 -0.251832
O93   O     O_2   0.596418 0.097069 0.854579 -0.277094
O94   O     O_3   0.662633 0.089396 0.893338 -0.525118
H82   H     H_    0.698050 0.103300 0.883582 0.404571
S11   S     S_3+6 0.948379 0.619204 0.874071 0.065776
O95   O     O_2   0.001005 0.652994 0.862608 -0.252470
O96   O     O_2   0.903270 0.600633 0.854970 -0.278402
O97   O     O_3   0.913191 0.666052 0.893609 -0.528180
H83   H     H_    0.899883 0.701966 0.883893 0.402403
S12   S     S_3+6 0.381591 0.950765 0.874057 0.068844
O98   O     O_2   0.347118 0.003439 0.862797 -0.239382
O99   O     O_2   0.400731 0.906739 0.854797 -0.286810
O100  O     O_3   0.335200 0.914113 0.893547 -0.525564
H84   H     H_    0.299397 0.900883 0.883847 0.403019
S13   S     S_3+6 0.547924 0.883577 0.373901 0.065805
O101  O     O_2   0.494948 0.849608 0.362816 -0.246365
O102  O     O_2   0.591793 0.902969 0.354497 -0.284688
O103  O     O_3   0.584604 0.836564 0.393277 -0.526534
H85   H     H_    0.597463 0.800886 0.383544 0.402761
S14   S     S_3+6 0.116404 0.552264 0.373926 0.065073
O104  O     O_2   0.150696 0.499840 0.362745 -0.252502
O105  O     O_2   0.096889 0.596685 0.354597 -0.279305
O106  O     O_3   0.163117 0.588527 0.393339 -0.528060
H86   H     H_    0.198677 0.602104 0.383594 0.402356
S15   S     S_3+6 0.446961 0.118597 0.374085 0.064481
O107  O     O_2   0.499224 0.153194 0.362735 -0.252064
O108  O     O_2   0.402316 0.099507 0.354898 -0.280232
O109  O     O_3   0.410913 0.164824 0.393611 -0.529222
H87   H     H_    0.397114 0.200560 0.383899 0.402040
S16   S     S_3+6 0.881307 0.451448 0.374051 0.065177
O110  O     O_2   0.847167 0.504296 0.362761 -0.245915
O111  O     O_2   0.900211 0.407253 0.354815 -0.285672
O112  O     O_3   0.834665 0.415130 0.393545 -0.527572
H88   H     H_    0.798886 0.401923 0.383827 0.402494

loop_
_geom_bond_atom_site_label_1
_geom_bond_atom_site_label_2
_geom_bond_distance
_ccdc_geom_bond_type
C48   C176  1.464193 S    
S1    O65   1.502302 D    
C152  N6    1.368775 A    
S13   O101  1.502601 D    
C14   C22   1.351868 D    
N4    C180  1.431757 S    
S7    O85   1.682012 S    
C33   H5    1.086273 S    
C105  N3    1.366591 A    
O15   Zn4   2.002543 S    
C94   C100  1.408296 A    
C87   H31   1.083475 S    
C8    C41   1.439442 S    
O25   Zn5   2.003294 S    
O2    Zn1   2.003683 S    
C95   C107  1.400936 A    
S12   O98   1.502595 D    
O23   C47   1.281462 A    
O30   C54   1.279513 A    
O17   Zn5   2.017043 S    
C158  C178  1.412140 A    
C181  H57   1.082905 S    
S4    O74   1.502351 D    
O37   Zn11  2.004480 S    
C172  H56   1.082615 S    
O19   Zn7   2.021712 S    
S5    O79   1.682015 S    
C88   H32   1.083479 S    
C125  H37   1.077265 S    
C64   C116  1.418350 A    
C168  C174  1.399376 A    
C36   H8    1.086283 S    
O32   C56   1.279604 A    
O3    C3    1.279026 A    
C194  C200  1.403733 A    
C64   C76   1.414622 A    
C156  N8    1.368749 A    
C105  O53   1.349844 S    
C140  C150  1.401660 A    
O35   Zn5   2.004480 S    
C67   C111  1.418328 A    
C111  C117  1.419824 A    
C188  C196  1.391652 A    
C60   C199  1.465293 S    
C149  O57   1.349894 S    
C172  C176  1.399407 A    
C195  C199  1.403733 A    
C158  S10   1.770190 S    
C103  O51   1.349818 S    
C90   C98   1.408291 A    
C184  C192  1.391637 A    
C137  C145  1.407464 A    
S8    O87   1.503015 D    
O14   Zn4   2.006004 S    
C26   C54   1.442568 S    
C126  H38   1.077210 S    
O27   Zn7   2.003294 S    
C92   C104  1.400710 A    
C19   C27   1.352031 D    
C40   H12   1.087378 S    
C112  C122  1.414481 A    
C77   C85   1.388203 A    
O32   Zn12  2.003254 S    
C133  H45   1.083473 S    
C74   H18   1.077237 S    
C34   H6    1.086321 S    
O12   C4    1.284038 A    
O1    Zn1   2.002439 S    
C133  C141  1.396455 A    
C20   S8    1.773618 S    
C131  C139  1.396399 A    
C5    C42   1.438704 S    
C151  O59   1.349919 S    
C24   C52   1.441826 S    
C7    C44   1.439471 S    
O6    Zn2   2.003684 S    
S1    O67   1.682327 S    
C15   C31   1.462060 S    
S13   O103  1.682135 S    
C16   C24   1.351603 D    
O18   Zn6   2.018274 S    
C17   C25   1.351738 D    
S7    O83   1.503029 D    
C58   C197  1.465438 S    
C171  H55   1.082623 S    
C149  N5    1.368755 A    
C20   C28   1.351579 D    
C153  N7    1.368809 A    
S12   O100  1.682129 S    
C154  N8    1.368807 A    
C139  C149  1.401759 A    
C22   F2    1.364423 S    
O76   H76   0.990706 S    
C163  C179  1.412048 A    
C73   H17   1.077219 S    
C164  C180  1.412124 A    
S4    O76   1.682324 S    
C157  C165  1.395109 A    
O8    Zn2   2.005896 S    
C76   H20   1.077210 S    
S9    O89   1.502615 D    
O31   C55   1.279548 A    
C123  H35   1.077223 S    
C189  C197  1.403637 A    
O10   C2    1.278268 A    
C70   C98   1.418350 A    
C82   H26   1.083473 S    
C83   C91   1.395880 A    
S3    O73   1.682011 S    
C84   C92   1.395856 A    
S14   O105  1.502789 D    
C65   C71   1.419882 A    
C102  N2    1.366509 A    
C9    C181  1.401262 A    
O42   C58   1.281932 A    
C155  N7    1.368879 A    
C61   C113  1.418301 A    
C160  S12   1.770383 S    
O70   H74   0.990580 S    
C13   C29   1.462656 S    
C35   H7    1.086313 S    
C144  C148  1.407475 A    
O79   H77   0.990587 S    
S15   O108  1.502798 D    
O6    C6    1.284282 A    
C113  C119  1.419749 A    
N1    C177  1.431726 S    
C186  H62   1.082889 S    
C89   C101  1.400707 A    
O13   Zn4   2.007253 S    
N3    C179  1.431759 S    
O24   Zn12  2.020483 S    
C167  H51   1.082608 S    
O73   H75   0.990583 S    
C101  N1    1.366586 A    
C92   C98   1.408149 A    
C72   C100  1.418331 A    
C86   H30   1.083477 S    
O37   C53   1.271359 A    
S2    O68   1.503024 D    
C102  O50   1.349798 S    
C106  O54   1.349803 S    
C15   S3    1.772740 S    
Zn12  O48   2.018292 S    
C37   H9    1.087395 S    
O3    Zn1   2.007147 S    
O29   Zn9   2.003294 S    
C32   C40   1.336154 D    
C6    C43   1.438700 S    
O45   C59   1.281969 A    
C33   C41   1.336154 D    
C151  N5    1.368816 A    
C41   H13   1.087365 S    
C35   C43   1.335467 D    
C36   C44   1.336242 D    
C124  H36   1.077267 S    
C16   C32   1.462484 S    
C1    C38   1.438737 S    
C28   C56   1.441868 S    
C17   C33   1.462757 S    
C165  C173  1.399411 A    
C21   C49   1.442049 S    
C94   C106  1.400962 A    
C190  C198  1.403710 A    
O20   C46   1.281204 A    
C165  H49   1.082597 S    
O67   H73   0.990701 S    
C161  C179  1.412207 A    
C162  C180  1.412117 A    
O19   C45   1.281500 A    
C196  H72   1.082941 S    
C142  C156  1.401756 A    
S9    O91   1.682173 S    
C81   C89   1.395874 A    
C68   C112  1.418321 A    
C106  N4    1.366507 A    
C79   C87   1.388327 A    
C195  H71   1.082932 S    
O36   C52   1.271367 A    
C75   C83   1.388327 A    
C68   C80   1.414617 A    
O22   Zn10  2.018274 S    
O44   C58   1.281589 A    
C182  C190  1.392233 A    
C67   C79   1.414680 A    
C9    C183  1.401430 A    
O48   C60   1.281555 A    
O5    C5    1.284136 A    
C31   H3    1.086314 S    
C66   C78   1.414689 A    
O21   Zn9   2.017043 S    
C114  C128  1.414415 A    
S10   O92   1.502597 D    
S13   O102  1.502790 D    
C104  N2    1.366593 A    
C130  C138  1.396398 A    
C90   C102  1.400963 A    
C118  C146  1.418685 A    
C122  H34   1.077218 S    
O12   Zn3   2.003784 S    
C187  C195  1.392104 A    
C88   C96   1.395865 A    
C161  C169  1.395108 A    
C186  C194  1.392236 A    
S6    O80   1.503028 D    
C150  O58   1.349918 S    
O103  H85   0.990585 S    
C38   H10   1.087455 S    
C163  C171  1.395233 A    
O5    Zn2   2.002440 S    
C129  C137  1.396428 A    
C164  C172  1.395067 A    
C170  C176  1.399363 A    
C42   H14   1.087456 S    
S7    O84   1.502155 D    
O35   C51   1.271815 A    
C143  C147  1.407530 A    
O16   Zn4   2.003784 S    
C191  H67   1.082936 S    
C144  C154  1.401665 A    
O1    C1    1.284130 A    
C122  C130  1.388240 A    
C192  C198  1.403733 A    
O14   C6    1.278284 A    
S12   O99   1.502795 D    
C22   C50   1.442547 S    
O17   C45   1.281236 A    
Zn6   O42   2.020487 S    
O23   Zn11  2.021712 S    
O26   Zn6   2.003254 S    
C65   C77   1.414638 A    
C45   C173  1.464369 S    
C62   C70   1.419766 A    
O7    C7    1.279036 A    
C63   C75   1.414659 A    
C159  C167  1.395209 A    
O8    C8    1.278881 A    
S4    O75   1.503269 D    
C159  S11   1.770204 S    
S5    O78   1.503017 D    
C120  C148  1.418705 A    
C171  C175  1.399422 A    
C14   S2    1.772829 S    
C63   C115  1.418273 A    
C2    C39   1.438678 S    
C77   H21   1.077205 S    
C150  N6    1.368834 A    
Zn5   O41   2.021726 S    
C96   C100  1.408150 A    
O25   C49   1.279551 A    
Zn7   O43   2.017051 S    
C91   C103  1.400905 A    
C21   F1    1.364398 S    
O94   H82   0.990568 S    
C139  C145  1.407544 A    
C131  H43   1.083472 S    
C158  C166  1.395275 A    
C166  C174  1.399336 A    
C187  H63   1.082884 S    
C27   C55   1.442777 S    
O11   C3    1.283876 A    
C61   C69   1.419866 A    
C80   H24   1.077215 S    
C161  S13   1.770377 S    
C71   C99   1.418345 A    
C162  S14   1.770192 S    
O33   C49   1.271459 A    
C182  H58   1.082888 S    
C11   C187  1.401492 A    
S16   O110  1.502597 D    
C135  C143  1.396428 A    
O109  H87   0.990568 S    
C46   C174  1.464109 S    
C143  C153  1.401750 A    
C109  C117  1.419766 A    
O10   Zn3   2.006004 S    
C19   C35   1.462076 S    
C20   C36   1.462592 S    
C135  H47   1.083468 S    
N2    C178  1.431767 S    
C136  H48   1.083467 S    
C137  C151  1.401649 A    
C87   C95   1.395865 A    
O4    Zn1   2.005895 S    
C24   F4    1.364379 S    
C91   C97   1.408300 A    
C10   C184  1.401287 A    
C83   H27   1.083477 S    
C141  C147  1.407445 A    
S1    O66   1.503268 D    
O7    Zn2   2.007148 S    
C44   H16   1.087355 S    
C115  C125  1.414399 A    
C160  C178  1.412149 A    
C28   F8    1.364351 S    
C78   C86   1.388341 A    
C167  C173  1.399497 A    
O36   Zn6   2.004529 S    
C138  C146  1.407530 A    
C66   C110  1.418322 A    
C64   C70   1.419873 A    
C142  C148  1.407536 A    
C34   C42   1.335539 D    
S6    O82   1.682004 S    
C134  H46   1.083471 S    
C107  O55   1.349809 S    
O26   C50   1.279514 A    
C111  C121  1.414425 A    
C30   C38   1.335565 D    
C109  C123  1.414477 A    
C107  N3    1.366508 A    
C110  C118  1.419812 A    
C18   C34   1.461889 S    
O20   Zn8   2.020483 S    
C11   N7    1.434446 S    
C134  C142  1.396383 A    
C153  O61   1.349898 S    
C93   C99   1.408146 A    
S3    O72   1.502149 D    
C155  O63   1.349925 S    
S14   O106  1.682155 S    
C93   C105  1.400723 A    
C29   H1    1.086269 S    
C25   F5    1.364373 S    
C117  C145  1.418702 A    
C121  H33   1.077248 S    
C160  C168  1.395077 A    
C59   C200  1.465515 S    
O39   Zn9   2.004480 S    
O34   Zn8   2.004529 S    
C82   C90   1.395863 A    
O82   H78   0.990582 S    
C119  C147  1.418650 A    
C169  C175  1.399335 A    
C74   C82   1.388337 A    
Zn11  O47   2.017051 S    
O43   C57   1.281586 A    
Zn9   O45   2.021726 S    
S8    O86   1.502770 D    
C190  H66   1.083049 S    
C163  S15   1.770197 S    
O88   H80   0.990579 S    
Zn8   O44   2.018292 S    
C114  C120  1.419816 A    
O85   H79   0.990580 S    
C103  N1    1.366500 A    
C11   C185  1.401324 A    
S16   O112  1.682153 S    
C116  C126  1.414489 A    
C121  C129  1.388234 A    
O40   C56   1.271280 A    
C188  H64   1.082901 S    
C157  S9    1.770375 S    
C80   C88   1.388191 A    
S2    O69   1.502211 D    
C101  O49   1.349851 S    
C81   H25   1.083479 S    
C141  C155  1.401627 A    
C162  C170  1.395275 A    
C79   H23   1.077247 S    
C115  C119  1.419810 A    
C10   C182  1.401430 A    
C25   C53   1.442081 S    
O91   H81   0.990524 S    
C156  O64   1.349896 S    
C157  C177  1.412153 A    
C136  C144  1.396431 A    
O27   C51   1.279549 A    
C132  H44   1.083469 S    
C73   C81   1.388220 A    
S2    O70   1.682005 S    
C76   C84   1.388198 A    
C183  C191  1.392129 A    
O2    C2    1.284292 A    
C138  C152  1.401746 A    
C185  H61   1.082903 S    
S3    O71   1.503027 D    
C68   C72   1.419871 A    
C15   C23   1.352032 D    
O21   C47   1.281180 A    
C29   C37   1.336060 D    
C84   H28   1.083476 S    
C43   H15   1.087467 S    
C62   C74   1.414696 A    
C67   C71   1.419756 A    
O28   C52   1.279517 A    
C140  C146  1.407466 A    
O38   C54   1.271735 A    
C17   S5    1.773554 S    
C85   H29   1.083479 S    
O47   C59   1.281601 A    
S9    O90   1.502784 D    
C89   C97   1.408152 A    
C16   S4    1.774397 S    
C9    N5    1.434341 S    
C57   C198  1.465464 S    
C127  C135  1.388268 A    
S14   O104  1.502607 D    
C193  H69   1.083066 S    
C12   C186  1.401400 A    
O24   C48   1.281223 A    
C86   C94   1.395875 A    
C128  H40   1.077254 S    
C110  C124  1.414406 A    
S10   O93   1.502801 D    
C32   H4    1.086276 S    
S15   O109  1.682136 S    
C189  H65   1.083053 S    
C168  H52   1.082620 S    
C75   H19   1.077258 S    
O11   Zn3   2.002543 S    
O16   C8    1.284045 A    
C61   C73   1.414619 A    
C26   F6    1.364426 S    
C19   S7    1.772756 S    
S8    O88   1.682008 S    
C108  O56   1.349850 S    
C27   F7    1.364444 S    
C14   C30   1.461922 S    
C18   C26   1.351876 D    
C152  O60   1.349901 S    
O13   C5    1.278428 A    
O33   Zn7   2.004480 S    
C66   C72   1.419759 A    
C13   C21   1.351769 D    
S10   O94   1.682138 S    
C65   C109  1.418354 A    
O100  H84   0.990589 S    
C47   C175  1.464183 S    
C12   N8    1.434327 S    
C95   C99   1.408296 A    
C108  N4    1.366593 A    
C127  H39   1.077242 S    
C193  C199  1.403582 A    
C96   C108  1.400690 A    
C23   F3    1.364447 S    
S11   O95   1.502607 D    
C170  H54   1.082629 S    
S11   O96   1.502791 D    
S11   O97   1.682152 S    
C159  C177  1.411999 A    
O18   C46   1.281390 A    
C30   H2    1.086316 S    
O39   C55   1.271814 A    
S5    O77   1.502721 D    
C196  C200  1.403759 A    
C166  H50   1.082634 S    
C13   S1    1.774348 S    
O9    C1    1.278456 A    
C69   C97   1.418299 A    
C126  C134  1.388244 A    
C31   C39   1.335456 D    
O29   C53   1.279646 A    
C39   H11   1.087468 S    
C116  C120  1.419774 A    
C185  C193  1.391752 A    
O31   Zn11  2.003294 S    
O97   H83   0.990561 S    
O41   C57   1.281958 A    
C63   C69   1.419741 A    
S6    O81   1.502183 D    
O28   Zn8   2.003254 S    
O46   C60   1.281898 A    
O40   Zn10  2.004529 S    
C10   N6    1.434380 S    
O4    C4    1.278865 A    
C3    C40   1.439397 S    
C184  H60   1.082904 S    
C123  C131  1.388258 A    
C23   C51   1.442781 S    
C130  H42   1.083473 S    
C129  H41   1.083471 S    
C154  O62   1.349912 S    
C132  C140  1.396449 A    
C85   C93   1.395857 A    
O112  H88   0.990561 S    
O22   C48   1.281416 A    
C113  C127  1.414454 A    
C12   C188  1.401262 A    
C181  C189  1.391759 A    
O15   C7    1.283893 A    
C18   S6    1.772787 S    
S16   O111  1.502797 D    
C183  H59   1.082883 S    
C112  C118  1.419768 A    
C124  C132  1.388256 A    
O34   C50   1.271721 A    
O9    Zn3   2.007253 S    
C169  H53   1.082616 S    
S15   O107  1.502597 D    
C78   H22   1.077244 S    
C62   C114  1.418343 A    
O30   Zn10  2.003254 S    
C194  H70   1.083038 S    
O106  H86   0.990530 S    
C191  C197  1.403797 A    
C128  C136  1.388255 A    
C192  H68   1.082943 S    
O38   Zn12  2.004529 S    
C4    C37   1.439374 S    
C104  O52   1.349844 S    
C125  C133  1.388233 A    
Zn10  O46   2.020487 S    
C164  S16   1.770382 S    
