data_mof_unit_17012.cif
_audit_creation_date              2012-12-11T15:16:37-0500
_audit_creation_method            fapswitch 2.2
_symmetry_space_group_name_H-M    P1
_symmetry_Int_Tables_number       1
_space_group_crystal_system       triclinic
_cell_length_a                    25.149233
_cell_length_b                    7.234195
_cell_length_c                    21.936977
_cell_angle_alpha                 89.999787
_cell_angle_beta                  110.151712
_cell_angle_gamma                 90.000206
_cell_volume                      3746.77209088

loop_
_atom_site_label
_atom_site_type_symbol
_atom_type_description
_atom_site_fract_x
_atom_site_fract_y
_atom_site_fract_z
_atom_type_partial_charge
O1    O     O_R   0.554350 0.505270 0.581390 -0.524230
O2    O     O_R   0.445650 0.005270 0.418610 -0.524216
O3    O     O_R   0.553380 0.177580 0.454800 -0.547907
O4    O     O_R   0.446620 0.677580 0.545200 -0.547913
C1    C     C_R   0.565671 0.344521 0.438081 0.767154
C2    C     C_R   0.434329 0.844521 0.561918 0.767141
O5    O     O_R   0.560970 0.175640 0.583140 -0.541286
O6    O     O_R   0.439030 0.675640 0.416860 -0.541294
O7    O     O_R   0.453290 0.004120 0.547860 -0.533925
O8    O     O_R   0.546710 0.504120 0.452140 -0.533936
C3    C     C_R   0.576238 0.343977 0.607373 0.828274
C4    C     C_R   0.423762 0.843976 0.392627 0.828267
O9    O     O_3   0.464660 0.338800 0.488280 -0.380435
O10   O     O_3   0.535340 0.838800 0.511720 -0.380442
V1    V     V_3+5 0.506560 0.064420 0.502170 1.487665
V2    V     V_3+5 0.493440 0.564420 0.497830 1.487640
C5    C     C_R   0.147114 0.982180 0.288472 -0.120244
C6    C     C_R   0.852890 0.482106 0.711525 -0.120241
H1    H     H_    0.062174 0.009601 0.221747 0.113176
H2    H     H_    0.937830 0.509528 0.778250 0.113179
H3    H     H_    0.231558 0.980136 0.400647 0.160087
H4    H     H_    0.768447 0.480022 0.599349 0.160088
H5    H     H_    0.134461 0.011562 0.329974 0.125109
H6    H     H_    0.865544 0.511450 0.670022 0.125111
C7    C     C_R   0.120384 0.942488 0.172335 -0.045533
C8    C     C_R   0.879616 0.442484 0.827665 -0.045531
C9    C     C_R   0.395795 0.814131 0.274525 -0.277939
C10   C     C_R   0.604203 0.314177 0.725477 -0.277946
C11   C     C_R   0.356574 0.811207 0.211880 0.715604
C12   C     C_R   0.643422 0.311278 0.788122 0.715606
C13   C     C_R   0.299399 0.842850 0.200844 -0.210705
C14   C     C_R   0.700598 0.342905 0.799158 -0.210706
C15   C     C_R   0.279606 0.879060 0.252714 -0.080113
C16   C     C_R   0.720393 0.379072 0.747287 -0.080112
C17   C     C_R   0.320373 0.883856 0.317483 -0.048851
C18   C     C_R   0.679628 0.383841 0.682517 -0.048851
C19   C     C_R   0.220677 0.910474 0.242220 0.108114
C20   C     C_R   0.779323 0.410469 0.757780 0.108114
C21   C     C_R   0.204119 0.947919 0.296667 0.040278
C22   C     C_R   0.795883 0.447868 0.703331 0.040276
C23   C     C_R   0.244372 0.951906 0.359163 -0.253333
C24   C     C_R   0.755631 0.451829 0.640834 -0.253328
C25   C     C_R   0.301367 0.920213 0.369814 0.587339
C26   C     C_R   0.698635 0.420155 0.630184 0.587338
C27   C     C_R   0.177332 0.907015 0.179771 -0.176715
C28   C     C_R   0.822666 0.407035 0.820230 -0.176714
C29   C     C_R   0.105788 0.980684 0.226897 -0.157023
C30   C     C_R   0.894214 0.480633 0.773102 -0.157024
C31   C     C_R   0.378883 0.850423 0.327718 -0.163150
C32   C     C_R   0.621117 0.350427 0.672282 -0.163149
H7    H     H_    0.186253 0.879655 0.135987 0.098716
H8    H     H_    0.813744 0.379709 0.864015 0.098715
H9    H     H_    0.439961 0.787463 0.281697 0.137988
H10   H     H_    0.560035 0.287526 0.718305 0.137988
H11   H     H_    0.271724 0.837911 0.150953 0.145899
H12   H     H_    0.728272 0.337987 0.849050 0.145901
C33   C     C_R   0.118506 0.763898 0.879638 -0.227794
C34   C     C_R   0.881485 0.263895 0.120351 -0.227795
H13   H     H_    0.101555 0.637035 0.891757 0.149657
H14   H     H_    0.898429 0.137030 0.108224 0.149656
C35   C     C_R   0.154172 0.751577 0.842886 0.652021
C36   C     C_R   0.845818 0.251574 0.157104 0.652027
C37   C     C_R   0.177307 0.912327 0.825365 -0.122122
C38   C     C_R   0.822693 0.412326 0.174634 -0.122123
C39   C     C_R   0.163598 0.084562 0.846074 -0.170708
C40   C     C_R   0.836411 0.584563 0.153935 -0.170719
H15   H     H_    0.180525 0.211141 0.833822 0.231693
H16   H     H_    0.819490 0.711144 0.166195 0.231705
C41   C     C_R   0.127786 0.096428 0.882801 -0.137743
C42   C     C_R   0.872222 0.596429 0.117208 -0.137743
H17   H     H_    0.118214 0.231709 0.897470 0.159850
H18   H     H_    0.881801 0.731712 0.102547 0.159850
C43   C     C_R   0.104621 0.936119 0.900068 -0.144946
C44   C     C_R   0.895379 0.436117 0.099931 -0.144946
N1    N     N_R   0.235942 0.058572 0.767719 -0.261269
N2    N     N_R   0.764064 0.558572 0.232287 -0.261270
N3    N     N_R   0.269656 0.049762 0.732302 -0.269110
N4    N     N_R   0.730350 0.549763 0.267703 -0.269110
C45   C     C_R   0.284231 0.884181 0.713245 0.499937
C46   C     C_R   0.715769 0.384182 0.286755 0.499938
N5    N     N_R   0.263545 0.727955 0.731279 -0.269866
N6    N     N_R   0.736450 0.227956 0.268715 -0.269866
N7    N     N_R   0.229848 0.736882 0.766659 -0.173229
N8    N     N_R   0.770146 0.236881 0.233335 -0.173228
C47   C     C_R   0.215206 0.902239 0.785765 0.561026
C48   C     C_R   0.784793 0.402239 0.214234 0.561028
C49   C     C_R   0.337600 0.702137 0.654844 -0.119299
C50   C     C_R   0.662397 0.202137 0.345154 -0.119302
H19   H     H_    0.322097 0.574438 0.668334 0.143936
H20   H     H_    0.677899 0.074438 0.331661 0.143935
C51   C     C_R   0.373612 0.692408 0.618361 -0.147945
C52   C     C_R   0.626386 0.192409 0.381636 -0.147934
H21   H     H_    0.384711 0.557502 0.605001 0.121978
H22   H     H_    0.615285 0.057501 0.394994 0.121975
C53   C     C_R   0.395170 0.854258 0.599816 -0.021698
C54   C     C_R   0.604830 0.354259 0.400184 -0.021688
C55   C     C_R   0.379329 0.026080 0.618543 -0.123663
C56   C     C_R   0.620674 0.526082 0.381459 -0.123672
H23   H     H_    0.394859 0.154046 0.605273 0.122814
H24   H     H_    0.605145 0.654048 0.394732 0.122812
C57   C     C_R   0.343336 0.035725 0.654997 -0.126453
C58   C     C_R   0.656667 0.535727 0.345005 -0.126451
H25   H     H_    0.332333 0.170532 0.668545 0.139230
H26   H     H_    0.667672 0.670534 0.331459 0.139230
C59   C     C_R   0.322078 0.873927 0.673843 0.025052
C60   C     C_R   0.677922 0.373929 0.326157 0.025052
O11   O     O_R   0.953220 0.285790 0.047790 -0.538424
O12   O     O_R   0.046780 0.785790 0.952210 -0.538424
O13   O     O_R   0.939020 0.617570 0.916840 -0.534171
O14   O     O_R   0.060980 0.117570 0.083160 -0.534172
C61   C     C_R   0.924017 0.448717 0.892536 0.681855
C62   C     C_R   0.075982 0.948717 0.107464 0.681853
O15   O     O_R   0.946600 0.615450 0.045180 -0.541278
O16   O     O_R   0.053400 0.115450 0.954820 -0.541278
O17   O     O_R   0.054370 0.786770 0.081410 -0.532100
O18   O     O_R   0.945630 0.286770 0.918590 -0.532099
C63   C     C_R   0.934297 0.446868 0.061696 0.713223
C64   C     C_R   0.065703 0.946869 0.938304 0.713225
O19   O     O_3   0.035300 0.454160 0.011680 -0.374356
O20   O     O_3   0.964700 0.954160 0.988320 -0.374356
V3    V     V_3+5 0.993450 0.728620 0.997830 1.427950
V4    V     V_3+5 0.006550 0.228620 0.002170 1.427950
F1    F     F_    0.165491 0.581377 0.824429 -0.683537
F2    F     F_    0.834490 0.081372 0.175550 -0.683542
F3    F     F_    0.374126 0.776246 0.161082 -0.649158
F4    F     F_    0.625868 0.276358 0.838922 -0.649153
F5    F     F_    0.337453 0.926375 0.432110 -0.715342
F6    F     F_    0.662551 0.426289 0.567887 -0.715350

loop_
_geom_bond_atom_site_label_1
_geom_bond_atom_site_label_2
_ccdc_geom_bond_type
C34   C36   A    
C40   H16   S    
C12   F4    S    
O17   V3    S    
C11   F3    S    
C9    C11   A    
O1    C3    A    
O12   V3    S    
O2    C4    A    
C2    O7    A    
C37   C39   A    
C4    C31   S    
O3    V1    S    
C21   C23   A    
H4    C24   S    
O5    C3    A    
C5    H5    S    
O18   V4    S    
C6    H6    S    
C20   C22   A    
N2    N4    A    
C49   C51   A    
O13   C61   A    
N4    C46   A    
C33   H13   S    
C27   H7    S    
C34   H14   S    
C46   C60   S    
C52   C54   A    
C45   C59   S    
C35   C37   A    
C5    C21   A    
C33   C43   A    
C41   H17   S    
C6    C22   A    
C36   C38   A    
C7    C62   S    
N5    N7    A    
C10   C32   A    
N1    C47   A    
C50   C52   A    
C39   H15   S    
C54   C56   A    
C42   C44   A    
C13   C15   A    
C41   C43   A    
C61   O18   A    
C17   C25   A    
C7    C29   A    
C8    C30   A    
O6    V2    S    
O5    V1    S    
C57   H25   S    
C9    H9    S    
C37   C47   S    
C23   C25   A    
C24   C26   A    
C38   C48   S    
C55   H23   S    
N3    C45   A    
C57   C59   A    
O12   C64   A    
C46   N6    A    
C25   F5    S    
C45   N5    A    
C10   H10   S    
C56   C58   A    
C15   C19   A    
C38   C40   A    
O4    V2    S    
C17   C31   A    
C51   H21   S    
C50   C60   A    
C49   C59   A    
O6    C4    A    
C52   H22   S    
O1    V2    S    
H2    C30   S    
C58   H26   S    
O2    V1    S    
N1    N3    A    
O16   C64   A    
O15   C63   A    
O4    C2    A    
N7    C47   A    
C50   H20   S    
N6    N8    A    
C49   H19   S    
H3    C23   S    
C18   C26   A    
C19   C27   A    
C7    C27   A    
C1    C54   S    
C18   C32   A    
O20   V3    S    
C34   C44   A    
O19   V4    S    
C44   C63   S    
C26   F6    S    
C43   C64   S    
C16   C20   A    
C36   F2    S    
C5    C29   A    
N8    C48   A    
O3    C1    A    
C6    C30   A    
C53   C55   A    
O9    V2    S    
C33   C35   A    
C56   H24   S    
C35   F1    S    
C10   C12   A    
O7    V1    S    
C1    O8    A    
C19   C21   A    
C3    C32   S    
O8    V2    S    
O14   V4    S    
C28   H8    S    
C12   C14   A    
O13   V3    S    
C40   C42   A    
C39   C41   A    
C22   C24   A    
C15   C17   A    
C14   H12   S    
C58   C60   A    
C16   C18   A    
O14   C62   A    
C20   C28   A    
C8    C28   A    
C51   C53   A    
O16   V4    S    
O15   V3    S    
C11   C13   A    
C2    C53   S    
H1    C29   S    
N2    C48   A    
O10   V1    S    
C42   H18   S    
O11   V4    S    
C13   H11   S    
C8    C61   S    
O11   C63   A    
C62   O17   A    
C55   C57   A    
C9    C31   A    
C14   C16   A    
