data_mof_unit_66365.cif
_audit_creation_date              2012-12-11T16:01:57-0500
_audit_creation_method            fapswitch 2.2
_symmetry_space_group_name_H-M    P1
_symmetry_Int_Tables_number       1
_space_group_crystal_system       triclinic
_cell_length_a                    6.965131
_cell_length_b                    20.13497
_cell_length_c                    21.715864
_cell_angle_alpha                 92.810457
_cell_angle_beta                  89.054225
_cell_angle_gamma                 90.618505
_cell_volume                      3041.2619367

loop_
_atom_site_label
_atom_site_type_symbol
_atom_type_description
_atom_site_fract_x
_atom_site_fract_y
_atom_site_fract_z
_atom_type_partial_charge
O1    O     O_R   0.616490 0.310280 0.688420 -0.519464
O2    O     O_R   0.383510 0.689720 0.311580 -0.519464
O3    O     O_R   0.286290 0.319340 0.804930 -0.522597
O4    O     O_R   0.713710 0.680660 0.195070 -0.522597
O5    O     O_R   0.115970 0.195830 0.805340 -0.529907
O6    O     O_R   0.884030 0.804170 0.194660 -0.529907
C1    C     C_R   0.454837 0.337124 0.827600 0.719435
C2    C     C_R   0.545163 0.662876 0.172400 0.719435
O7    O     O_R   0.286780 0.317900 0.688830 -0.520808
O8    O     O_R   0.713220 0.682100 0.311170 -0.520808
O9    O     O_R   0.116460 0.194390 0.688410 -0.520232
O10   O     O_R   0.883540 0.805610 0.311590 -0.520232
C3    C     C_R   0.457578 0.335678 0.666350 0.699926
C4    C     C_R   0.542422 0.664322 0.333650 0.699925
O11   O     O_R   0.616000 0.311730 0.805350 -0.519067
O12   O     O_R   0.384000 0.688270 0.194650 -0.519067
O13   O     O_3   0.449750 0.212530 0.746880 -0.353409
O14   O     O_3   0.550250 0.787470 0.253120 -0.353409
V1    V     V_3+5 0.174900 0.260570 0.746880 1.414130
V2    V     V_3+5 0.825100 0.739430 0.253120 1.414130
O15   O     O_R   0.786740 0.186770 0.688820 -0.522862
O16   O     O_R   0.213260 0.813230 0.311180 -0.522862
C5    C     C_R   0.956122 0.168648 0.666626 0.715983
C6    C     C_R   0.043878 0.831352 0.333374 0.715983
O17   O     O_R   0.786260 0.188210 0.804930 -0.532211
O18   O     O_R   0.213740 0.811790 0.195070 -0.532211
C7    C     C_R   0.953256 0.173343 0.824440 0.743794
C8    C     C_R   0.046744 0.826657 0.175560 0.743795
V3    V     V_3+5 0.674900 0.245540 0.746880 1.417177
V4    V     V_3+5 0.325100 0.754460 0.253120 1.417177
O19   O     O_3   0.949920 0.293580 0.746880 -0.357369
O20   O     O_3   0.050080 0.706420 0.253120 -0.357369
C9    C     C_3   0.990103 0.034014 0.055502 -0.241977
C10   C     C_3   0.009897 0.965986 0.944498 -0.241977
C11   C     C_3   0.834336 0.030022 0.006135 0.269380
C12   C     C_3   0.165664 0.969978 0.993865 0.269379
H1    H     H_    0.978698 0.060781 0.101315 0.127037
H2    H     H_    0.021302 0.939219 0.898684 0.127037
H3    H     H_    0.738378 0.916735 0.993996 0.145472
H4    H     H_    0.261622 0.083265 0.006004 0.145472
C13   C     C_1   0.959012 0.126663 0.869818 -0.194034
C14   C     C_1   0.040988 0.873337 0.130182 -0.194034
C15   C     C_3   0.144263 0.045590 0.004273 -0.168587
C16   C     C_3   0.855738 0.954410 0.995727 -0.168588
C17   C     C_3   0.984316 0.041501 0.955963 0.118591
C18   C     C_3   0.015684 0.958498 0.044037 0.118591
C19   C     C_1   0.967886 0.087685 0.908644 -0.028255
C20   C     C_1   0.032114 0.912315 0.091356 -0.028256
C21   C     C_1   0.032326 0.884045 0.384705 -0.212896
C22   C     C_1   0.967674 0.115955 0.615295 -0.212896
C23   C     C_1   0.020863 0.927345 0.427550 0.000940
C24   C     C_1   0.979137 0.072655 0.572450 0.000940
C25   C     C_1   0.006264 0.978462 0.478496 -0.000349
C26   C     C_1   0.993736 0.021538 0.521504 -0.000349
C27   C     C_1   0.465228 0.388484 0.880482 -0.217433
C28   C     C_1   0.534771 0.611516 0.119518 -0.217433
C29   C     C_1   0.477175 0.430225 0.924810 0.001684
C30   C     C_1   0.522825 0.569775 0.075190 0.001684
C31   C     C_1   0.493107 0.479348 0.977693 -0.002001
C32   C     C_1   0.506893 0.520652 0.022307 -0.002001
C33   C     C_1   0.471279 0.387134 0.614806 -0.208155
C34   C     C_1   0.528721 0.612866 0.385194 -0.208155
C35   C     C_1   0.482044 0.429045 0.572304 0.012027
C36   C     C_1   0.517956 0.570955 0.427696 0.012027
C37   C     C_1   0.494724 0.479106 0.521306 -0.003189
C38   C     C_1   0.505276 0.520894 0.478694 -0.003189
N1    N     N_3   0.651239 0.064077 0.011362 -0.667181
H5    H     H_    0.581964 0.048235 0.051176 0.239300
H6    H     H_    0.680711 0.114783 0.018990 0.217108
N2    N     N_3   0.348760 0.935923 0.988638 -0.667182
H7    H     H_    0.418033 0.951763 0.948823 0.239299
H8    H     H_    0.319288 0.885217 0.981011 0.217109

loop_
_geom_bond_atom_site_label_1
_geom_bond_atom_site_label_2
_ccdc_geom_bond_type
C35   C37   S    
O13   V3    S    
C1    C27   S    
O4    C2    A    
V1    O19   S    
C2    C28   S    
C25   C26   T    
O9    V1    S    
O3    C1    A    
C29   C31   S    
O12   V4    S    
C4    C34   S    
C8    C14   S    
C33   C35   T    
O7    C3    A    
C34   C36   T    
C9    C11   S    
O5    C7    A    
O7    V1    S    
H4    C15   S    
O6    C8    A    
O8    V2    S    
C21   C23   T    
C22   C24   T    
C12   C18   S    
N2    H7    S    
O14   V4    S    
C10   C12   S    
C24   C26   S    
C1    O11   A    
C31   C32   T    
C2    O12   A    
C9    C18   S    
C12   N2    S    
O11   V3    S    
C17   C19   S    
O17   V3    S    
C18   C20   S    
N1    H5    S    
C9    C15   S    
C10   C16   S    
O8    C4    A    
C5    C22   S    
C16   C18   S    
O15   V3    S    
C9    H1    S    
N1    H6    S    
C36   C38   S    
C7    C13   S    
C11   N1    S    
O10   V2    S    
O1    V3    S    
C13   C19   T    
C10   C17   S    
C14   C20   T    
O3    V1    S    
C11   C16   S    
C15   C17   S    
O18   V4    S    
C27   C29   T    
O16   C6    A    
O1    C3    A    
C11   C17   S    
V2    O20   S    
C6    C21   S    
O16   V4    S    
C10   H2    S    
H3    C16   S    
O5    V1    S    
O17   C7    A    
O6    V2    S    
O10   C6    A    
O18   C8    A    
O2    V4    S    
O15   C5    A    
V3    O19   S    
V4    O20   S    
O9    C5    A    
O13   V1    S    
C28   C30   T    
O14   V2    S    
O2    C4    A    
O4    V2    S    
C3    C33   S    
C37   C38   T    
C12   C15   S    
N2    H8    S    
C23   C25   S    
C30   C32   S    
