data_mof_unit_14015.cif
_audit_creation_date              2012-12-10T20:45:33-0500
_audit_creation_method            fapswitch 2.2
_symmetry_space_group_name_H-M    P1
_symmetry_Int_Tables_number       1
_space_group_crystal_system       triclinic
_cell_length_a                    10.708642
_cell_length_b                    10.693789
_cell_length_c                    9.906818
_cell_angle_alpha                 88.780061
_cell_angle_beta                  89.616108
_cell_angle_gamma                 90.974221
_cell_volume                      1134.03934657

loop_
_atom_site_label
_atom_site_type_symbol
_atom_type_description
_atom_site_fract_x
_atom_site_fract_y
_atom_site_fract_z
_atom_type_partial_charge
C1    C     C_R   0.503815 0.260359 0.501098 0.865597
C2    C     C_R   0.232909 0.784284 0.071486 -0.082126
C3    C     C_R   0.934871 0.551708 0.392726 -0.235079
C4    C     C_R   0.872460 0.492576 0.500928 -0.090989
C5    C     C_R   0.937601 0.440646 0.611278 -0.009861
C6    C     C_R   0.065832 0.448751 0.609278 -0.220975
C7    C     C_R   0.128006 0.508257 0.500812 -0.059362
C8    C     C_R   0.062888 0.563554 0.392387 -0.014372
C9    C     C_R   0.880061 0.432209 0.856400 -0.141520
C10   C     C_R   0.819192 0.374412 0.967024 -0.148737
C11   C     C_R   0.755375 0.260558 0.951540 -0.120518
C12   C     C_R   0.260453 0.503934 0.500160 0.878996
C13   C     C_R   0.752312 0.204375 0.825437 -0.114625
C14   C     C_R   0.811713 0.262587 0.714067 -0.116666
C15   C     C_R   0.875917 0.377048 0.728959 0.142131
C16   C     C_R   0.512583 0.061444 0.623822 0.101841
C17   C     C_R   0.521515 0.129349 0.502838 -0.060936
C18   C     C_R   0.547906 0.068424 0.382079 -0.233445
C19   C     C_R   0.543838 0.939372 0.380629 -0.211861
C20   C     C_R   0.514202 0.872188 0.499288 -0.095767
C21   C     C_R   0.505972 0.934053 0.621254 0.070971
C22   C     C_3   0.409771 0.925752 0.731818 -0.217155
C23   C     C_R   0.501196 0.739965 0.499064 0.887509
C24   C     C_3   0.419428 0.067902 0.736560 -0.542900
C25   C     C_R   0.450365 0.400866 0.074083 0.176441
C26   C     C_R   0.559191 0.593349 0.066115 -0.010759
C27   C     C_R   0.558380 0.591815 0.923116 -0.147026
C28   C     C_R   0.448800 0.401815 0.931834 0.228414
C29   C     C_3   0.315568 0.358602 0.930668 -0.517750
C30   C     C_3   0.319051 0.353715 0.083779 -0.481987
C31   C     C_R   0.739681 0.495595 0.500175 0.886347
C32   C     C_R   0.259357 0.811265 0.205623 -0.132739
C33   C     C_R   0.204856 0.739120 0.310217 -0.085313
C34   C     C_R   0.123322 0.638985 0.281326 0.135097
C35   C     C_R   0.095667 0.613944 0.145891 -0.207928
C36   C     C_R   0.151135 0.685644 0.041587 -0.113325
H1    H     H_    0.275190 0.840541 0.991078 0.149344
H2    H     H_    0.708373 0.215824 0.037245 0.122223
H3    H     H_    0.704010 0.115614 0.814160 0.139685
H4    H     H_    0.807739 0.218775 0.616559 0.110112
H5    H     H_    0.563252 0.119532 0.287632 0.165459
H6    H     H_    0.555599 0.893415 0.286059 0.195702
H7    H     H_    0.445999 0.877566 0.823764 0.169176
H8    H     H_    0.333906 0.118703 0.706554 0.232113
H9    H     H_    0.463111 0.101404 0.830918 0.190505
H10   H     H_    0.321625 0.888490 0.228477 0.146192
H11   H     H_    0.604945 0.665191 0.863851 0.184347
H12   H     H_    0.252267 0.431408 0.890040 0.219494
H13   H     H_    0.303287 0.265017 0.886147 0.196931
H14   H     H_    0.255826 0.420845 0.131850 0.232509
H15   H     H_    0.313215 0.256932 0.126853 0.201356
H16   H     H_    0.226405 0.760874 0.413574 0.129361
H17   H     H_    0.032799 0.537591 0.121062 0.129411
H18   H     H_    0.130267 0.664660 0.937754 0.178358
H19   H     H_    0.883655 0.594384 0.310779 0.211436
H20   H     H_    0.117257 0.405283 0.691184 0.154019
H21   H     H_    0.928740 0.520720 0.869380 0.126596
H22   H     H_    0.821193 0.418001 0.064651 0.138389
N1    N     N_R   0.499160 0.499140 0.142800 -0.139575
N2    N     N_R   0.499160 0.499180 0.857150 -0.109415
O1    O     O_R   0.500020 0.316790 0.614690 -0.617688
O2    O     O_R   0.500000 0.316760 0.385350 -0.631087
O3    O     O_R   0.316770 0.500030 0.614670 -0.599518
O4    O     O_R   0.316750 0.499990 0.385330 -0.623803
O5    O     O_R   0.500000 0.683240 0.614650 -0.615461
O6    O     O_R   0.499980 0.683210 0.385310 -0.597702
O7    O     O_R   0.683250 0.500010 0.614670 -0.616238
O8    O     O_R   0.683230 0.499970 0.385330 -0.584509
Zn1   Zn    Zn3+2 0.500010 0.500020 0.653130 0.977275
Zn2   Zn    Zn3+2 0.499990 0.499980 0.346870 0.976043
C37   C     C_2   0.284345 0.876927 0.685348 0.917264
O9    O     O_2   0.245073 0.775771 0.728445 -0.663492
O10   O     O_R   0.214259 0.945812 0.592079 -0.818268
H23   H     H_    0.130977 0.904102 0.571718 0.334865
C38   C     C_2   0.627069 0.700823 0.123719 0.891002
O11   O     O_2   0.691798 0.687845 0.223187 -0.624847
O12   O     O_R   0.626591 0.816522 0.054793 -0.869201
H24   H     H_    0.685430 0.880526 0.095450 0.332013

loop_
_geom_bond_atom_site_label_1
_geom_bond_atom_site_label_2
_ccdc_geom_bond_type
C30   H15   S    
C16   C21   A    
C35   H17   S    
O10   H23   S    
C35   C36   A    
C1    O2    A    
C7    C8    A    
C29   H13   S    
O12   H24   S    
C33   H16   S    
C31   O7    A    
C26   C27   A    
C24   H9    S    
C23   O6    A    
C28   C29   S    
C10   H22   S    
C34   C35   A    
C27   N2    A    
C5    C6    A    
C12   O4    A    
C2    C36   A    
O2    Zn2   S    
C2    C32   A    
C18   C19   A    
C3    H19   S    
C19   C20   A    
C16   C17   A    
O4    Zn2   S    
C9    C10   A    
C19   H6    S    
C30   H14   S    
C16   C24   S    
C21   C22   S    
C7    C12   S    
C26   C38   S    
C28   N2    A    
C31   O8    A    
C5    C15   S    
C29   H12   S    
O3    Zn1   S    
C3    C8    A    
C18   H5    S    
C37   O10   S    
C12   O3    A    
C25   C28   A    
C11   H2    S    
C38   O11   D    
C29   C30   S    
C22   H7    S    
C20   C23   S    
C17   C18   A    
C8    C34   S    
C38   O12   S    
C24   H8    S    
C22   C24   S    
C3    C4    A    
C22   C37   S    
C26   N1    A    
C27   H11   S    
C25   C30   S    
C32   H10   S    
C6    H20   S    
C4    C5    A    
C1    O1    A    
C6    C7    A    
C1    C17   S    
O1    Zn1   S    
C32   C33   A    
C23   O5    A    
C9    C15   A    
C37   O9    D    
C11   C13   A    
C2    H1    S    
O6    Zn2   S    
N2    Zn1   S    
O5    Zn1   S    
C33   C34   A    
C9    H21   S    
C13   H3    S    
C4    C31   S    
C36   H18   S    
C10   C11   A    
N1    Zn2   S    
C14   H4    S    
C20   C21   A    
O8    Zn2   S    
C14   C15   A    
C25   N1    A    
O7    Zn1   S    
C13   C14   A    
