data_mof_unit_48534.cif
_audit_creation_date              2012-12-10T17:02:15-0500
_audit_creation_method            fapswitch 2.2
_symmetry_space_group_name_H-M    P1
_symmetry_Int_Tables_number       1
_space_group_crystal_system       triclinic
_cell_length_a                    10.731999
_cell_length_b                    10.738329
_cell_length_c                    10.022091
_cell_angle_alpha                 87.544173
_cell_angle_beta                  91.999638
_cell_angle_gamma                 91.26363
_cell_volume                      1152.97528118

loop_
_atom_site_label
_atom_site_type_symbol
_atom_type_description
_atom_site_fract_x
_atom_site_fract_y
_atom_site_fract_z
_atom_type_partial_charge
C1    C     C_R   0.494801 0.262152 0.502869 0.968785
C2    C     C_2   0.469205 0.130684 0.512256 -0.018794
C3    C     C_2   0.552309 0.587159 0.924946 -0.093942
C4    C     C_R   0.259726 0.494023 0.497714 0.936296
C5    C     C_2   0.567830 0.576990 0.074714 0.017320
C6    C     C_R   0.501938 0.737070 0.496874 0.948469
C7    C     C_R   0.740302 0.507794 0.503036 0.880614
C8    C     C_R   0.117523 0.348493 0.702574 0.034243
C9    C     C_R   0.073077 0.341199 0.833320 -0.049535
C10   C     C_R   0.967748 0.409814 0.863132 0.000097
C11   C     C_R   0.901701 0.472628 0.758091 -0.145721
C12   C     C_R   0.063603 0.433883 0.605969 0.019463
C13   C     C_R   0.944214 0.475604 0.625809 0.011741
C14   C     C_2   0.501837 0.374273 0.900284 0.581059
C15   C     C_2   0.206209 0.253992 0.663392 0.405377
C16   C     C_2   0.923188 0.412023 0.001791 0.408295
C17   C     C_R   0.125846 0.483514 0.492506 -0.064378
C18   C     C_R   0.059592 0.543725 0.385435 0.073275
C19   C     C_R   0.932626 0.553653 0.392802 -0.236090
C20   C     C_R   0.874062 0.518298 0.510878 -0.126546
C21   C     C_2   0.438443 0.934563 0.401043 0.120461
C22   C     C_2   0.511780 0.868516 0.486792 -0.338904
C23   C     C_2   0.451225 0.068914 0.399047 -0.209603
H1    H     H_    0.584308 0.673172 0.875454 0.138611
H2    H     H_    0.528887 0.048341 0.691131 0.183858
H3    H     H_    0.379776 0.002901 0.640405 0.218055
H4    H     H_    0.424353 0.312948 0.873480 0.010801
H5    H     H_    0.265871 0.207136 0.738106 0.101449
H6    H     H_    0.071003 0.197865 0.972021 0.195108
H7    H     H_    0.168968 0.319111 0.010576 0.172734
H8    H     H_    0.967446 0.356592 0.082236 0.065999
H9    H     H_    0.261605 0.910120 0.330121 0.191411
H10   H     H_    0.371358 0.904499 0.214032 0.183167
H11   H     H_    0.634941 0.638706 0.123230 0.146950
H12   H     H_    0.424356 0.460006 0.103011 0.149027
H13   H     H_    0.822028 0.525184 0.783304 0.211963
H14   H     H_    0.880201 0.592056 0.306712 0.185796
H15   H     H_    0.583248 0.911652 0.549529 0.117518
H16   H     H_    0.450746 0.117032 0.301411 0.169999
H17   H     H_    0.082331 0.554235 0.185561 0.187316
H18   H     H_    0.101242 0.691377 0.261477 0.183995
N1    N     N_2   0.501340 0.501330 0.852150 -0.178913
N2    N     N_2   0.501380 0.501360 0.147810 -0.174102
N3    N     N_3   0.120498 0.596278 0.270232 -0.426705
N4    N     N_3   0.445360 0.076238 0.643519 -0.459296
N5    N     N_3   0.135301 0.263391 0.933676 -0.507973
N6    N     N_3   0.349673 0.876208 0.311750 -0.423168
O1    O     O_R   0.499980 0.319060 0.613040 -0.629414
O2    O     O_2   0.208049 0.222525 0.547851 -0.608901
O3    O     O_2   0.836583 0.477246 0.028716 -0.572128
O4    O     O_R   0.500020 0.319100 0.386900 -0.617189
O5    O     O_R   0.316750 0.499980 0.613090 -0.652282
O6    O     O_R   0.316790 0.500020 0.386950 -0.590819
O7    O     O_R   0.499980 0.680900 0.613100 -0.637336
O8    O     O_R   0.500020 0.680940 0.386960 -0.600563
O9    O     O_R   0.683210 0.499980 0.613050 -0.634366
O10   O     O_R   0.683250 0.500020 0.386910 -0.597448
O11   O     O_2   0.591777 0.331071 0.963042 -0.560364
Zn1   Zn    Zn3+2 0.499970 0.499970 0.650990 0.948592
Zn2   Zn    Zn3+2 0.500030 0.500030 0.349010 0.986638

loop_
_geom_bond_atom_site_label_1
_geom_bond_atom_site_label_2
_ccdc_geom_bond_type
N1    Zn1   S    
C12   C17   A    
C3    N1    D    
O5    Zn1   S    
C18   N3    S    
C14   H4    S    
H12   N2    S    
C9    C10   A    
H6    N5    S    
H17   N3    S    
C19   C20   A    
C13   C20   A    
O9    Zn1   S    
C8    C12   A    
C6    O8    A    
C14   N1    S    
C5    H11   S    
C21   C23   S    
C17   C18   A    
C15   H5    S    
C9    N5    S    
C1    O1    A    
C10   C16   S    
C21   C22   D    
C16   H8    S    
C7    O10   A    
C1    O4    A    
C3    H1    S    
C7    O9    A    
C6    O7    A    
H10   N6    S    
C4    C17   S    
N2    Zn2   S    
C11   H13   S    
H18   N3    S    
O6    Zn2   S    
C4    O5    A    
C1    C2    S    
C8    C15   S    
O7    Zn1   S    
C15   O2    D    
C2    N4    S    
C5    N2    D    
C4    O6    A    
H9    N6    S    
C23   H16   S    
C10   C11   A    
C22   H15   S    
H2    N4    S    
C11   C13   A    
C12   C13   A    
O1    Zn1   S    
C7    C20   S    
C2    C23   D    
C18   C19   A    
O10   Zn2   S    
O4    Zn2   S    
C19   H14   S    
H3    N4    S    
C21   N6    S    
O8    Zn2   S    
H7    N5    S    
C14   O11   D    
C16   O3    D    
C8    C9    A    
C3    C5    S    
C6    C22   S    
