data_mof_unit_11239.cif
_audit_creation_date              2012-12-10T17:21:41-0500
_audit_creation_method            fapswitch 2.2
_symmetry_space_group_name_H-M    P1
_symmetry_Int_Tables_number       1
_space_group_crystal_system       triclinic
_cell_length_a                    10.992591
_cell_length_b                    11.022641
_cell_length_c                    9.700432
_cell_angle_alpha                 89.96158
_cell_angle_beta                  90.404766
_cell_angle_gamma                 94.74934
_cell_volume                      1171.31103348

loop_
_atom_site_label
_atom_site_type_symbol
_atom_type_description
_atom_site_fract_x
_atom_site_fract_y
_atom_site_fract_z
_atom_type_partial_charge
C1    C     C_R   0.500948 0.261955 0.500769 0.792022
C2    C     C_R   0.520835 0.060840 0.627947 -0.010108
C3    C     C_R   0.495844 0.125953 0.504217 -0.099813
C4    C     C_R   0.260551 0.494484 0.499515 0.775058
C5    C     C_R   0.450385 0.058149 0.387736 0.139855
C6    C     C_R   0.447781 0.930987 0.388205 -0.295191
C7    C     C_R   0.472223 0.867945 0.508590 -0.132245
C8    C     C_R   0.669570 0.676590 0.130135 0.205950
C9    C     C_R   0.752633 0.745248 0.046710 -0.264814
C10   C     C_R   0.743371 0.743130 0.907572 -0.306515
C11   C     C_R   0.655165 0.666382 0.847375 -0.142082
C12   C     C_3   0.882212 0.502208 0.500650 -0.003825
C13   C     C_R   0.574220 0.586268 0.922850 0.159994
C14   C     C_R   0.577302 0.587954 0.072329 0.191793
C15   C     C_R   0.440581 0.409975 0.072934 -0.104854
C16   C     C_R   0.489075 0.735850 0.501389 0.800382
C17   C     C_R   0.438484 0.411331 0.926040 -0.080359
C18   C     C_R   0.741375 0.502834 0.500531 0.749731
C19   C     C_3   0.066876 0.418908 0.620861 -0.522215
C20   C     C_3   0.931248 0.445225 0.637572 -0.009237
C21   C     C_3   0.089175 0.627488 0.509134 -0.350212
C22   C     C_3   0.066348 0.435010 0.364576 0.378638
C23   C     C_3   0.950082 0.632426 0.487268 -0.399478
C24   C     C_3   0.123756 0.494084 0.498392 0.013665
C25   C     C_3   0.814711 0.379846 0.167969 0.089702
C26   C     C_3   0.829016 0.420652 0.019276 -0.341499
C27   C     C_3   0.740763 0.351059 0.922514 -0.859545
C28   C     C_3   0.721545 0.062250 0.048393 0.005478
C29   C     C_3   0.712252 0.059603 0.205571 -0.321843
C30   C     C_3   0.832206 0.036048 0.277585 -0.978887
C31   C     C_3   0.141062 0.452605 0.127948 0.143098
C32   C     C_3   0.127612 0.311439 0.116362 -0.441324
C33   C     C_3   0.134752 0.267257 0.967454 -0.939430
C34   C     C_3   0.923585 0.425135 0.375224 0.294741
C35   C     C_R   0.575608 0.116095 0.747712 -0.253548
C36   C     C_R   0.575744 0.054119 0.874387 0.482769
C37   C     C_R   0.513488 0.939362 0.883938 -0.225307
C38   C     C_R   0.469699 0.879996 0.765327 -0.223288
C39   C     C_R   0.487515 0.934337 0.633861 0.101831
Cu1   Cu    Cu3+1 0.499990 0.499990 0.640660 0.904831
Cu2   Cu    Cu3+1 0.500010 0.500010 0.359340 0.963149
H1    H     H_    0.118450 0.439469 0.717981 0.218956
H2    H     H_    0.826893 0.802638 0.091740 0.153661
H3    H     H_    0.807680 0.798879 0.845381 0.154951
H4    H     H_    0.663022 0.666955 0.739568 0.219008
H5    H     H_    0.391424 0.336120 0.871142 0.158823
H6    H     H_    0.877156 0.357378 0.657978 0.145949
H7    H     H_    0.117940 0.666964 0.610711 0.158021
H8    H     H_    0.913510 0.698489 0.559358 0.140476
H9    H     H_    0.098487 0.342445 0.361257 -0.017157
H10   H     H_    0.890642 0.328199 0.395950 -0.033936
H11   H     H_    0.716651 0.369256 0.194741 0.196763
H12   H     H_    0.139456 0.685520 0.430628 0.183505
H13   H     H_    0.850357 0.289778 0.178481 0.109384
H14   H     H_    0.816959 0.518735 0.011659 0.259081
H15   H     H_    0.921539 0.406784 0.984544 0.239025
H16   H     H_    0.653083 0.326621 0.973635 0.296607
H17   H     H_    0.782423 0.270602 0.881943 0.238852
H18   H     H_    0.721208 0.407665 0.833514 0.291374
H19   H     H_    0.313090 0.086920 0.255701 0.204331
H20   H     H_    0.451499 0.089908 0.182016 0.251494
H21   H     H_    0.805589 0.118238 0.018987 0.161957
H22   H     H_    0.732530 0.969766 0.010335 0.152539
H23   H     H_    0.941738 0.668757 0.382513 0.207638
H24   H     H_    0.682386 0.147412 0.243210 0.232751
H25   H     H_    0.642014 0.986801 0.234011 0.215998
H26   H     H_    0.857872 0.943105 0.255917 0.250190
H27   H     H_    0.821207 0.044942 0.390786 0.254458
H28   H     H_    0.907617 0.102228 0.244177 0.247393
H29   H     H_    0.780020 0.689814 0.292206 0.214621
H30   H     H_    0.678911 0.792803 0.288787 0.194185
H31   H     H_    0.999504 0.582626 0.776334 0.227912
H32   H     H_    0.851585 0.581807 0.745818 0.243431
H33   H     H_    0.237007 0.485263 0.111832 0.158012
H34   H     H_    0.621524 0.205537 0.743599 0.178208
H35   H     H_    0.094320 0.493633 0.040394 0.152125
H36   H     H_    0.200604 0.273171 0.178088 0.208368
H37   H     H_    0.040190 0.272075 0.157414 0.207993
H38   H     H_    0.172419 0.176853 0.965131 0.259781
H39   H     H_    0.192943 0.331943 0.904713 0.248555
H40   H     H_    0.042632 0.257566 0.919214 0.255385
H41   H     H_    0.500573 0.895433 0.983324 0.145121
H42   H     H_    0.417447 0.793704 0.779661 0.185098
H43   H     H_    0.424555 0.881446 0.293868 0.162421
H44   H     H_    0.393686 0.334580 0.126414 0.176096
H45   H     H_    0.072811 0.319910 0.602324 0.135692
N1    N     N_R   0.501200 0.501210 0.147910 -0.204298
N2    N     N_R   0.501250 0.501290 0.852040 -0.209337
N3    N     N_3   0.405085 0.117357 0.268592 -0.592186
N4    N     N_3   0.689627 0.700801 0.271245 -0.490504
N5    N     N_3   0.920966 0.524736 0.758450 -0.594145
O1    O     O_R   0.499990 0.319640 0.618810 -0.597589
O2    O     O_3   0.618032 0.114105 0.992700 -0.645229
O3    O     O_3   0.103490 0.509992 0.250272 -0.576270
O4    O     O_R   0.500000 0.319660 0.381240 -0.562659
O5    O     O_R   0.317680 0.499970 0.618790 -0.594862
O6    O     O_R   0.317700 0.499990 0.381210 -0.560069
O7    O     O_R   0.500000 0.680340 0.618760 -0.617937
O8    O     O_R   0.500010 0.680360 0.381190 -0.554536
O9    O     O_R   0.682300 0.500010 0.618790 -0.632250
O10   O     O_R   0.682320 0.500030 0.381210 -0.529082
O11   O     O_3   0.875708 0.470966 0.251168 -0.571206

loop_
_geom_bond_atom_site_label_1
_geom_bond_atom_site_label_2
_ccdc_geom_bond_type
C2    C35   A    
C38   H42   S    
C17   N2    A    
C35   C36   A    
C19   H45   S    
C26   H14   S    
Cu2   O4    S    
H19   N3    S    
C12   C23   S    
C35   H34   S    
C34   H10   S    
C37   C38   A    
C28   C29   S    
C14   N1    A    
Cu1   O7    S    
C38   C39   A    
C4    C24   S    
C25   O11   S    
C23   H8    S    
C32   H36   S    
C4    O5    A    
C2    C39   A    
C19   C20   S    
C8    C9    A    
Cu2   O8    S    
C9    C10   A    
C30   H26   S    
C19   H1    S    
C15   H44   S    
C21   H7    S    
C13   C14   A    
C22   O3    S    
H29   N4    S    
C18   O9    A    
Cu1   O5    S    
Cu2   N1    S    
C36   O2    S    
H20   N3    S    
C22   C34   S    
C20   N5    S    
C9    H2    S    
C6    H43   S    
C10   H3    S    
C23   H23   S    
C25   H13   S    
H32   N5    S    
C27   H16   S    
H31   N5    S    
C33   H38   S    
C31   H33   S    
C25   C26   S    
C28   O2    S    
C1    C3    S    
C18   O10   A    
C29   C30   S    
C31   C32   S    
C1    O4    A    
C12   C20   S    
C26   C27   S    
C33   H39   S    
C34   O11   S    
Cu1   O1    S    
C29   H24   S    
C7    C16   S    
C1    O1    A    
C21   C23   S    
C22   C24   S    
C37   H41   S    
C11   H4    S    
C8    N4    S    
C12   C34   S    
C30   H28   S    
C15   N1    A    
C15   C17   A    
Cu1   Cu2   S    
C8    C14   A    
C3    C5    A    
C27   H17   S    
C26   H15   S    
Cu1   O9    S    
C17   H5    S    
C16   O8    A    
C6    C7    A    
C31   O3    S    
C22   H9    S    
C32   C33   S    
Cu1   N2    S    
C2    C3    A    
C25   H11   S    
C27   H18   S    
C21   H12   S    
C11   C13   A    
C16   O7    A    
C31   H35   S    
C5    C6    A    
H30   N4    S    
C13   N2    A    
Cu2   O10   S    
C19   C24   S    
Cu2   O6    S    
C5    N3    S    
C20   H6    S    
C10   C11   A    
C32   H37   S    
C29   H25   S    
C28   H22   S    
C36   C37   A    
C21   C24   S    
C12   C18   S    
C7    C39   A    
C4    O6    A    
C33   H40   S    
C30   H27   S    
C28   H21   S    
