data_mof_unit_54280.cif
_audit_creation_date              2012-12-10T18:43:42-0500
_audit_creation_method            fapswitch 2.2
_symmetry_space_group_name_H-M    P1
_symmetry_Int_Tables_number       1
_space_group_crystal_system       triclinic
_cell_length_a                    10.884654
_cell_length_b                    10.651162
_cell_length_c                    10.011425
_cell_angle_alpha                 89.550465
_cell_angle_beta                  104.693173
_cell_angle_gamma                 93.695857
_cell_volume                      1120.33213585

loop_
_atom_site_label
_atom_site_type_symbol
_atom_type_description
_atom_site_fract_x
_atom_site_fract_y
_atom_site_fract_z
_atom_type_partial_charge
C1    C     C_R   0.501940 0.260852 0.501173 0.873711
C2    C     C_R   0.498060 0.739148 0.498827 0.873711
C3    C     C_R   0.260127 0.502942 0.441400 0.946446
C4    C     C_R   0.739873 0.497058 0.558600 0.946446
C5    C     C_R   0.582200 0.581017 0.093460 0.198623
C6    C     C_R   0.417800 0.418983 0.906540 0.198623
C7    C     C_R   0.582476 0.580505 0.950252 0.210614
C8    C     C_R   0.417524 0.419495 0.049748 0.210615
C9    C     C_2   0.123403 0.495613 0.407268 -0.418150
C10   C     C_2   0.876597 0.504387 0.592732 -0.418150
C11   C     C_2   0.064346 0.527518 0.503274 0.195027
C12   C     C_2   0.935654 0.472482 0.496726 0.195027
C13   C     C_R   0.416377 0.062685 0.395525 -0.247383
C14   C     C_R   0.583623 0.937315 0.604474 -0.247383
C15   C     C_R   0.412092 0.933150 0.391058 0.194472
C16   C     C_R   0.587908 0.066850 0.608941 0.194472
C17   C     C_R   0.497098 0.871785 0.497040 -0.061176
C18   C     C_R   0.502902 0.128215 0.502960 -0.061176
H1    H     H_    0.924706 0.555088 0.686716 0.124888
H2    H     H_    0.075294 0.444912 0.313284 0.124888
H3    H     H_    0.351245 0.113030 0.316281 0.147188
H4    H     H_    0.648755 0.886970 0.683719 0.147188
N1    N     N_R   0.499970 0.499970 0.857200 -0.114728
N2    N     N_R   0.500030 0.500030 0.142800 -0.114728
O1    O     O_R   0.499990 0.316750 0.614620 -0.627832
O2    O     O_R   0.500010 0.683250 0.385380 -0.627832
O3    O     O_R   0.499990 0.316780 0.385290 -0.618746
O4    O     O_R   0.500010 0.683220 0.614710 -0.618746
O5    O     O_R   0.317810 0.500000 0.571850 -0.588905
O6    O     O_R   0.682190 0.500000 0.428150 -0.588905
O7    O     O_R   0.317810 0.500030 0.342520 -0.633502
O8    O     O_R   0.682190 0.499970 0.657480 -0.633502
Zn1   Zn    Zn3+2 0.500000 0.499980 0.653120 0.930799
Zn2   Zn    Zn3+2 0.500000 0.500020 0.346880 0.930799
N3    N     N_2   0.871049 0.388936 0.386093 -0.266891
H5    H     H_    0.871510 0.418843 0.288077 0.222841
C19   C     C_3   0.894484 0.257695 0.410809 -0.779145
H6    H     H_    0.833184 0.199744 0.324712 0.241280
H7    H     H_    0.871129 0.227097 0.508283 0.243520
H8    H     H_    0.995768 0.242003 0.417405 0.225472
N4    N     N_2   0.128951 0.611063 0.613907 -0.266891
H9    H     H_    0.128490 0.581157 0.711923 0.222841
C20   C     C_3   0.105516 0.742305 0.589191 -0.779146
H10   H     H_    0.166816 0.800256 0.675288 0.241280
H11   H     H_    0.004232 0.757997 0.582595 0.225472
H12   H     H_    0.128871 0.772903 0.491718 0.243520
C21   C     C_3   0.675032 0.673389 0.188429 -0.819495
H13   H     H_    0.774222 0.652389 0.191330 0.210771
H14   H     H_    0.658072 0.770959 0.152140 0.214276
H15   H     H_    0.668899 0.673290 0.294772 0.287068
C22   C     C_3   0.324968 0.326611 0.811570 -0.819495
H16   H     H_    0.225778 0.347610 0.808670 0.210771
H17   H     H_    0.331101 0.326710 0.705228 0.287068
H18   H     H_    0.341928 0.229041 0.847860 0.214276
C23   C     C_3   0.676091 0.670989 0.904070 -0.843061
H19   H     H_    0.673437 0.664278 0.795384 0.285250
H20   H     H_    0.656477 0.769435 0.922522 0.216213
H21   H     H_    0.774891 0.652965 0.960818 0.211911
C24   C     C_3   0.323909 0.329011 0.095930 -0.843061
H22   H     H_    0.326563 0.335722 0.204616 0.285250
H23   H     H_    0.225109 0.347035 0.039182 0.211911
H24   H     H_    0.343523 0.230565 0.077478 0.216212
C25   C     C_3   0.315335 0.863371 0.276169 -0.877725
H25   H     H_    0.259255 0.790712 0.319850 0.230855
H26   H     H_    0.247571 0.927556 0.212852 0.222642
H27   H     H_    0.364135 0.817920 0.206364 0.262870
C26   C     C_3   0.684665 0.136629 0.723831 -0.877725
H28   H     H_    0.740745 0.209288 0.680150 0.230855
H29   H     H_    0.635865 0.182080 0.793636 0.262870
H30   H     H_    0.752429 0.072444 0.787148 0.222642

loop_
_geom_bond_atom_site_label_1
_geom_bond_atom_site_label_2
_ccdc_geom_bond_type
C1    O1    A    
C11   C12   S    
C25   H26   S    
C15   C17   A    
C19   H6    S    
C3    C9    S    
C6    C22   S    
C19   H8    S    
N4    C20   S    
N4    H9    S    
C9    H2    S    
C21   H13   S    
C7    C23   S    
C10   H1    S    
C23   H19   S    
C22   H18   S    
O8    Zn1   S    
C26   H30   S    
C23   H20   S    
O7    Zn2   S    
C13   H3    S    
C24   H22   S    
C2    O2    A    
C16   C26   S    
C2    C17   S    
C3    O7    A    
C20   H11   S    
C9    C11   D    
C14   C17   A    
C14   H4    S    
C1    C18   S    
C4    O8    A    
C5    N2    A    
C10   C12   D    
C13   C18   A    
C20   H10   S    
C7    N1    A    
C6    N1    A    
C16   C18   A    
N3    C19   S    
O4    Zn1   S    
C11   N4    S    
C21   H15   S    
C5    C7    A    
C13   C15   A    
O3    Zn2   S    
C19   H7    S    
C20   H12   S    
C14   C16   A    
C25   H27   S    
C24   H23   S    
O6    Zn2   S    
C26   H29   S    
C4    C10   S    
C22   H16   S    
C5    C21   S    
O5    Zn1   S    
C3    O5    A    
C22   H17   S    
N1    Zn1   S    
C21   H14   S    
C23   H21   S    
C8    C24   S    
C1    O3    A    
C15   C25   S    
C2    O4    A    
C24   H24   S    
C6    C8    A    
C8    N2    A    
O2    Zn2   S    
C4    O6    A    
C26   H28   S    
O1    Zn1   S    
C25   H25   S    
C12   N3    S    
N3    H5    S    
N2    Zn2   S    
