data_mof_unit_52547.cif
_audit_creation_date              2012-12-10T22:10:06-0500
_audit_creation_method            fapswitch 2.2
_symmetry_space_group_name_H-M    P1
_symmetry_Int_Tables_number       1
_space_group_crystal_system       triclinic
_cell_length_a                    16.434353
_cell_length_b                    16.556338
_cell_length_c                    28.518812
_cell_angle_alpha                 90.982966
_cell_angle_beta                  90.595333
_cell_angle_gamma                 89.822724
_cell_volume                      7758.16690511

loop_
_atom_site_label
_atom_site_type_symbol
_atom_type_description
_atom_site_fract_x
_atom_site_fract_y
_atom_site_fract_z
_atom_type_partial_charge
C1    C     C_R   0.615929 0.998905 0.562552 0.930950
C2    C     C_R   0.383878 0.001135 0.437536 0.926307
C3    C     C_R   0.919385 0.711015 0.116856 0.074365
C4    C     C_R   0.006748 0.232004 0.923463 0.063017
C5    C     C_R   0.057076 0.810616 0.127284 0.415736
C6    C     C_R   0.013862 0.264772 0.826849 0.419694
C7    C     C_R   0.058478 0.746934 0.094489 0.063711
C8    C     C_R   0.014377 0.329049 0.859537 0.060955
C9    C     C_R   0.932622 0.218682 0.136813 0.478996
C10   C     C_R   0.067275 0.743580 0.839589 0.488338
C11   C     C_R   0.935365 0.278078 0.103118 -0.351233
C12   C     C_R   0.063251 0.680841 0.871425 -0.352088
C13   C     C_R   0.210907 0.932426 0.357530 -0.283893
C14   C     C_R   0.794078 0.063178 0.639822 -0.259374
C15   C     C_R   0.273365 0.930499 0.390871 0.155605
C16   C     C_R   0.731870 0.066031 0.606294 0.148788
C17   C     C_R   0.805523 0.059807 0.375540 -0.278899
C18   C     C_R   0.271606 0.966536 0.672820 -0.311793
C19   C     C_R   0.744985 0.057177 0.409760 0.202383
C20   C     C_R   0.334981 0.968536 0.640643 0.186917
C21   C     C_3   0.994785 0.011183 0.248212 -0.004369
C22   C     C_3   0.006378 0.993021 0.751627 -0.007485
C23   C     C_R   0.614487 0.000399 0.437899 0.897167
C24   C     C_R   0.385198 0.999633 0.561539 0.935506
C25   C     C_R   0.192339 0.003317 0.334392 -0.006069
C26   C     C_R   0.804772 0.995549 0.667490 -0.007778
C27   C     C_R   0.317573 0.001998 0.401943 -0.255557
C28   C     C_R   0.680662 0.998176 0.599060 -0.255534
C29   C     C_R   0.805474 0.004532 0.338267 -0.069730
C30   C     C_R   0.195214 0.997307 0.660954 -0.051348
C31   C     C_R   0.681257 0.000003 0.404162 -0.236377
C32   C     C_R   0.320452 0.000889 0.595896 -0.185772
C33   C     C_R   0.995167 0.213935 0.170376 -0.102832
C34   C     C_R   0.004635 0.800984 0.838163 -0.110526
C35   C     C_R   0.999657 0.333440 0.102478 -0.208024
C36   C     C_R   0.998235 0.675802 0.902699 -0.217863
C37   C     C_R   0.986632 0.826557 0.152707 -0.206148
C38   C     C_R   0.012627 0.185034 0.842554 -0.205857
C39   C     C_R   0.990477 0.693631 0.090161 -0.310821
C40   C     C_R   0.009875 0.312499 0.907898 -0.281645
C41   C     C_1   0.067896 0.004824 0.276467 -0.044171
C42   C     C_1   0.932201 0.994120 0.723681 -0.001713
C43   C     C_1   0.995938 0.086118 0.223086 0.000686
C44   C     C_1   0.008361 0.921538 0.779980 -0.005064
C45   C     C_R   0.234365 0.075144 0.344953 0.140927
C46   C     C_R   0.752221 0.929030 0.662686 0.128375
C47   C     C_1   0.925323 0.009407 0.278765 -0.015152
C48   C     C_1   0.075616 0.993208 0.720762 0.010738
C49   C     C_1   0.990031 0.944829 0.214793 0.022730
C50   C     C_1   0.009184 0.063339 0.782462 -0.022059
C51   C     C_1   0.126046 0.002649 0.301900 -0.002704
C52   C     C_1   0.872757 0.994767 0.699053 -0.019993
C53   C     C_1   0.987082 0.890850 0.186525 0.090646
C54   C     C_1   0.011215 0.119627 0.809300 0.096233
C55   C     C_1   0.996492 0.145959 0.200321 0.015747
C56   C     C_1   0.008120 0.865000 0.805448 0.019504
C57   C     C_1   0.869788 0.007294 0.305382 0.033909
C58   C     C_1   0.131221 0.994341 0.694101 0.029355
C59   C     C_R   0.993683 0.621978 0.058246 0.920947
C60   C     C_R   0.006365 0.379253 0.941775 0.928940
C61   C     C_R   0.999848 0.392712 0.064895 0.905872
C62   C     C_R   0.999701 0.610550 0.936879 0.906985
C63   C     C_R   0.296860 0.074953 0.378994 0.380109
C64   C     C_R   0.692207 0.928937 0.627033 0.376537
C65   C     C_R   0.746001 0.944752 0.334151 0.483314
C66   C     C_R   0.180550 0.030954 0.616882 0.478439
C67   C     C_R   0.681222 0.944576 0.365618 0.050657
C68   C     C_R   0.242794 0.031464 0.583690 0.041398
C69   C     C_R   0.058490 0.270977 0.171851 0.152473
C70   C     C_R   0.939358 0.797785 0.869556 0.149635
C71   C     C_R   0.060467 0.331707 0.138114 0.180096
C72   C     C_R   0.935662 0.735207 0.901904 0.181878
C73   C     C_R   0.916941 0.779639 0.146096 0.403989
C74   C     C_R   0.010421 0.168220 0.890519 0.410691
H1    H     H_    0.176693 0.877859 0.349601 0.159712
H2    H     H_    0.834196 0.114618 0.644404 0.155456
H3    H     H_    0.854717 0.103011 0.378189 0.174110
H4    H     H_    0.282139 0.941446 0.707213 0.160050
H5    H     H_    0.887690 0.279500 0.076635 0.188607
H6    H     H_    0.111351 0.635909 0.871641 0.183452
O1    O     O_R   0.588360 0.066690 0.547410 -0.600798
O2    O     O_R   0.411640 0.933310 0.452590 -0.596162
O3    O     O_R   0.586040 0.933310 0.452590 -0.645279
O4    O     O_R   0.413960 0.066690 0.547410 -0.653935
O5    O     O_R   0.587420 0.068270 0.453900 -0.589170
O6    O     O_R   0.412580 0.931730 0.546100 -0.589968
O7    O     O_R   0.586980 0.931730 0.546100 -0.582473
O8    O     O_R   0.413020 0.068270 0.453900 -0.591079
O9    O     O_R   0.063560 0.593880 0.045280 -0.622344
O10   O     O_R   0.936440 0.406120 0.954720 -0.617040
O11   O     O_R   0.931210 0.414910 0.046840 -0.618553
O12   O     O_R   0.068790 0.585090 0.953160 -0.618745
O13   O     O_R   0.067840 0.419730 0.049340 -0.628513
O14   O     O_R   0.932160 0.580270 0.950660 -0.630115
O15   O     O_R   0.926930 0.589050 0.042780 -0.620740
O16   O     O_R   0.073070 0.410950 0.957220 -0.616339
Zn1   Zn    Zn3+2 0.500930 0.090750 0.500880 0.948910
Zn2   Zn    Zn3+2 0.499070 0.909250 0.499120 0.950420
Zn3   Zn    Zn3+2 0.091890 0.503230 0.001680 0.915409
Zn4   Zn    Zn3+2 0.908110 0.496770 0.998320 0.915623
O17   O     O_3   0.343768 0.143706 0.385803 -0.577015
C75   C     C_3   0.304837 0.196778 0.417910 0.159848
H7    H     H_    0.279488 0.164512 0.448466 0.113277
H8    H     H_    0.255252 0.230281 0.400171 0.159589
C76   C     C_3   0.366035 0.258738 0.436311 -0.806731
H9    H     H_    0.391162 0.293233 0.406730 0.251894
H10   H     H_    0.335659 0.301500 0.460975 0.187032
H11   H     H_    0.416713 0.228320 0.455111 0.264131
O18   O     O_3   0.640958 0.863112 0.621721 -0.585386
C77   C     C_3   0.681694 0.801475 0.596233 0.160044
H12   H     H_    0.732151 0.775281 0.617405 0.146579
H13   H     H_    0.706747 0.824424 0.562808 0.121802
C78   C     C_3   0.621683 0.734358 0.584172 -0.807245
H14   H     H_    0.570946 0.758316 0.562395 0.258979
H15   H     H_    0.652920 0.685355 0.564223 0.188655
H16   H     H_    0.596575 0.709135 0.616815 0.252838
O19   O     O_3   0.750852 0.887098 0.298577 -0.601521
C79   C     C_3   0.783248 0.815303 0.317549 0.071034
H17   H     H_    0.735260 0.782543 0.336719 0.153668
H18   H     H_    0.835785 0.827231 0.341831 0.118626
C80   C     C_3   0.813750 0.760900 0.278028 -0.740853
H19   H     H_    0.865401 0.790491 0.260438 0.280039
H20   H     H_    0.835212 0.702582 0.292393 0.180679
H21   H     H_    0.764078 0.748844 0.252180 0.281101
O20   O     O_3   0.103519 0.058098 0.604890 -0.596544
C81   C     C_3   0.099172 0.141907 0.614496 0.120204
H22   H     H_    0.147627 0.175320 0.595907 0.142128
H23   H     H_    0.104729 0.154330 0.652910 0.140438
C82   C     C_3   0.017199 0.173525 0.597647 -0.835858
H24   H     H_    0.967532 0.141634 0.615672 0.251899
H25   H     H_    0.012346 0.239258 0.605552 0.207244
H26   H     H_    0.010599 0.163359 0.559198 0.259110
N1    N     N_2   0.120802 0.267888 0.206902 -0.281372
H27   H     H_    0.101602 0.248112 0.239005 0.225077
C83   C     C_3   0.194885 0.228480 0.191732 -0.752645
H28   H     H_    0.183766 0.163065 0.185080 0.232172
H29   H     H_    0.242308 0.235334 0.219493 0.235825
H30   H     H_    0.217984 0.256338 0.159324 0.248662
N2    N     N_2   0.877467 0.858338 0.869752 -0.273684
H31   H     H_    0.898300 0.916293 0.864983 0.245542
C84   C     C_3   0.807947 0.838969 0.840276 -0.764884
H32   H     H_    0.826510 0.834956 0.802955 0.235926
H33   H     H_    0.761107 0.887025 0.844132 0.235452
H34   H     H_    0.780755 0.780686 0.850701 0.249378
O21   O     O_3   0.846915 0.797947 0.170593 -0.597870
C85   C     C_3   0.799405 0.851636 0.143718 0.103256
H35   H     H_    0.777456 0.821302 0.110811 0.139263
H36   H     H_    0.834405 0.906758 0.134731 0.148420
C86   C     C_3   0.725878 0.878314 0.172015 -0.783524
H37   H     H_    0.746188 0.910418 0.204546 0.291123
H38   H     H_    0.687520 0.919872 0.151016 0.196943
H39   H     H_    0.689064 0.824983 0.181475 0.258769
O22   O     O_3   0.005600 0.089045 0.905104 -0.595909
C87   C     C_3   0.085002 0.060309 0.914352 0.134852
H40   H     H_    0.114702 0.096379 0.943044 0.153529
H41   H     H_    0.123168 0.062402 0.882323 0.124541
C88   C     C_3   0.080282 0.972914 0.929736 -0.844496
H42   H     H_    0.052163 0.935157 0.901482 0.247595
H43   H     H_    0.142362 0.949510 0.937273 0.200657
H44   H     H_    0.043071 0.968676 0.961889 0.265012
O23   O     O_3   0.123591 0.861303 0.132205 -0.575568
C89   C     C_3   0.176055 0.830341 0.167138 0.114320
H45   H     H_    0.207339 0.774919 0.153859 0.139600
H46   H     H_    0.142779 0.815840 0.199827 0.120398
C90   C     C_3   0.239984 0.893483 0.179792 -0.808564
H47   H     H_    0.210101 0.949105 0.193680 0.255960
H48   H     H_    0.281945 0.869710 0.207069 0.201248
H49   H     H_    0.275652 0.908632 0.148285 0.258209
O24   O     O_3   0.017507 0.279722 0.779327 -0.590648
C91   C     C_3   0.937423 0.286227 0.761245 0.136158
H50   H     H_    0.911478 0.346411 0.770690 0.156605
H51   H     H_    0.896471 0.238160 0.774421 0.121816
C92   C     C_3   0.939625 0.277560 0.708102 -0.850677
H52   H     H_    0.964261 0.217205 0.698104 0.257830
H53   H     H_    0.877169 0.283512 0.693294 0.202527
H54   H     H_    0.978803 0.325105 0.693267 0.261866
O25   O     O_3   0.873297 0.159755 0.133611 -0.603099
C93   C     C_3   0.807835 0.182654 0.162638 0.098540
H55   H     H_    0.773125 0.233116 0.146530 0.139799
H56   H     H_    0.828750 0.201539 0.198518 0.131551
C94   C     C_3   0.751368 0.110794 0.167752 -0.816449
H57   H     H_    0.784767 0.060211 0.184434 0.261318
H58   H     H_    0.698953 0.128085 0.190076 0.208020
H59   H     H_    0.728271 0.090471 0.132777 0.253471
O26   O     O_3   0.130758 0.746477 0.808275 -0.595292
C95   C     C_3   0.195836 0.789002 0.829804 0.100234
H60   H     H_    0.221619 0.754204 0.859589 0.136783
H61   H     H_    0.176111 0.849855 0.842788 0.133010
C96   C     C_3   0.262416 0.800951 0.793978 -0.822107
H62   H     H_    0.238079 0.835546 0.763879 0.255374
H63   H     H_    0.313770 0.835000 0.810322 0.199063
H64   H     H_    0.285110 0.741445 0.781064 0.258762
N3    N     N_2   0.615815 0.890140 0.356493 -0.292275
H65   H     H_    0.600972 0.852755 0.383544 0.237237
C97   C     C_3   0.546477 0.925157 0.332647 -0.715746
H66   H     H_    0.503061 0.876665 0.322325 0.220118
H67   H     H_    0.566138 0.955820 0.300319 0.253358
H68   H     H_    0.515007 0.969247 0.356061 0.225266
N4    N     N_2   0.225511 0.061322 0.538056 -0.299532
H69   H     H_    0.271648 0.093767 0.523240 0.226512
C98   C     C_3   0.189925 0.002490 0.505966 -0.748295
H70   H     H_    0.175138 0.031703 0.472149 0.217577
H71   H     H_    0.132805 0.978004 0.520513 0.275231
H72   H     H_    0.233472 0.952206 0.499328 0.229377
N5    N     N_2   0.122606 0.391288 0.141857 -0.280019
H73   H     H_    0.159381 0.395909 0.113029 0.241900
C99   C     C_3   0.097062 0.467951 0.161933 -0.759526
H74   H     H_    0.150857 0.507637 0.167073 0.229419
H75   H     H_    0.068548 0.458805 0.196596 0.241713
H76   H     H_    0.053055 0.498436 0.138258 0.221012
N6    N     N_2   0.870146 0.735974 0.934230 -0.281875
H77   H     H_    0.837614 0.683280 0.936785 0.244901
C100  C     C_3   0.886840 0.777116 0.978378 -0.747981
H78   H     H_    0.830561 0.779919 0.999551 0.224954
H79   H     H_    0.907738 0.839806 0.972283 0.251066
H80   H     H_    0.934176 0.744179 0.998325 0.223515
N7    N     N_2   0.849330 0.660681 0.115878 -0.265355
H81   H     H_    0.821080 0.652343 0.083774 0.240775
C101  C     C_3   0.854366 0.590205 0.145041 -0.708459
H82   H     H_    0.794733 0.558884 0.144719 0.221298
H83   H     H_    0.869383 0.608399 0.181806 0.242057
H84   H     H_    0.901475 0.547606 0.131811 0.223169
N8    N     N_2   0.001302 0.213934 0.972039 -0.287357
H85   H     H_    0.028326 0.255178 0.994710 0.217472
C102  C     C_3   0.921265 0.189771 0.986958 -0.693101
H86   H     H_    0.925190 0.166877 0.023245 0.245219
H87   H     H_    0.896772 0.140405 0.964110 0.270674
H88   H     H_    0.878940 0.242209 0.986116 0.224146
N9    N     N_2   0.129227 0.739466 0.066330 -0.268204
H89   H     H_    0.162574 0.687046 0.069394 0.239496
C103  C     C_3   0.122236 0.771737 0.019661 -0.694201
H90   H     H_    0.182965 0.771529 0.002985 0.219208
H91   H     H_    0.099456 0.834991 0.021272 0.245118
H92   H     H_    0.080313 0.734436 0.997745 0.229560
N10   N     N_2   0.016158 0.409898 0.843122 -0.288266
H93   H     H_    0.983366 0.451191 0.862781 0.216872
C104  C     C_3   0.096409 0.438750 0.831802 -0.708270
H94   H     H_    0.091499 0.500063 0.816826 0.231274
H95   H     H_    0.125453 0.398194 0.805395 0.267600
H96   H     H_    0.135174 0.442113 0.863936 0.229351
N11   N     N_2   0.289483 0.856541 0.413926 -0.272585
H97   H     H_    0.237471 0.828459 0.425261 0.217031
C105  C     C_3   0.341175 0.801543 0.387745 -0.738205
H98   H     H_    0.354910 0.747832 0.409255 0.225076
H99   H     H_    0.399544 0.831168 0.379141 0.250524
H100  H     H_    0.310172 0.781285 0.354790 0.217401
N12   N     N_2   0.723820 0.136312 0.578639 -0.280706
H101  H     H_    0.778605 0.155695 0.565620 0.218501
C106  C     C_3   0.679862 0.201566 0.601449 -0.730650
H102  H     H_    0.670788 0.251496 0.576413 0.226016
H103  H     H_    0.714827 0.224891 0.632368 0.216151
H104  H     H_    0.619161 0.180685 0.612958 0.251583
N13   N     N_2   0.747826 0.109189 0.450503 -0.263623
H105  H     H_    0.738506 0.080528 0.481814 0.228493
C107  C     C_3   0.805437 0.175097 0.453518 -0.795914
H106  H     H_    0.791930 0.213440 0.484803 0.236887
H107  H     H_    0.799965 0.213596 0.422116 0.247975
H108  H     H_    0.868390 0.151209 0.457147 0.228301
N14   N     N_2   0.412797 0.936859 0.653159 -0.277818
H109  H     H_    0.410335 0.890265 0.676670 0.230827
C108  C     C_3   0.471843 0.997401 0.667343 -0.760499
H110  H     H_    0.531128 0.967812 0.674902 0.251986
H111  H     H_    0.451271 0.029849 0.699558 0.225091
H112  H     H_    0.481098 0.041504 0.639020 0.237768
N15   N     N_2   0.216585 0.147398 0.320411 -0.275149
H113  H     H_    0.221360 0.140907 0.284532 0.233164
C109  C     C_3   0.142466 0.188697 0.334226 -0.834751
H114  H     H_    0.089679 0.165199 0.313663 0.241152
H115  H     H_    0.148638 0.254116 0.327265 0.244537
H116  H     H_    0.130196 0.181237 0.372171 0.230780
N16   N     N_2   0.759050 0.861669 0.693020 -0.302377
H117  H     H_    0.816763 0.850166 0.705796 0.225661
C110  C     C_3   0.697866 0.859368 0.729066 -0.759858
H118  H     H_    0.704502 0.802712 0.749032 0.231610
H119  H     H_    0.635757 0.860467 0.713387 0.273551
H120  H     H_    0.705276 0.911769 0.753605 0.228866

loop_
_geom_bond_atom_site_label_1
_geom_bond_atom_site_label_2
_ccdc_geom_bond_type
C16   C28   A    
C83   H30   S    
C66   C68   A    
C15   N11   S    
C33   C55   S    
C88   H42   S    
C40   C60   S    
C5    C37   A    
C17   C29   A    
O24   C91   S    
C22   C48   S    
N8    H85   S    
C63   O17   S    
C19   C31   A    
C10   O26   S    
C79   H18   S    
C21   C49   S    
O23   C89   S    
C98   H71   S    
C86   H37   S    
C83   H28   S    
C90   H47   S    
C22   C42   S    
C100  H78   S    
C34   C56   S    
C76   H10   S    
C106  H102  S    
C46   N16   S    
C23   O3    A    
O9    Zn3   S    
C68   N4    S    
O4    Zn1   S    
C7    C39   A    
C102  H86   S    
C85   H35   S    
C84   H33   S    
C62   O14   A    
O21   C85   S    
N13   H105  S    
C109  H116  S    
C61   O13   A    
C16   N12   S    
C72   N6    S    
C101  H83   S    
C91   H50   S    
C1    O1    A    
C105  H98   S    
C89   C90   S    
O16   Zn3   S    
C94   H57   S    
C107  H106  S    
C102  H88   S    
C91   C92   S    
C75   C76   S    
C96   H63   S    
N11   H97   S    
C59   O9    A    
C1    O7    A    
C69   C71   A    
N12   H101  S    
C77   H12   S    
C80   H21   S    
C37   C73   A    
C78   H14   S    
C102  H87   S    
C21   C43   S    
C15   C27   A    
C19   N13   S    
C22   C44   S    
C4    C40   A    
C61   O11   A    
N3    C97   S    
O3    Zn2   S    
C62   O12   A    
C99   H76   S    
C81   H23   S    
N10   H93   S    
C6    C38   A    
C2    O8    A    
C2    C27   S    
C18   C30   A    
O11   Zn4   S    
C12   C36   A    
N15   H113  S    
O13   Zn3   S    
C4    C74   A    
O8    Zn1   S    
C33   C69   A    
C32   C68   A    
C97   H68   S    
C37   C53   S    
C107  H107  S    
N2    C84   S    
C92   H53   S    
C107  H108  S    
C35   C71   A    
N4    H69   S    
C90   H48   S    
C83   H29   S    
C104  H94   S    
C79   H17   S    
C9    C33   A    
N10   C104  S    
C30   C58   S    
C13   C25   A    
C75   H7    S    
C11   H5    S    
C59   O15   A    
C82   H26   S    
C36   C62   S    
O10   Zn4   S    
C20   C32   A    
C93   H55   S    
O6    Zn2   S    
C85   H36   S    
N12   C106  S    
C91   H51   S    
C94   H58   S    
C76   H11   S    
C106  H103  S    
C110  H119  S    
O2    Zn2   S    
C99   H74   S    
O17   C75   S    
C13   H1    S    
O5    Zn1   S    
C87   C88   S    
C103  H91   S    
C21   C41   S    
C86   H39   S    
C101  H82   S    
C108  H111  S    
C21   C47   S    
C108  H110  S    
O15   Zn4   S    
C6    C8    A    
C81   C82   S    
C105  H99   S    
N7    H81   S    
C92   H52   S    
C45   C63   A    
C74   O22   S    
C73   O21   S    
N11   C105  S    
C79   C80   S    
C23   C31   S    
C96   H64   S    
C31   C67   A    
C97   H67   S    
C24   C32   S    
N6    H77   S    
N9    H89   S    
C26   C52   S    
C1    C28   S    
C85   C86   S    
C9    C11   A    
C44   C56   T    
N13   C107  S    
C110  H120  S    
C38   C54   S    
C13   C15   A    
O14   Zn4   S    
C3    N7    S    
C105  H100  S    
C39   C59   S    
C108  H112  S    
C17   H3    S    
C110  H118  S    
C87   H40   S    
C10   C34   A    
C50   C54   T    
C14   C26   A    
C75   H8    S    
N15   C109  S    
C77   C78   S    
C80   H19   S    
C30   C66   A    
C10   C12   A    
C95   H60   S    
C29   C65   A    
C60   O16   A    
C43   C55   T    
C18   H4    S    
N6    C100  S    
C29   C57   S    
N3    H65   S    
C90   H49   S    
C64   O18   S    
C104  H95   S    
N1    H27   S    
C98   H72   S    
C14   C16   A    
C84   H34   S    
N7    C101  S    
C95   H61   S    
N14   H109  S    
C25   C45   A    
C103  H90   S    
C9    O25   S    
C28   C64   A    
C5    C7    A    
C82   H24   S    
C7    N9    S    
C94   H59   S    
N16   C110  S    
N5    H73   S    
C42   C52   T    
C106  H104  S    
C69   N1    S    
C87   H41   S    
O7    Zn2   S    
C99   H75   S    
N14   C108  S    
C71   N5    S    
C93   H56   S    
N2    H31   S    
N8    C102  S    
C92   H54   S    
C48   C58   T    
C100  H80   S    
C60   O10   A    
C88   H44   S    
C89   H45   S    
C4    N8    S    
C76   H9    S    
C25   C51   S    
C65   C67   A    
C66   O20   S    
C22   C50   S    
C109  H114  S    
C5    O23   S    
C78   H16   S    
C95   C96   S    
C86   H38   S    
C24   O4    A    
C100  H79   S    
N9    C103  S    
C89   H46   S    
C67   N3    S    
C84   H32   S    
C101  H84   S    
C109  H115  S    
O26   C95   S    
O20   C81   S    
O1    Zn1   S    
C35   C61   S    
C81   H22   S    
C49   C53   T    
C12   H6    S    
C11   C35   A    
C17   C19   A    
C38   C74   A    
C103  H92   S    
C18   C20   A    
C96   H62   S    
C3    C73   A    
C77   H13   S    
C80   H20   S    
C93   C94   S    
C2    O2    A    
C26   C46   A    
C20   N14   S    
C3    C39   A    
C97   H66   S    
C8    N10   S    
C36   C72   A    
C70   N2    S    
C98   H70   S    
C88   H43   S    
O25   C93   S    
C23   O5    A    
C104  H96   S    
O18   C77   S    
C47   C57   T    
N4    C98   S    
N1    C83   S    
C65   O19   S    
C27   C63   A    
C70   C72   A    
C45   N15   S    
C8    C40   A    
C46   C64   A    
C82   H25   S    
O22   C87   S    
O19   C79   S    
N5    C99   S    
C24   O6    A    
C34   C70   A    
C41   C51   T    
N16   H117  S    
O12   Zn3   S    
C14   H2    S    
C78   H15   S    
C6    O24   S    
