data_mof_unit_22265.cif
_audit_creation_date              2012-10-26T18:40:19-0400
_audit_creation_method            fapswitch 2.2
_symmetry_space_group_name_H-M    P1
_symmetry_Int_Tables_number       1
_space_group_crystal_system       triclinic
_cell_length_a                    8.794054
_cell_length_b                    15.114088
_cell_length_c                    13.860587
_cell_angle_alpha                 89.968318
_cell_angle_beta                  97.651318
_cell_angle_gamma                 90.281225
_cell_volume                      1825.84323859

loop_
_atom_site_label
_atom_site_type_symbol
_atom_type_description
_atom_site_fract_x
_atom_site_fract_y
_atom_site_fract_z
_atom_type_partial_charge
C1    C     C_R   0.499133 0.329832 0.499979 0.553455
C2    C     C_R   0.550107 0.573441 0.896768 -0.161687
C3    C     C_R   0.501235 0.499821 0.054731 0.042929
C4    C     C_R   0.500016 0.499120 0.945412 0.038439
C5    C     C_R   0.204463 0.502862 0.475720 0.576468
C6    C     C_R   0.795741 0.502729 0.524761 0.579328
C7    C     C_2   0.040691 0.515682 0.463548 0.232776
C8    C     C_2   0.960968 0.503281 0.539793 0.226049
C9    C     C_R   0.429628 0.095519 0.575098 0.267309
C10   C     C_R   0.417361 0.903626 0.416531 0.267591
C11   C     C_R   0.438834 0.187829 0.576125 -0.111040
C12   C     C_R   0.499271 0.670072 0.499918 0.526449
C13   C     C_R   0.426966 0.811344 0.416453 -0.119628
C14   C     C_R   0.494724 0.233277 0.499882 -0.029107
C15   C     C_R   0.494807 0.766414 0.499466 -0.033741
C16   C     C_R   0.545107 0.186021 0.423369 -0.154296
C17   C     C_R   0.556872 0.813895 0.582188 -0.161642
C18   C     C_R   0.541934 0.094133 0.423780 -0.131782
C19   C     C_R   0.553801 0.905749 0.581355 -0.132427
C20   C     C_R   0.484589 0.048307 0.499300 0.054378
C21   C     C_R   0.484554 0.951193 0.498902 0.053700
C22   C     C_3   0.991837 0.634077 0.363654 -0.150413
C23   C     C_R   0.626634 0.534381 0.118478 0.236254
C24   C     C_3   0.048831 0.558578 0.689934 -0.097558
C25   C     C_3   0.212550 0.054922 0.635807 -0.119068
C26   C     C_3   0.188654 0.939635 0.329746 -0.120201
C27   C     C_3   0.870067 0.504723 0.092262 -0.131975
C28   C     C_3   0.524517 0.289202 0.946047 -0.121786
C29   C     C_R   0.450286 0.424361 0.887987 0.237154
C30   C     C_R   0.620207 0.536219 0.219705 0.067611
C31   C     C_R   0.447529 0.427622 0.785954 0.079088
C32   C     C_R   0.379350 0.464619 0.198839 0.011269
C33   C     C_R   0.551525 0.572040 0.795492 0.002337
C34   C     C_R   0.376615 0.465225 0.097162 -0.163490
Cu1   Cu    Cu3+1 0.500000 0.499990 0.596430 0.945929
Cu2   Cu    Cu3+1 0.500000 0.500010 0.403570 0.949170
H1    H     H_    0.399782 0.223736 0.635771 0.131744
H2    H     H_    0.593388 0.629441 0.760505 0.128047
H3    H     H_    0.276380 0.439305 0.052069 0.148900
H4    H     H_    0.587080 0.633027 0.936563 0.156735
H5    H     H_    0.115604 0.652497 0.371563 0.122348
H6    H     H_    0.933009 0.671008 0.417368 0.097505
H7    H     H_    0.940713 0.655080 0.289780 0.150171
H8    H     H_    0.936011 0.582162 0.707123 0.123087
H9    H     H_    0.108401 0.612586 0.654793 0.102652
H10   H     H_    0.120159 0.542616 0.759894 0.150191
H11   H     H_    0.164920 0.024803 0.564856 0.107472
H12   H     H_    0.378825 0.774929 0.352152 0.132015
H13   H     H_    0.171005 0.123989 0.640653 0.121790
H14   H     H_    0.168025 0.016073 0.694014 0.144498
H15   H     H_    0.147598 0.966167 0.396535 0.106534
H16   H     H_    0.150257 0.869855 0.317155 0.103622
H17   H     H_    0.134367 0.979304 0.267229 0.148043
H18   H     H_    0.832188 0.443448 0.051164 0.114804
H19   H     H_    0.908618 0.488931 0.170083 0.152841
H20   H     H_    0.970551 0.531608 0.061080 0.141912
H21   H     H_    0.622398 0.318179 0.995387 0.114444
H22   H     H_    0.562574 0.268263 0.876114 0.118673
H23   H     H_    0.589762 0.220058 0.364250 0.140803
H24   H     H_    0.485994 0.229047 0.981946 0.153014
H25   H     H_    0.610728 0.780030 0.646645 0.121555
H26   H     H_    0.585897 0.058646 0.365577 0.152257
H27   H     H_    0.607000 0.941514 0.644827 0.152802
H28   H     H_    0.712555 0.566479 0.267142 0.177586
H29   H     H_    0.404379 0.371103 0.742877 0.145194
H30   H     H_    0.283403 0.436291 0.229561 0.144427
N1    N     N_R   0.500000 0.500020 0.258690 -0.258701
N2    N     N_R   0.500000 0.499980 0.741310 -0.253624
O1    O     O_R   0.500010 0.371450 0.581430 -0.515727
O2    O     O_3   0.032624 0.481292 0.632092 -0.566410
O3    O     O_3   0.374118 0.051311 0.650608 -0.578468
O4    O     O_3   0.349297 0.947637 0.334574 -0.574614
O5    O     O_3   0.753516 0.569078 0.082589 -0.595986
O6    O     O_3   0.400646 0.348597 0.930241 -0.589850
O7    O     O_R   0.499990 0.628550 0.418570 -0.512535
O8    O     O_R   0.500010 0.371460 0.418560 -0.498105
O9    O     O_R   0.499990 0.628540 0.581440 -0.523638
O10   O     O_R   0.274840 0.499990 0.562640 -0.476981
O11   O     O_R   0.725160 0.500010 0.437360 -0.483155
O12   O     O_R   0.274840 0.500000 0.399770 -0.499328
O13   O     O_R   0.725160 0.500000 0.600230 -0.488039
O14   O     O_3   0.970060 0.541921 0.372708 -0.598346

loop_
_geom_bond_atom_site_label_1
_geom_bond_atom_site_label_2
_ccdc_geom_bond_type
C30   H28   S    
C26   O4    S    
C3    C23   A    
Cu1   Cu2   S    
C28   O6    S    
Cu1   O13   S    
C27   H18   S    
C24   O2    S    
C7    C8    D    
C28   H21   S    
C30   N1    A    
C24   H9    S    
C22   O14   S    
C19   C21   A    
C11   C14   A    
C27   H19   S    
C22   H5    S    
C31   H29   S    
C11   H1    S    
C25   H14   S    
Cu2   O8    S    
C17   H25   S    
C19   H27   S    
C25   O3    S    
C25   H11   S    
C4    C29   A    
C6    O13   A    
C23   O5    S    
C28   H24   S    
C10   C21   A    
C31   N2    A    
Cu2   N1    S    
C34   H3    S    
C23   C30   A    
Cu2   O12   S    
C5    C7    S    
C27   H20   S    
C18   H26   S    
C6    C8    S    
C29   O6    S    
C3    C34   A    
Cu1   O9    S    
C1    O1    A    
C16   H23   S    
C32   C34   A    
C2    C4    A    
Cu2   O7    S    
C26   H16   S    
C9    C20   A    
C22   H7    S    
C12   C15   S    
C12   O9    A    
C5    O12   A    
C9    C11   A    
Cu2   O11   S    
C32   N1    A    
C2    C33   A    
C13   C15   A    
C24   H8    S    
C14   C16   A    
C3    C4    S    
C26   H17   S    
C32   H30   S    
C15   C17   A    
C1    O8    A    
C9    O3    S    
C10   C13   A    
C13   H12   S    
C28   H22   S    
Cu1   O10   S    
C8    O2    S    
C33   H2    S    
C24   H10   S    
C29   C31   A    
C26   H15   S    
C6    O11   A    
C22   H6    S    
Cu1   N2    S    
C17   C19   A    
C18   C20   A    
C25   H13   S    
C2    H4    S    
C7    O14   S    
C20   C21   S    
Cu1   O1    S    
C16   C18   A    
C12   O7    A    
C1    C14   S    
C5    O10   A    
C27   O5    S    
C33   N2    A    
C10   O4    S    
