data_mof_unit_14477.cif
_audit_creation_date              2012-12-10T19:50:35-0500
_audit_creation_method            fapswitch 2.2
_symmetry_space_group_name_H-M    P1
_symmetry_Int_Tables_number       1
_space_group_crystal_system       triclinic
_cell_length_a                    18.239455
_cell_length_b                    18.278694
_cell_length_c                    18.281322
_cell_angle_alpha                 119.930712
_cell_angle_beta                  90.194865
_cell_angle_gamma                 119.76044
_cell_volume                      4322.47433855

loop_
_atom_site_label
_atom_site_type_symbol
_atom_type_description
_atom_site_fract_x
_atom_site_fract_y
_atom_site_fract_z
_atom_type_partial_charge
C1    C     C_R   0.640001 0.780075 0.640539 0.824736
C2    C     C_R   0.245266 0.945254 0.158553 0.504461
C3    C     C_R   0.193833 0.891430 0.193813 -0.267907
C4    C     C_R   0.360462 0.219980 0.359668 0.875227
C5    C     C_R   0.189562 0.946805 0.278460 0.024989
C6    C     C_3   0.199439 0.941798 0.356636 -0.383733
C7    C     C_3   0.256996 0.059049 0.414990 -0.432918
C8    C     C_R   0.788900 0.565657 0.342212 0.038285
C9    C     C_R   0.696002 0.506833 0.304313 -0.126786
C10   C     C_R   0.658297 0.458096 0.212431 -0.200074
C11   C     C_R   0.712289 0.458365 0.158494 -0.235023
C12   C     C_3   0.835933 0.577389 0.776504 -0.405594
C13   C     C_R   0.804310 0.507291 0.196062 -0.042755
C14   C     C_R   0.842262 0.566019 0.288938 0.017901
C15   C     C_3   0.902842 0.565054 0.343146 -0.489597
C16   C     C_R   0.359611 0.499574 0.639441 0.819005
C17   C     C_3   0.843499 0.563371 0.401122 0.492721
C18   C     C_R   0.788970 0.946709 0.731197 -0.053715
C19   C     C_R   0.695650 0.891683 0.702656 0.024051
C20   C     C_R   0.656752 0.946265 0.737897 -0.217588
C21   C     C_R   0.710622 0.053974 0.791912 -0.204428
C22   C     C_R   0.803974 0.108236 0.810703 0.021893
C23   C     C_3   0.759299 0.591167 0.794024 0.396990
C24   C     C_R   0.842130 0.052996 0.784291 -0.117825
C25   C     C_3   0.909743 0.057793 0.737464 0.470748
C26   C     C_3   0.851199 0.940086 0.679101 0.278012
C27   C     C_R   0.259953 0.549207 0.341920 -0.154585
C28   C     C_R   0.640021 0.500453 0.359983 0.801278
C29   C     C_R   0.290750 0.486996 0.303917 -0.141481
C30   C     C_R   0.253694 0.409816 0.211547 -0.280821
C31   C     C_R   0.198426 0.407075 0.156344 0.480594
C32   C     C_R   0.183058 0.485223 0.194973 -0.221130
C33   C     C_R   0.207901 0.549345 0.287745 -0.066790
C34   C     C_3   0.723295 0.520385 0.826314 0.377357
C35   C     C_3   0.253083 0.663344 0.348842 0.493874
C36   C     C_3   0.310892 0.664478 0.410185 0.284773
C37   C     C_R   0.294610 0.579524 0.741745 -0.055600
C38   C     C_R   0.299741 0.495779 0.691108 -0.114360
C39   C     C_R   0.244410 0.407406 0.690052 -0.210814
C40   C     C_R   0.357186 0.498576 0.358840 0.835391
C41   C     C_R   0.191091 0.407936 0.744939 -0.170438
C42   C     C_R   0.191969 0.496401 0.800363 -0.114370
C43   C     C_R   0.239835 0.578873 0.793210 -0.035435
C44   C     C_3   0.302041 0.692602 0.863470 0.382425
C45   C     C_3   0.662048 0.427167 0.729559 0.268234
C46   C     C_3   0.364276 0.693941 0.806846 0.777716
C47   C     C_R   0.859918 0.500526 0.139967 0.789223
C48   C     C_R   0.140107 0.500015 0.860154 0.826615
C49   C     C_R   0.140526 0.779781 0.139757 0.861471
C50   C     C_R   0.859912 0.219833 0.860334 0.848959
C51   C     C_R   0.139628 0.497858 0.140919 0.817549
C52   C     C_R   0.641369 0.499035 0.640671 0.937775
C53   C     C_R   0.858261 0.502670 0.861476 0.924204
C54   C     C_3   0.772191 0.482581 0.680380 0.579477
C55   C     C_3   0.737753 0.411093 0.711836 0.432964
C56   C     C_3   0.697332 0.498850 0.698464 -0.337744
C57   C     C_3   0.800132 0.505750 0.808741 -0.391883
C58   C     C_3   0.843717 0.843404 0.530957 0.144253
C59   C     C_3   0.934520 0.918004 0.531279 -0.340648
C60   C     C_3   0.966378 0.860095 0.462401 -0.920180
C61   C     C_3   0.084539 0.249557 0.032187 0.131708
C62   C     C_3   0.088069 0.158044 0.005962 -0.383184
C63   C     C_3   0.994409 0.057564 0.957126 -0.969929
C64   C     C_3   0.232309 0.626863 0.504572 0.178824
C65   C     C_3   0.217927 0.680396 0.593323 -0.332896
C66   C     C_3   0.152272 0.603077 0.611397 -0.817534
C67   C     C_R   0.242314 0.052999 0.331207 0.046373
C68   C     C_3   0.446284 0.844765 0.808067 0.145870
C69   C     C_3   0.449133 0.922563 0.899022 -0.294290
C70   C     C_3   0.530240 0.032092 0.938285 -0.990994
C71   C     C_3   0.452590 0.664301 0.873461 -0.002508
C72   C     C_3   0.538441 0.730756 0.951645 -0.317865
C73   C     C_3   0.549416 0.665966 0.974114 -0.904341
C74   C     C_3   0.836757 0.760704 0.917241 0.145573
C75   C     C_3   0.821540 0.844058 0.975202 -0.327396
C76   C     C_3   0.893666 0.926546 0.067573 -0.993456
C77   C     C_3   0.693642 0.515981 0.950557 0.107159
C78   C     C_R   0.301539 0.108039 0.301372 -0.252459
C79   C     C_3   0.606733 0.409598 0.913332 -0.356992
C80   C     C_3   0.620573 0.323388 0.869545 -0.817917
C81   C     C_3   0.539429 0.252976 0.644403 0.118157
C82   C     C_3   0.530423 0.226392 0.549367 -0.333552
C83   C     C_3   0.498292 0.114636 0.482035 -0.920516
C84   C     C_3   0.304825 0.105157 0.119389 0.159266
C85   C     C_3   0.369651 0.174410 0.093600 -0.310293
C86   C     C_3   0.320022 0.179479 0.030802 -0.981670
C87   C     C_R   0.297592 0.053337 0.211112 0.320497
F1    F     F_    0.732483 0.320467 0.669220 -0.643422
F2    F     F_    0.887223 0.653045 0.487022 -0.647456
F3    F     F_    0.795183 0.461191 0.603761 -0.614641
F4    F     F_    0.913450 0.099582 0.690655 -0.614605
F5    F     F_    0.194777 0.686987 0.384296 -0.624267
F6    F     F_    0.263329 0.741901 0.865017 -0.604254
F7    F     F_    0.250903 0.894098 0.076077 -0.614970
H1    H     H_    0.237394 0.908842 0.354813 0.220158
H2    H     H_    0.678763 0.094205 0.815265 0.169662
H3    H     H_    0.976224 0.093109 0.781618 0.010888
H4    H     H_    0.882014 0.905852 0.691321 0.024951
H5    H     H_    0.271868 0.355777 0.181086 0.179962
H6    H     H_    0.290611 0.705197 0.319414 0.015876
H7    H     H_    0.382467 0.706124 0.415033 0.066174
H8    H     H_    0.906947 0.639774 0.795730 0.211375
H9    H     H_    0.244373 0.339485 0.649167 0.172992
H10   H     H_    0.150976 0.340426 0.745444 0.188960
H11   H     H_    0.328744 0.713596 0.930675 0.040863
H12   H     H_    0.225312 0.092167 0.460247 0.201235
H13   H     H_    0.134826 0.907355 0.368552 0.202828
H14   H     H_    0.794805 0.790470 0.462175 0.156133
H15   H     H_    0.847383 0.793339 0.546446 0.189820
H16   H     H_    0.928410 0.966618 0.515636 0.261742
H17   H     H_    0.985435 0.969390 0.598688 0.217904
H18   H     H_    0.976545 0.814266 0.478842 0.311910
H19   H     H_    0.031105 0.916276 0.463068 0.255414
H20   H     H_    0.916679 0.807821 0.394151 0.261139
H21   H     H_    0.046648 0.231866 0.971292 0.184025
H22   H     H_    0.046061 0.259273 0.079645 0.096226
H23   H     H_    0.327851 0.093804 0.447343 0.212608
H24   H     H_    0.129141 0.151074 0.961419 0.243991
H25   H     H_    0.119890 0.171176 0.067150 0.209450
H26   H     H_    0.951894 0.063064 0.000157 0.272107
H27   H     H_    0.998890 0.992946 0.940562 0.273662
H28   H     H_    0.962683 0.040822 0.893851 0.251601
H29   H     H_    0.252007 0.577787 0.503574 0.157162
H30   H     H_    0.167816 0.577959 0.449824 0.167102
H31   H     H_    0.282978 0.737139 0.648611 0.267881
H32   H     H_    0.191517 0.723031 0.591703 0.243643
H33   H     H_    0.085639 0.547967 0.558357 0.257556
H34   H     H_    0.586957 0.416379 0.181597 0.169750
H35   H     H_    0.144728 0.644721 0.677080 0.305933
H36   H     H_    0.177421 0.559584 0.613301 0.265981
H37   H     H_    0.446057 0.869244 0.763393 0.139921
H38   H     H_    0.507975 0.846562 0.813645 0.174916
H39   H     H_    0.387188 0.919697 0.890596 0.270694
H40   H     H_    0.453058 0.903079 0.946887 0.244372
H41   H     H_    0.593193 0.037216 0.948107 0.269646
H42   H     H_    0.530881 0.086628 0.004116 0.280442
H43   H     H_    0.527149 0.055027 0.892984 0.262697
H44   H     H_    0.454286 0.602443 0.816135 0.181004
H45   H     H_    0.681399 0.416823 0.087295 0.166889
H46   H     H_    0.394520 0.628809 0.893428 0.117011
H47   H     H_    0.597170 0.770081 0.934046 0.232659
H48   H     H_    0.536727 0.790697 0.011444 0.221383
H49   H     H_    0.491768 0.626275 0.992524 0.259466
H50   H     H_    0.611885 0.716697 0.031600 0.260801
H51   H     H_    0.554011 0.607554 0.915912 0.297174
H52   H     H_    0.901160 0.795823 0.905049 0.133743
H53   H     H_    0.841455 0.729545 0.954886 0.148259
H54   H     H_    0.821724 0.880470 0.941352 0.225025
H55   H     H_    0.755011 0.808184 0.983460 0.239472
H56   H     H_    0.899925 0.493020 0.304930 0.163225
H57   H     H_    0.890584 0.892189 0.104292 0.268912
H58   H     H_    0.882619 0.987839 0.106691 0.272377
H59   H     H_    0.961279 0.961963 0.061458 0.269020
H60   H     H_    0.697236 0.570902 0.018109 0.125417
H61   H     H_    0.755270 0.520565 0.963855 0.136262
H62   H     H_    0.581613 0.410767 0.968998 0.170471
H63   H     H_    0.553759 0.392008 0.864468 0.274786
H64   H     H_    0.648671 0.321426 0.815598 0.288963
H65   H     H_    0.555372 0.247982 0.840244 0.232094
H66   H     H_    0.666939 0.335029 0.920009 0.272098
H67   H     H_    0.971493 0.637687 0.378317 0.254435
H68   H     H_    0.471929 0.202812 0.644294 0.153040
H69   H     H_    0.581453 0.233665 0.663771 0.187785
H70   H     H_    0.481762 0.238296 0.529799 0.240356
H71   H     H_    0.595733 0.277328 0.546800 0.243639
H72   H     H_    0.548891 0.102888 0.497544 0.298277
H73   H     H_    0.488471 0.096270 0.413509 0.267641
H74   H     H_    0.433670 0.061132 0.483772 0.252102
H75   H     H_    0.265661 0.135854 0.151871 0.113800
H76   H     H_    0.258070 0.025876 0.057406 0.181723
H77   H     H_    0.417524 0.253597 0.155059 0.249829
H78   H     H_    0.806441 0.491555 0.398419 0.097697
H79   H     H_    0.408389 0.144058 0.060005 0.228946
H80   H     H_    0.272441 0.101293 0.968280 0.274036
H81   H     H_    0.368969 0.229977 0.013194 0.271552
H82   H     H_    0.282573 0.211953 0.063939 0.262186
H83   H     H_    0.584807 0.906256 0.720394 0.158633
O1    O     O_3   0.500000 0.500000 0.500000 -0.502998
O2    O     O_R   0.945260 0.268310 0.884540 -0.640057
O3    O     O_R   0.117230 0.560570 0.177940 -0.614422
O4    O     O_R   0.676910 0.731570 0.616180 -0.634106
O5    O     O_R   0.821960 0.439250 0.882690 -0.651688
O6    O     O_R   0.117230 0.439140 0.056500 -0.621253
O7    O     O_R   0.943400 0.560680 0.882690 -0.626330
O8    O     O_R   0.115380 0.731510 0.054650 -0.581546
O9    O     O_R   0.823040 0.268340 0.883770 -0.648630
O10   O     O_R   0.945260 0.560610 0.176860 -0.624885
O11   O     O_R   0.116150 0.439180 0.884540 -0.640555
O12   O     O_R   0.384580 0.439270 0.616180 -0.650266
O13   O     O_R   0.384580 0.268400 0.445300 -0.664932
O14   O     O_R   0.383810 0.560730 0.615410 -0.619185
O15   O     O_R   0.554700 0.439300 0.323100 -0.654254
O16   O     O_R   0.382730 0.560770 0.443450 -0.643094
O17   O     O_R   0.678000 0.560660 0.617260 -0.599633
O18   O     O_R   0.382730 0.439340 0.322020 -0.659688
O19   O     O_R   0.556550 0.439230 0.617260 -0.630827
O20   O     O_3   0.810776 0.897258 0.588787 -0.579965
O21   O     O_3   0.172403 0.338399 0.064659 -0.621755
O22   O     O_3   0.301530 0.702941 0.496796 -0.585853
O23   O     O_R   0.676910 0.560700 0.445300 -0.621418
O24   O     O_3   0.367258 0.743755 0.765854 -0.625406
O25   O     O_3   0.451123 0.726585 0.849676 -0.711712
O26   O     O_3   0.765833 0.684114 0.834589 -0.609572
O27   O     O_3   0.691990 0.552866 0.899294 -0.621961
O28   O     O_3   0.569210 0.356261 0.707954 -0.607013
O29   O     O_3   0.354609 0.104729 0.178411 -0.591310
O30   O     O_R   0.554700 0.731600 0.615410 -0.649618
O31   O     O_R   0.383810 0.268430 0.323100 -0.620946
O32   O     O_3   0.999960 0.499910 0.999960 -0.511279
O33   O     O_R   0.823040 0.439210 0.054650 -0.676419
O34   O     O_R   0.115380 0.560640 0.883770 -0.584939
O35   O     O_R   0.116150 0.731480 0.176860 -0.649670
Zn1   Zn    Zn3+2 0.457170 0.413230 0.543930 0.967472
Zn2   Zn    Zn3+2 0.456070 0.586770 0.542830 0.985373
Zn3   Zn    Zn3+2 0.456070 0.413270 0.369320 0.952472
Zn4   Zn    Zn3+2 0.630690 0.586730 0.543930 1.026473
Zn5   Zn    Zn3+2 0.042790 0.586680 0.956030 1.050090
Zn6   Zn    Zn3+2 0.043880 0.586640 0.130630 0.979045
Zn7   Zn    Zn3+2 0.043880 0.413140 0.957130 0.993249
Zn8   Zn    Zn3+2 0.869270 0.413190 0.956030 0.948518

loop_
_geom_bond_atom_site_label_1
_geom_bond_atom_site_label_2
_ccdc_geom_bond_type
C78   C87   A    
C47   O33   A    
C71   O25   S    
C58   O20   S    
O5    Zn8   S    
C69   H40   S    
C63   H26   S    
C27   C29   A    
C58   H15   S    
C81   H68   S    
C7    H23   S    
C60   H20   S    
C35   C36   S    
C18   C26   S    
C36   O22   S    
C83   H73   S    
C5    C67   A    
C81   C82   S    
C3    C49   S    
C17   H78   S    
O16   Zn2   S    
C39   C41   A    
C44   H11   S    
C27   C33   A    
C72   H48   S    
C12   C23   S    
C28   O23   A    
O8    Zn5   S    
O1    Zn3   S    
C18   C24   A    
O32   Zn6   S    
C37   C38   A    
C48   O11   A    
C84   H76   S    
O14   Zn2   S    
O17   Zn4   S    
C5    C6    S    
C80   H66   S    
C74   O26   S    
C76   H58   S    
C76   H59   S    
C59   H16   S    
O33   Zn8   S    
C66   H33   S    
C49   O35   A    
C86   H81   S    
C41   C42   A    
C55   F1    S    
C68   H38   S    
C26   O20   S    
C11   H45   S    
C44   F6    S    
C33   C35   S    
C79   H62   S    
O3    Zn6   S    
C46   O24   S    
C19   C20   A    
C45   C56   S    
C34   O27   S    
C8    C9    A    
C64   C65   S    
C52   O19   A    
C61   H21   S    
C34   C57   S    
C85   H79   S    
C6    H13   S    
C29   C30   A    
C20   H83   S    
C9    C10   A    
O15   Zn3   S    
O18   Zn3   S    
C22   C50   S    
C66   H35   S    
O6    Zn7   S    
C35   F5    S    
C59   C60   S    
O10   Zn6   S    
C74   H52   S    
C13   C14   A    
C70   H42   S    
C81   H69   S    
C60   H19   S    
C61   C62   S    
C67   C78   A    
C10   H34   S    
C28   O15   A    
C12   H8    S    
C63   H27   S    
C44   C46   S    
C4    O31   A    
C71   H44   S    
C40   O16   A    
C77   C79   S    
C72   H47   S    
O34   Zn5   S    
C83   H72   S    
C54   C56   S    
C25   F4    S    
C1    C19   S    
C74   C75   S    
O1    Zn2   S    
C52   C56   S    
O32   Zn7   S    
C4    O13   A    
C74   H53   S    
C2    F7    S    
C52   O17   A    
C24   C25   S    
C84   H75   S    
C10   C11   A    
C53   O7    A    
C13   C47   S    
C1    O4    A    
C68   C69   S    
C80   H65   S    
C8    C14   A    
C76   H57   S    
C25   C26   S    
C85   C86   S    
O9    Zn8   S    
C30   H5    S    
C82   C83   S    
O30   Zn2   S    
C32   C33   A    
C23   O26   S    
C36   H7    S    
C86   H80   S    
C65   H31   S    
C37   C43   A    
C68   H37   S    
C75   C76   S    
C87   O29   S    
C4    C78   S    
C62   C63   S    
C60   H18   S    
C16   O14   A    
C77   H60   S    
C80   H64   S    
C31   C32   A    
C48   O34   A    
C30   C31   A    
C23   C34   S    
C61   H22   S    
C7    H12   S    
C17   F2    S    
C2    C87   A    
C34   C45   S    
C42   C48   S    
C84   C85   S    
C39   H9    S    
C86   H82   S    
C23   C56   S    
C62   H25   S    
C6    C7    S    
O12   Zn1   S    
C26   H4    S    
C12   C57   S    
C25   H3    S    
O7    Zn5   S    
C65   C66   S    
O31   Zn3   S    
C55   C57   S    
C43   C44   S    
C70   H41   S    
C75   H54   S    
C22   C24   A    
O11   Zn7   S    
C42   C43   A    
C47   O10   A    
C51   O3    A    
C50   O9    A    
C77   O27   S    
C63   H28   S    
C81   O28   S    
C73   H49   S    
C32   C51   S    
C15   C17   S    
C54   C55   S    
C45   O28   S    
O1    Zn1   S    
O2    Zn7   S    
C68   O24   S    
O32   Zn8   S    
C15   H67   S    
C72   C73   S    
C3    C5    A    
C53   C57   S    
C61   O21   S    
C79   H63   S    
C54   F3    S    
C71   H46   S    
C21   H2    S    
C69   H39   S    
C27   C36   S    
C64   H29   S    
C83   H74   S    
C51   O6    A    
C8    C17   S    
C41   H10   S    
O1    Zn4   S    
O32   Zn5   S    
C65   H32   S    
C50   O2    A    
C58   C59   S    
C71   C72   S    
C64   H30   S    
C53   O5    A    
C77   H61   S    
O19   Zn1   S    
C11   C13   A    
C38   C39   A    
C82   H70   S    
C75   H55   S    
C29   C40   S    
O23   Zn4   S    
C2    C3    A    
O4    Zn4   S    
C58   H14   S    
C31   O21   S    
C69   C70   S    
C1    O30   A    
O13   Zn1   S    
C62   H24   S    
C16   O12   A    
C7    C67   S    
C79   C80   S    
C85   H77   S    
C84   O29   S    
C46   O25   S    
C49   O8    A    
C20   C21   A    
C45   C55   S    
C70   H43   S    
C6    H1    S    
C64   O22   S    
C73   H51   S    
C59   H17   S    
C18   C19   A    
C14   C15   S    
C40   O18   A    
C66   H36   S    
C37   C46   S    
C21   C22   A    
C82   H71   S    
C15   H56   S    
C12   C54   S    
C35   H6    S    
C9    C28   S    
C16   C38   S    
O35   Zn6   S    
C73   H50   S    
