data_mof_unit_31862.cif
_audit_creation_date              2012-10-26T20:24:18-0400
_audit_creation_method            fapswitch 2.2
_symmetry_space_group_name_H-M    P1
_symmetry_Int_Tables_number       1
_space_group_crystal_system       triclinic
_cell_length_a                    15.788761
_cell_length_b                    11.076693
_cell_length_c                    9.834788
_cell_angle_alpha                 92.075534
_cell_angle_beta                  90.601774
_cell_angle_gamma                 91.166284
_cell_volume                      1718.38588653

loop_
_atom_site_label
_atom_site_type_symbol
_atom_type_description
_atom_site_fract_x
_atom_site_fract_y
_atom_site_fract_z
_atom_type_partial_charge
C1    C     C_R   0.503263 0.259847 0.496570 0.615327
C2    C     C_3   0.546691 0.935218 0.631547 -0.113005
C3    C     C_3   0.404576 0.062661 0.460622 0.272299
C4    C     C_R   0.340999 0.502470 0.499490 0.591658
C5    C     C_3   0.560375 0.055056 0.381353 0.158694
C6    C     C_3   0.500505 0.118543 0.489664 0.001675
C7    C     C_3   0.493867 0.875826 0.509705 -0.031927
C8    C     C_3   0.399504 0.924727 0.509391 0.462160
C9    C     C_3   0.539760 0.917484 0.377930 -0.241612
C10   C     C_3   0.471477 0.619331 0.083025 -0.059238
C11   C     C_3   0.478386 0.620989 0.921622 -0.216229
C12   C     C_3   0.083576 0.501870 0.495861 0.003496
C13   C     C_3   0.592596 0.488549 0.089187 0.340898
C14   C     C_3   0.443531 0.401101 0.075486 0.049953
C15   C     C_3   0.589660 0.476348 0.919303 0.611134
C16   C     C_R   0.497462 0.738344 0.503187 0.549008
C17   C     C_3   0.432584 0.414840 0.909589 0.318916
C18   C     C_R   0.658983 0.500656 0.500910 0.499288
C19   C     C_3   0.971710 0.384066 0.503932 -0.015575
C20   C     C_3   0.025383 0.435714 0.388434 -0.033390
C21   C     C_1   0.251204 0.503495 0.498057 0.066473
C22   C     C_1   0.748647 0.500135 0.503493 -0.009222
C23   C     C_3   0.973425 0.563472 0.611931 -0.117589
C24   C     C_3   0.029727 0.450315 0.610385 0.255633
C25   C     C_2   0.052629 0.361680 0.266541 0.211343
C26   C     C_2   0.530338 0.897945 0.774571 0.216149
C27   C     C_2   0.337667 0.139486 0.531656 0.191990
C28   C     C_3   0.327739 0.817183 0.690176 -0.109842
C29   C     C_3   0.623526 0.055440 0.167892 -0.070684
C30   C     C_3   0.306560 0.064642 0.263925 0.017092
C31   C     C_3   0.263073 0.845553 0.423855 -0.060360
C32   C     C_2   0.942820 0.254719 0.509490 0.210260
C33   C     C_2   0.385324 0.667355 0.121510 0.347067
C34   C     C_3   0.915911 0.497039 0.503322 0.013788
C35   C     C_2   0.647377 0.599311 0.142768 0.247271
C36   C     C_3   0.662960 0.669630 0.842219 -0.059247
C37   C     C_2   0.480182 0.275456 0.092873 0.345241
C38   C     C_2   0.357719 0.392365 0.149543 0.301531
C39   C     C_2   0.341248 0.452575 0.864388 0.325915
C40   C     C_3   0.377489 0.210658 0.864630 -0.128253
C41   C     C_3   0.713809 0.364635 0.168338 -0.055229
C42   C     C_3   0.987738 0.617647 0.170885 -0.081856
C43   C     C_3   0.690187 0.323727 0.858647 0.011929
C44   C     C_2   0.057376 0.742798 0.488643 0.231934
C45   C     C_3   0.027121 0.614299 0.495258 0.002219
C46   C     C_3   0.006589 0.380117 0.824792 -0.101847
C47   C     C_3   0.687311 0.124793 0.626882 -0.082830
C48   C     C_3   0.969226 0.548460 0.388233 0.241855
C49   C     C_1   0.175495 0.503537 0.496891 0.047588
C50   C     C_1   0.824247 0.498512 0.504389 0.029705
C51   C     C_3   0.536216 0.074121 0.629703 0.102492
Cu1   Cu    Cu3+1 0.500040 0.499860 0.642410 1.030715
Cu2   Cu    Cu3+1 0.499960 0.500140 0.357590 1.043700
H1    H     H_    0.625818 0.067292 0.413752 0.096193
H2    H     H_    0.005135 0.318397 0.199722 0.092025
H3    H     H_    0.473184 0.852845 0.801699 0.145208
H4    H     H_    0.290289 0.098875 0.595443 0.132544
H5    H     H_    0.340142 0.809479 0.800289 0.114775
H6    H     H_    0.349247 0.734894 0.635335 0.174056
H7    H     H_    0.257798 0.822718 0.685181 0.146445
H8    H     H_    0.616871 0.956424 0.147620 0.137831
H9    H     H_    0.686758 0.078175 0.213877 0.088302
H10   H     H_    0.621841 0.096738 0.067334 0.184165
H11   H     H_    0.296312 0.148784 0.210046 0.162455
H12   H     H_    0.600509 0.868925 0.365104 0.062883
H13   H     H_    0.255126 0.060589 0.338602 0.082324
H14   H     H_    0.297663 0.989757 0.186865 0.128111
H15   H     H_    0.236862 0.919885 0.488013 0.114185
H16   H     H_    0.242873 0.757030 0.462528 0.116975
H17   H     H_    0.234001 0.847312 0.320988 0.119410
H18   H     H_    0.989349 0.184255 0.513948 0.146028
H19   H     H_    0.348265 0.715141 0.048101 0.120495
H20   H     H_    0.624769 0.659266 0.222966 0.130939
H21   H     H_    0.648708 0.725942 0.933639 0.152984
H22   H     H_    0.625579 0.693674 0.752815 0.163207
H23   H     H_    0.499640 0.892728 0.286965 0.224677
H24   H     H_    0.729249 0.694197 0.816987 0.148257
H25   H     H_    0.538081 0.249148 0.047349 0.233491
H26   H     H_    0.351593 0.334223 0.235232 0.195243
H27   H     H_    0.303724 0.394459 0.795251 0.159476
H28   H     H_    0.405131 0.121345 0.882521 0.182002
H29   H     H_    0.336286 0.202041 0.775121 0.125326
H30   H     H_    0.334826 0.232527 0.950397 0.108595
H31   H     H_    0.728245 0.362804 0.278166 0.163260
H32   H     H_    0.757779 0.428271 0.121555 0.171300
H33   H     H_    0.729753 0.273542 0.127759 0.076668
H34   H     H_    0.511163 0.696409 0.121825 0.072386
H35   H     H_    0.989295 0.533235 0.107024 0.118475
H36   H     H_    0.052869 0.643837 0.206718 0.114164
H37   H     H_    0.965193 0.690100 0.105373 0.158086
H38   H     H_    0.738182 0.381261 0.912875 0.110905
H39   H     H_    0.703631 0.333878 0.749537 0.172862
H40   H     H_    0.700469 0.230544 0.891274 0.121196
H41   H     H_    0.088956 0.773171 0.398525 0.078387
H42   H     H_    0.951250 0.325029 0.785848 0.118844
H43   H     H_    0.985440 0.468280 0.868133 0.108441
H44   H     H_    0.035972 0.330812 0.908773 0.159392
H45   H     H_    0.423832 0.658054 0.868714 0.144218
H46   H     H_    0.697096 0.195452 0.550962 0.142700
H47   H     H_    0.701139 0.034627 0.583274 0.097185
H48   H     H_    0.738491 0.136854 0.703823 0.138658
H49   H     H_    0.520943 0.693127 0.898408 0.082493
H50   H     H_    0.950814 0.615537 0.702567 0.138097
H51   H     H_    0.483730 0.094926 0.699226 0.195958
H52   H     H_    0.612014 0.905716 0.613580 0.117160
N1    N     N_3   0.501840 0.500250 0.143650 -0.323322
N2    N     N_3   0.501160 0.503300 0.856280 -0.236692
O1    O     O_R   0.500050 0.317570 0.620260 -0.389499
O2    O     O_2   0.581143 0.926567 0.865039 -0.554766
O3    O     O_2   0.329060 0.245032 0.505005 -0.539588
O4    O     O_3   0.365839 0.925632 0.645401 -0.677279
O5    O     O_3   0.556486 0.100559 0.249628 -0.471253
O6    O     O_3   0.391222 0.061986 0.316142 -0.466961
O7    O     O_3   0.352421 0.849497 0.412278 -0.515333
O8    O     O_2   0.867517 0.228013 0.508682 -0.570333
O9    O     O_2   0.359568 0.669978 0.236761 -0.411513
O10   O     O_2   0.719486 0.619808 0.105003 -0.535790
O11   O     O_3   0.659774 0.543962 0.861216 -0.560919
O12   O     O_R   0.499980 0.317810 0.379740 -0.438029
O13   O     O_2   0.437648 0.191419 0.131182 -0.499629
O14   O     O_2   0.295061 0.449607 0.123024 -0.440095
O15   O     O_2   0.307156 0.546300 0.898513 -0.543655
O16   O     O_3   0.443639 0.298455 0.843603 -0.530914
O17   O     O_3   0.625602 0.381390 0.147924 -0.563504
O18   O     O_3   0.929911 0.603912 0.277603 -0.545484
O19   O     O_3   0.604391 0.352723 0.883280 -0.490763
O20   O     O_2   0.045986 0.814092 0.583839 -0.511704
O21   O     O_3   0.067655 0.396904 0.723459 -0.542290
O22   O     O_3   0.607151 0.139746 0.689624 -0.517374
O23   O     O_R   0.379110 0.499870 0.620240 -0.526705
O24   O     O_R   0.379040 0.500110 0.379720 -0.443219
O25   O     O_R   0.500020 0.682190 0.620260 -0.576131
O26   O     O_R   0.499950 0.682430 0.379740 -0.495499
O27   O     O_R   0.620960 0.499890 0.620280 -0.467271
O28   O     O_R   0.620890 0.500130 0.379760 -0.505761
O29   O     O_2   0.127600 0.349353 0.242080 -0.476626

loop_
_geom_bond_atom_site_label_1
_geom_bond_atom_site_label_2
_ccdc_geom_bond_type
C29   H10   S    
C44   O20   D    
C23   C45   S    
C30   H11   S    
Cu1   O27   S    
C29   O5    S    
C2    C7    S    
Cu2   O28   S    
C3    C6    S    
C21   C49   T    
C12   C49   S    
C51   O22   S    
C7    C8    S    
Cu1   Cu2   S    
C41   H33   S    
C39   O15   D    
C47   O22   S    
C11   H45   S    
C47   H48   S    
C41   O17   S    
C46   O21   S    
C13   C35   S    
C36   H24   S    
C17   N2    S    
C17   C39   S    
C5    C6    S    
C45   C48   S    
C20   C25   S    
C19   C32   S    
C47   H46   S    
C1    O12   A    
C15   N2    S    
C25   O29   D    
C33   H19   S    
C48   O18   S    
Cu2   N1    S    
C17   O16   S    
C31   H17   S    
C23   H50   S    
C46   H42   S    
C19   C20   S    
C27   O3    D    
C15   O19   S    
C23   C24   S    
Cu2   O24   S    
C9    H23   S    
C6    C51   S    
C32   H18   S    
C36   O11   S    
C31   O7    S    
C30   H14   S    
C42   O18   S    
C8    O7    S    
C22   C50   T    
C40   H30   S    
C16   O26   A    
C43   O19   S    
C4    O24   A    
C28   H7    S    
C28   O4    S    
C31   H15   S    
C29   H8    S    
C10   H34   S    
C34   C50   S    
C1    C6    S    
Cu1   O25   S    
C40   H29   S    
C5    H1    S    
Cu2   O26   S    
Cu1   N2    S    
C3    C8    S    
C27   H4    S    
C8    O4    S    
C13   O17   S    
C12   C45   S    
C4    O23   A    
C51   H51   S    
C41   H31   S    
C43   H38   S    
C47   H47   S    
C42   H37   S    
C5    C9    S    
C36   H22   S    
C14   C38   S    
C31   H16   S    
C23   C34   S    
C12   C20   S    
C46   H43   S    
C18   O28   A    
C2    C26   S    
C20   C48   S    
C26   O2    D    
C30   H13   S    
C36   H21   S    
C7    C16   S    
C46   H44   S    
C10   C11   S    
C13   C15   S    
C3    O6    S    
C35   O10   D    
C42   H35   S    
C44   C45   S    
C10   C33   S    
C28   H6    S    
C7    C9    S    
C40   O16   S    
C29   H9    S    
C35   H20   S    
C33   O9    D    
C18   C22   S    
C40   H28   S    
C25   H2    S    
C13   N1    S    
C19   C34   S    
C26   H3    S    
Cu2   O12   S    
C5    O5    S    
C28   H5    S    
C41   H32   S    
C37   H25   S    
C12   C24   S    
C2    H52   S    
C43   H39   S    
C15   O11   S    
C42   H36   S    
Cu1   O23   S    
C39   H27   S    
C3    C27   S    
C19   C24   S    
C14   C37   S    
C11   N2    S    
C4    C21   S    
C37   O13   D    
C43   H40   S    
C18   O27   A    
C11   H49   S    
C32   O8    D    
C16   O25   A    
C9    H12   S    
C38   O14   D    
C44   H41   S    
C2    C51   S    
C1    O1    A    
C14   N1    S    
C34   C48   S    
Cu1   O1    S    
C38   H26   S    
C24   O21   S    
C10   N1    S    
C30   O6    S    
C14   C17   S    
