data_mof_unit_7089.cif
_audit_creation_date              2012-12-10T17:50:15-0500
_audit_creation_method            fapswitch 2.2
_symmetry_space_group_name_H-M    P1
_symmetry_Int_Tables_number       1
_space_group_crystal_system       triclinic
_cell_length_a                    10.588146
_cell_length_b                    14.818619
_cell_length_c                    14.928464
_cell_angle_alpha                 63.463477
_cell_angle_beta                  105.713496
_cell_angle_gamma                 102.893734
_cell_volume                      2002.9856817

loop_
_atom_site_label
_atom_site_type_symbol
_atom_type_description
_atom_site_fract_x
_atom_site_fract_y
_atom_site_fract_z
_atom_type_partial_charge
C1    C     C_R   0.482009 0.120280 0.312271 0.768108
C2    C     C_R   0.527073 0.879991 0.687308 0.788732
C3    C     C_R   0.545408 0.286001 0.168589 -0.064645
C4    C     C_R   0.506838 0.714568 0.835530 -0.067531
C5    C     C_R   0.517000 0.354588 0.063398 0.044300
C6    C     C_R   0.579541 0.633333 0.908648 0.067106
C7    C     C_R   0.407101 0.326374 0.996741 0.108415
C8    C     C_R   0.711332 0.656493 0.956264 0.091845
C9    C     C_R   0.588614 0.453224 0.022702 0.081185
C10   C     C_R   0.527208 0.529688 0.933687 0.102052
C11   C     C_R   0.425418 0.498846 0.866809 -0.153733
C12   C     C_R   0.722350 0.476395 0.061759 -0.150140
C13   C     C_R   0.370650 0.398161 0.896154 -0.151058
C14   C     C_R   0.782957 0.575927 0.028594 -0.113109
C15   C     C_R   0.745799 0.291544 0.650518 -0.261113
C16   C     C_R   0.253977 0.708755 0.348888 -0.253420
C17   C     C_R   0.695968 0.204830 0.632438 0.042292
C18   C     C_R   0.305462 0.796006 0.366021 0.024084
C19   C     C_R   0.515516 0.287131 0.508963 0.118916
C20   C     C_R   0.481932 0.711433 0.492688 0.146053
C21   C     C_R   0.550325 0.371182 0.537043 -0.027549
C22   C     C_R   0.446414 0.627340 0.465112 -0.105901
C23   C     C_R   0.259651 0.999978 0.499686 0.769367
C24   C     C_R   0.740432 0.999945 0.500513 0.795218
C25   C     C_R   0.675628 0.377088 0.601290 0.111782
C26   C     C_R   0.321721 0.621847 0.400392 0.119043
C27   C     C_R   0.469800 0.452305 0.498409 0.114080
C28   C     C_R   0.525868 0.545456 0.505556 0.059035
C29   C     C_R   0.660929 0.555285 0.549909 -0.293811
C30   C     C_R   0.334193 0.442399 0.455146 -0.246909
C31   C     C_R   0.731211 0.471190 0.606769 -0.006850
C32   C     C_R   0.264566 0.526964 0.397121 0.019220
C33   C     C_3   0.008545 0.922128 0.479892 -0.122710
C34   C     C_3   0.991720 0.077865 0.520623 -0.151401
C35   C     C_3   0.925879 0.010858 0.408252 -0.160401
C36   C     C_3   0.074451 0.989174 0.592232 -0.186063
C37   C     C_3   0.877787 0.000471 0.500720 0.022007
C38   C     C_3   0.122463 0.999489 0.499769 0.022746
C39   C     C_3   0.958272 0.911882 0.572392 -0.140944
C40   C     C_3   0.042087 0.088147 0.428144 -0.184157
C41   C     C_R   0.470728 0.189050 0.202668 -0.117062
C42   C     C_R   0.575352 0.811283 0.792501 -0.104271
C43   C     C_R   0.338394 0.226966 0.031812 0.015557
C44   C     C_R   0.770261 0.759093 0.924884 0.005919
C45   C     C_R   0.374600 0.159212 0.132963 -0.269020
C46   C     C_R   0.704216 0.833919 0.839153 -0.258569
Cu1   Cu    Cu3+1 0.465750 0.918270 0.475680 0.964858
Cu2   Cu    Cu3+1 0.534250 0.081730 0.524320 0.936306
H1    H     H_    0.861810 0.019806 0.333063 0.138385
H2    H     H_    0.138495 0.980210 0.667436 0.138775
H3    H     H_    0.252374 0.862005 0.326395 0.138178
H4    H     H_    0.750749 0.139751 0.670507 0.134446
H5    H     H_    0.840782 0.290648 0.700678 0.211734
H6    H     H_    0.159806 0.710442 0.297622 0.218661
H7    H     H_    0.713435 0.628860 0.542299 0.173071
H8    H     H_    0.281442 0.368675 0.463039 0.100829
H9    H     H_    0.017986 0.858294 0.463226 0.143149
H10   H     H_    0.982204 0.141674 0.537301 0.141143
H11   H     H_    0.921786 0.839928 0.631917 0.176439
H12   H     H_    0.079660 0.160168 0.369199 0.131342
H13   H     H_    0.296967 0.379028 0.839454 0.195958
H14   H     H_    0.886833 0.588062 0.059484 0.222040
H15   H     H_    0.754779 0.910103 0.806831 0.137255
H16   H     H_    0.318609 0.084479 0.159850 0.153506
H17   H     H_    0.390899 0.551468 0.789470 0.132314
H18   H     H_    0.783291 0.417318 0.115170 0.141842
N1    N     N_R   0.585750 0.204560 0.560800 -0.213481
N2    N     N_R   0.414250 0.795440 0.439200 -0.193728
O1    O     O_R   0.454850 0.022100 0.338110 -0.579118
O2    O     O_R   0.545150 0.977900 0.661890 -0.576609
O3    O     O_R   0.512700 0.160150 0.379180 -0.586048
O4    O     O_R   0.487300 0.839850 0.620820 -0.573082
O5    O     O_R   0.287930 0.931000 0.479440 -0.594599
O6    O     O_R   0.712070 0.069000 0.520560 -0.606868
O7    O     O_R   0.345780 0.069050 0.520520 -0.609630
O8    O     O_R   0.654220 0.930950 0.479480 -0.518258
C47   C     C_2   0.564994 0.695200 0.594606 0.407776
H19   H     H_    0.535734 0.631416 0.661309 0.027637
O9    O     O_2   0.670190 0.746903 0.605043 -0.560465
C48   C     C_2   0.421667 0.296662 0.412232 0.422093
H20   H     H_    0.343598 0.237232 0.408133 0.080199
O10   O     O_2   0.429950 0.373960 0.334393 -0.483768
C49   C     C_2   0.359539 0.705209 0.811747 0.338958
H21   H     H_    0.307342 0.757102 0.739957 0.058151
O11   O     O_2   0.295097 0.643262 0.874861 -0.491712
C50   C     C_2   0.644904 0.315362 0.245881 0.414387
H22   H     H_    0.714855 0.263370 0.301213 0.044148
O12   O     O_2   0.646089 0.395536 0.250963 -0.463502
C51   C     C_2   0.223074 0.190146 0.969006 0.328759
H23   H     H_    0.209223 0.111249 0.980163 0.070914
O13   O     O_2   0.137913 0.244217 0.910346 -0.515369
C52   C     C_2   0.901874 0.792401 0.975050 0.366179
H24   H     H_    0.960880 0.859624 0.930595 0.060961
O14   O     O_2   0.942280 0.749796 0.066851 -0.502412
C53   C     C_2   0.864685 0.488921 0.665672 0.365376
H25   H     H_    0.923793 0.561968 0.635975 0.073577
O15   O     O_2   0.906264 0.426085 0.750369 -0.506013
C54   C     C_2   0.130457 0.509006 0.339206 0.383316
H26   H     H_    0.071124 0.436264 0.369953 0.056248
O16   O     O_2   0.088405 0.571172 0.254267 -0.500943

loop_
_geom_bond_atom_site_label_1
_geom_bond_atom_site_label_2
_ccdc_geom_bond_type
C25   C31   A    
C38   C40   S    
C26   C32   A    
C40   H12   S    
C34   C37   S    
C53   H25   S    
C47   H19   S    
C43   C51   S    
C4    C42   A    
C20   C47   S    
C34   C40   S    
C15   H5    S    
Cu2   O2    S    
C28   C29   A    
C35   C37   S    
Cu1   O8    S    
C50   O12   D    
C15   C25   A    
C18   N2    A    
C14   H14   S    
C1    O3    A    
C42   C46   A    
Cu1   O1    S    
C49   H21   S    
C35   H1    S    
C8    C14   A    
C19   N1    A    
C7    C43   A    
C51   O13   D    
C9    C10   A    
C44   C52   S    
C21   C27   A    
C22   C28   A    
C27   C30   A    
Cu2   O7    S    
C23   O5    A    
C2    O4    A    
C17   H4    S    
C44   C46   A    
C18   H3    S    
C47   O9    D    
C16   C26   A    
C17   N1    A    
Cu2   O6    S    
Cu1   O5    S    
C4    C6    A    
C23   O7    A    
C5    C7    A    
C50   H22   S    
C24   O8    A    
C6    C8    A    
C29   H7    S    
C30   H8    S    
C1    O1    A    
C5    C9    A    
Cu1   Cu2   S    
C39   H11   S    
C52   O14   D    
C24   C37   S    
C16   C18   A    
C33   C39   S    
C43   C45   A    
C1    C41   S    
C49   O11   D    
C12   C14   A    
C54   O16   D    
Cu2   O3    S    
Cu1   N2    S    
C36   H2    S    
C15   C17   A    
C21   C25   A    
C3    C41   A    
C33   H9    S    
C19   C21   A    
C20   N2    A    
C36   C39   S    
C8    C44   A    
C20   C22   A    
C48   H20   S    
C3    C5    A    
C6    C10   A    
C53   O15   D    
C23   C38   S    
C45   H16   S    
C33   C38   S    
C46   H15   S    
C36   C38   S    
C35   C40   S    
C37   C39   S    
C30   C32   A    
C11   C13   A    
C24   O6    A    
C4    C49   S    
C12   H18   S    
C2    C42   S    
C31   C53   S    
C52   H24   S    
C33   C35   S    
C48   O10   D    
C32   C54   S    
C34   C36   S    
Cu2   N1    S    
C19   C48   S    
C9    C12   A    
C16   H6    S    
Cu1   O4    S    
C10   C11   A    
C7    C13   A    
C13   H13   S    
C29   C31   A    
C54   H26   S    
C22   C26   A    
C27   C28   A    
C34   H10   S    
C41   C45   A    
C51   H23   S    
C2    O2    A    
C11   H17   S    
C3    C50   S    
