data_mof_unit_41684.cif
_audit_creation_date              2012-12-10T16:55:47-0500
_audit_creation_method            fapswitch 2.2
_symmetry_space_group_name_H-M    P1
_symmetry_Int_Tables_number       1
_space_group_crystal_system       triclinic
_cell_length_a                    7.854729
_cell_length_b                    8.655134
_cell_length_c                    10.536351
_cell_angle_alpha                 92.731913
_cell_angle_beta                  85.985201
_cell_angle_gamma                 92.446864
_cell_volume                      713.173625318

loop_
_atom_site_label
_atom_site_type_symbol
_atom_type_description
_atom_site_fract_x
_atom_site_fract_y
_atom_site_fract_z
_atom_type_partial_charge
C1    C     C_R   0.543332 0.793286 0.496918 0.949392
C2    C     C_3   0.507442 0.507074 0.875584 -0.107606
C3    C     C_3   0.339890 0.453154 0.042399 0.145552
C4    C     C_3   0.660110 0.546846 0.957601 0.145540
C5    C     C_2   0.562532 0.952010 0.477279 -0.119157
C6    C     C_2   0.437461 0.047989 0.522709 -0.119188
C7    C     C_3   0.160372 0.396940 0.085660 -0.886062
C8    C     C_3   0.839628 0.603060 0.914340 -0.886068
C9    C     C_R   0.456667 0.206714 0.503080 0.949376
C10   C     C_R   0.503156 0.506345 0.741685 0.897366
C11   C     C_R   0.496844 0.493655 0.258315 0.897401
C12   C     C_3   0.387837 0.599890 0.968986 0.090570
C13   C     C_3   0.612162 0.400110 0.031015 0.090583
C14   C     C_3   0.538602 0.639066 0.050639 0.025387
C15   C     C_3   0.461398 0.360934 0.949361 0.025390
C16   C     C_3   0.492558 0.492926 0.124416 -0.107591
H1    H     H_    0.604728 0.867360 0.036269 0.175284
H2    H     H_    0.165895 0.285930 0.133303 0.218967
H3    H     H_    0.099369 0.484787 0.152084 0.260240
H4    H     H_    0.915999 0.622603 0.998605 0.256719
H5    H     H_    0.900629 0.515214 0.847914 0.260237
H6    H     H_    0.834105 0.714071 0.866699 0.218977
H7    H     H_    0.920904 0.266821 0.363104 0.173446
H8    H     H_    0.115563 0.341454 0.354240 0.211246
H9    H     H_    0.079099 0.733185 0.636888 0.173446
H10   H     H_    0.884441 0.658546 0.645764 0.211244
H11   H     H_    0.800432 0.054327 0.454010 0.228171
H12   H     H_    0.686860 0.784103 0.157697 0.209619
H13   H     H_    0.677098 0.064520 0.323899 0.185396
H14   H     H_    0.199565 0.945660 0.545941 0.228183
H15   H     H_    0.322852 0.935487 0.676078 0.185392
H16   H     H_    0.395144 0.132662 0.963741 0.175288
H17   H     H_    0.313208 0.215925 0.842225 0.209616
H18   H     H_    0.213107 0.762492 0.016538 0.194781
H19   H     H_    0.339784 0.798839 0.885705 0.162347
H20   H     H_    0.786942 0.237551 0.983461 0.194787
H21   H     H_    0.660202 0.201125 0.114248 0.162353
H22   H     H_    0.084002 0.377394 0.001394 0.256714
N1    N     N_2   0.950320 0.457950 0.465730 -0.008271
N2    N     N_3   0.289092 0.002315 0.602333 -0.459237
N3    N     N_2   0.049680 0.542050 0.534270 -0.008275
N4    N     N_3   0.575748 0.791410 0.109613 -0.467749
N5    N     N_3   0.424252 0.208588 0.890391 -0.467757
N6    N     N_3   0.268399 0.711415 0.932595 -0.444186
N7    N     N_3   0.731597 0.288583 0.067406 -0.444184
N8    N     N_3   0.013619 0.317802 0.419498 -0.346225
N9    N     N_3   0.986380 0.682199 0.580500 -0.346227
N10   N     N_3   0.710882 0.997681 0.397631 -0.459229
O1    O     O_R   0.389250 0.738570 0.508410 -0.644766
O2    O     O_R   0.610750 0.261430 0.491590 -0.644758
O3    O     O_R   0.678390 0.711620 0.486450 -0.605981
O4    O     O_R   0.321610 0.288380 0.513550 -0.605984
O5    O     O_R   0.355460 0.513510 0.697030 -0.612782
O6    O     O_R   0.644540 0.486490 0.302970 -0.612771
O7    O     O_R   0.644600 0.486560 0.675070 -0.635540
O8    O     O_R   0.355400 0.513440 0.324930 -0.635548
Zn1   Zn    Zn3+2 0.306940 0.517990 0.514670 0.953062
Zn2   Zn    Zn3+2 0.693060 0.482010 0.485330 0.953073

loop_
_geom_bond_atom_site_label_1
_geom_bond_atom_site_label_2
_ccdc_geom_bond_type
H11   N10   S    
C4    C14   S    
O1    Zn1   S    
C2    C4    S    
C11   O8    A    
C2    C15   S    
C14   C16   S    
C11   C16   S    
H9    N9    S    
C7    H3    S    
C14   N4    S    
C4    C8    S    
C7    H2    S    
H8    N8    S    
C6    C9    S    
C8    H5    S    
N3    N9    S    
H14   N2    S    
H20   N7    S    
C12   N6    S    
O3    Zn2   S    
H15   N2    S    
C13   N7    S    
H19   N6    S    
C1    O3    A    
C8    H4    S    
C9    O4    A    
H10   N9    S    
N1    N8    S    
C1    C5    S    
H12   N4    S    
C15   N5    S    
C7    H22   S    
C12   C14   S    
C3    C7    S    
C13   C15   S    
C10   O7    A    
C5    C6    D    
C5    N10   S    
C6    N2    S    
N3    Zn1   S    
O4    Zn1   S    
C3    C16   S    
H13   N10   S    
H21   N7    S    
H17   N5    S    
C11   O6    A    
H18   N6    S    
O8    Zn1   S    
N1    N3    D    
C2    C12   S    
O6    Zn2   S    
C13   C16   S    
C4    C13   S    
H7    N8    S    
C10   O5    A    
O7    Zn2   S    
H1    N4    S    
C3    C15   S    
O5    Zn1   S    
C3    C12   S    
N1    Zn2   S    
C1    O1    A    
C8    H6    S    
H16   N5    S    
C2    C10   S    
C9    O2    A    
O2    Zn2   S    
