data_mof_unit_26060.cif
_audit_creation_date              2012-12-10T20:38:21-0500
_audit_creation_method            fapswitch 2.2
_symmetry_space_group_name_H-M    P1
_symmetry_Int_Tables_number       1
_space_group_crystal_system       triclinic
_cell_length_a                    9.897629
_cell_length_b                    10.656038
_cell_length_c                    16.765476
_cell_angle_alpha                 90.239772
_cell_angle_beta                  85.236557
_cell_angle_gamma                 89.949243
_cell_volume                      1762.12232961

loop_
_atom_site_label
_atom_site_type_symbol
_atom_type_description
_atom_site_fract_x
_atom_site_fract_y
_atom_site_fract_z
_atom_type_partial_charge
C1    C     C_R   0.501078 0.739644 0.493280 0.919742
C2    C     C_R   0.354333 0.419219 0.774845 -0.219105
C3    C     C_R   0.494647 0.314364 0.159383 -0.034896
C4    C     C_R   0.480349 0.349013 0.239409 -0.202462
C5    C     C_R   0.613830 0.536697 0.209396 -0.136896
C6    C     C_R   0.628392 0.502073 0.129245 -0.101279
C7    C     C_R   0.563859 0.393804 0.104119 0.212663
C8    C     C_2   0.434592 0.422796 0.988821 0.428516
C9    C     C_2   0.546975 0.379763 0.019734 -0.421310
C10   C     C_R   0.534338 0.463042 0.263666 -0.018822
C11   C     C_R   0.379683 0.936282 0.489208 0.127819
C12   C     C_R   0.480695 0.498899 0.652960 0.838735
C13   C     C_R   0.501669 0.870975 0.475495 -0.259186
C14   C     C_R   0.619061 0.937137 0.444336 0.380028
C15   C     C_R   0.617763 0.067615 0.450439 -0.319760
C16   C     C_R   0.500299 0.128968 0.482408 -0.183645
C17   C     C_R   0.379137 0.063770 0.492320 0.213222
C18   C     C_3   0.268460 0.068971 0.558333 -0.473054
C19   C     C_3   0.267648 0.926857 0.554542 -0.481832
C20   C     C_R   0.919560 0.516104 0.569627 0.217240
C21   C     C_R   0.935861 0.466709 0.433764 -0.083995
C22   C     C_R   0.078990 0.461460 0.434354 -0.003904
C23   C     C_R   0.500310 0.260052 0.497279 0.904093
C24   C     C_R   0.061369 0.517365 0.569381 0.174751
C25   C     C_3   0.059681 0.625466 0.625740 -0.478519
C26   C     C_3   0.905750 0.623778 0.626853 -0.474977
C27   C     C_R   0.519258 0.496249 0.347289 0.890077
C28   C     C_R   0.465368 0.486148 0.739099 -0.022794
C29   C     C_R   0.562409 0.536656 0.785774 -0.179580
C30   C     C_R   0.550389 0.517935 0.867735 -0.183164
C31   C     C_R   0.442199 0.446967 0.903171 0.084736
C32   C     C_R   0.343216 0.399062 0.856785 -0.075312
H1    H     H_    0.646449 0.590921 0.759026 0.138499
H2    H     H_    0.681956 0.563645 0.086153 0.141586
H3    H     H_    0.708893 0.120431 0.433021 0.207372
H4    H     H_    0.303066 0.106872 0.615101 0.189986
H5    H     H_    0.174465 0.112279 0.538838 0.224265
H6    H     H_    0.299822 0.881541 0.609548 0.198281
H7    H     H_    0.173357 0.889479 0.531791 0.224811
H8    H     H_    0.887599 0.438918 0.380832 0.172592
H9    H     H_    0.097383 0.599224 0.684047 0.207386
H10   H     H_    0.426971 0.287274 0.282176 0.185773
H11   H     H_    0.106470 0.710436 0.597711 0.215897
H12   H     H_    0.856423 0.595347 0.685822 0.186301
H13   H     H_    0.862180 0.708955 0.601116 0.244300
H14   H     H_    0.660110 0.622514 0.228376 0.193291
H15   H     H_    0.637185 0.357457 0.980737 0.151841
H16   H     H_    0.259472 0.344157 0.883677 0.170003
H17   H     H_    0.445866 0.229928 0.139930 0.167126
H18   H     H_    0.278575 0.379329 0.739139 0.149434
H19   H     H_    0.625885 0.557936 0.903584 0.140744
N1    N     N_R   0.857140 0.500860 0.500530 -0.097021
N2    N     N_R   0.142780 0.500820 0.500530 -0.141137
O1    O     O_R   0.385310 0.683210 0.499990 -0.615164
O2    O     O_R   0.614650 0.683240 0.500000 -0.545257
O3    O     O_R   0.371780 0.500000 0.615800 -0.626093
O4    O     O_R   0.601120 0.500040 0.615800 -0.623586
O5    O     O_R   0.385350 0.316760 0.500000 -0.586760
O6    O     O_R   0.614690 0.316790 0.500010 -0.635734
O7    O     O_R   0.398880 0.499960 0.384200 -0.597128
O8    O     O_R   0.628220 0.500000 0.384200 -0.595616
Zn1   Zn    Zn3+2 0.346870 0.499980 0.499990 0.989751
Zn2   Zn    Zn3+2 0.653130 0.500020 0.500010 1.009556
S1    S     S_3+6 0.767258 0.865242 0.397972 0.052290
O9    O     O_2   0.730135 0.752164 0.350842 -0.272095
O10   O     O_2   0.842461 0.955978 0.342052 -0.276819
O11   O     O_3   0.869694 0.820965 0.467741 -0.542047
H20   H     H_    0.892790 0.899740 0.495064 0.331640
C33   C     C_2   0.152369 0.399142 0.365855 0.946354
O12   O     O_2   0.218184 0.304581 0.376451 -0.633663
O13   O     O_R   0.137646 0.442212 0.288442 -0.747849
H21   H     H_    0.188568 0.388413 0.245973 0.383436
S2    S     S_3+6 0.283489 0.465205 0.047801 0.024856
O14   O     O_2   0.217234 0.348392 0.082281 -0.321495
O15   O     O_2   0.315557 0.551629 0.114735 -0.261107
O16   O     O_3   0.175921 0.538387 0.990774 -0.556124
H22   H     H_    0.092447 0.552181 0.026580 0.390190

loop_
_geom_bond_atom_site_label_1
_geom_bond_atom_site_label_2
_ccdc_geom_bond_type
C10   C27   S    
O5    Zn1   S    
C23   O5    A    
C30   H19   S    
C32   H16   S    
S2    O14   D    
C25   H11   S    
C3    H17   S    
C26   H12   S    
C23   O6    A    
C11   C19   S    
C20   C26   S    
C12   C28   S    
C2    C32   A    
C28   C29   A    
C18   H5    S    
C3    C7    A    
C27   O7    A    
C5    C6    A    
C15   C16   A    
C29   H1    S    
O7    Zn1   S    
C18   C19   S    
C33   O13   S    
C2    H18   S    
C26   H13   S    
C20   C24   A    
C16   C17   A    
O2    Zn2   S    
C27   O8    A    
C22   C33   S    
C21   C22   A    
S2    O15   D    
C15   H3    S    
C25   C26   S    
O4    Zn2   S    
C22   N2    A    
O11   H20   S    
S1    O11   S    
C24   C25   S    
C25   H9    S    
C8    C9    D    
O1    Zn1   S    
C24   N2    A    
C6    H2    S    
S1    O10   D    
C1    O1    A    
C29   C30   A    
C19   H6    S    
N2    Zn1   S    
C31   C32   A    
C14   S1    S    
O8    Zn2   S    
C17   C18   S    
O16   H22   S    
C12   O3    A    
C19   H7    S    
C12   O4    A    
C9    H15   S    
C16   C23   S    
S2    O16   S    
O3    Zn1   S    
C1    C13   S    
C4    C10   A    
C3    C4    A    
C7    C9    S    
C11   C17   A    
C8    C31   S    
N1    Zn2   S    
C6    C7    A    
C5    H14   S    
O6    Zn2   S    
S1    O9    D    
C1    O2    A    
O13   H21   S    
C20   N1    A    
C11   C13   A    
C30   C31   A    
C21   H8    S    
C4    H10   S    
C8    S2    S    
C33   O12   D    
C5    C10   A    
C14   C15   A    
C2    C28   A    
C13   C14   A    
C18   H4    S    
C21   N1    A    
