data_mof_unit_28982.cif
_audit_creation_date              2012-12-10T19:49:20-0500
_audit_creation_method            fapswitch 2.2
_symmetry_space_group_name_H-M    P1
_symmetry_Int_Tables_number       1
_space_group_crystal_system       triclinic
_cell_length_a                    15.124442
_cell_length_b                    14.281908
_cell_length_c                    14.947683
_cell_angle_alpha                 90.048525
_cell_angle_beta                  91.627867
_cell_angle_gamma                 90.312996
_cell_volume                      3227.43469301

loop_
_atom_site_label
_atom_site_type_symbol
_atom_type_description
_atom_site_fract_x
_atom_site_fract_y
_atom_site_fract_z
_atom_type_partial_charge
C1    C     C_R   0.328136 0.499537 0.504002 0.953823
C2    C     C_R   0.672307 0.499878 0.502190 0.947106
C3    C     C_R   0.377833 0.382821 0.039115 0.449048
C4    C     C_R   0.624904 0.613982 0.960924 0.451504
C5    C     C_R   0.093713 0.573940 0.487853 0.405390
C6    C     C_R   0.905376 0.416204 0.492014 0.396655
C7    C     C_R   0.906658 0.575114 0.550582 0.380561
C8    C     C_R   0.098080 0.419593 0.556211 0.375363
C9    C     C_R   0.184154 0.580765 0.500529 0.333796
C10   C     C_R   0.814814 0.412922 0.502285 0.330763
C11   C     C_R   0.816672 0.581272 0.529004 0.295343
C12   C     C_R   0.188103 0.415152 0.538955 0.288840
C13   C     C_R   0.232814 0.498218 0.514454 -0.458293
C14   C     C_R   0.768575 0.498263 0.510563 -0.461451
C15   C     C_R   0.049206 0.496103 0.522606 -0.178941
C16   C     C_R   0.952724 0.495391 0.522674 -0.176994
C17   C     C_R   0.479083 0.104533 0.421570 0.244080
C18   C     C_R   0.566556 0.897938 0.541144 0.380302
C19   C     C_R   0.509115 0.105526 0.581169 0.283813
C20   C     C_R   0.425936 0.893912 0.461218 0.388957
C21   C     C_R   0.476482 0.204173 0.423480 0.331356
C22   C     C_R   0.564312 0.799065 0.545661 0.325968
C23   C     C_R   0.519847 0.204529 0.577345 0.338307
C24   C     C_R   0.432741 0.795466 0.455739 0.329226
C25   C     C_R   0.492875 0.053748 0.501674 -0.110126
C26   C     C_R   0.494791 0.947433 0.501686 -0.201925
C27   C     C_R   0.497769 0.500016 0.327182 0.857027
C28   C     C_R   0.502304 0.499920 0.672813 0.846850
C29   C     C_R   0.568789 0.554253 0.816113 0.452572
C30   C     C_R   0.432250 0.444395 0.183825 0.478334
C31   C     C_R   0.506639 0.499096 0.768305 -0.194341
C32   C     C_R   0.493847 0.500319 0.231668 -0.196778
C33   C     C_R   0.446144 0.442764 0.810693 -0.246847
C34   C     C_R   0.555093 0.555778 0.189300 -0.262588
C35   C     C_R   0.441488 0.443357 0.903026 0.004883
C36   C     C_R   0.560548 0.554259 0.097024 0.012710
C37   C     C_R   0.502285 0.499488 0.953329 -0.125201
C38   C     C_R   0.499795 0.498085 0.046723 -0.123779
C39   C     C_R   0.565415 0.557000 0.909930 -0.034672
C40   C     C_R   0.436539 0.440705 0.090098 -0.040920
C41   C     C_R   0.378031 0.387324 0.945444 0.289113
C42   C     C_R   0.624692 0.609485 0.054621 0.286739
H1    H     H_    0.402547 0.398713 0.769909 0.194083
H2    H     H_    0.598619 0.599938 0.230044 0.179589
N1    N     N_R   0.500000 0.252470 0.500000 -0.148658
N2    N     N_R   0.500000 0.747530 0.500000 -0.262758
O1    O     O_R   0.369060 0.579480 0.500010 -0.598956
O2    O     O_R   0.630940 0.420520 0.499990 -0.577658
O3    O     O_R   0.630940 0.579480 0.499990 -0.613187
O4    O     O_R   0.369060 0.420520 0.500010 -0.594099
O5    O     O_R   0.499980 0.579490 0.367850 -0.662515
O6    O     O_R   0.500020 0.420510 0.632150 -0.545323
O7    O     O_R   0.500020 0.579490 0.632150 -0.647494
O8    O     O_R   0.499980 0.420510 0.367850 -0.529211
Zn1   Zn    Zn3+2 0.500000 0.606140 0.500000 0.937327
Zn2   Zn    Zn3+2 0.500000 0.393860 0.500000 1.035616
O9    O     O_3   0.634497 0.602720 0.772782 -0.687106
H3    H     H_    0.649086 0.569250 0.717087 0.309664
O10   O     O_3   0.366076 0.396106 0.226767 -0.681863
H4    H     H_    0.353137 0.427214 0.284111 0.317719
O11   O     O_3   0.315455 0.336240 0.896957 -0.811529
H5    H     H_    0.288774 0.378237 0.851000 0.324674
O12   O     O_3   0.687830 0.659900 0.103099 -0.795484
H6    H     H_    0.713448 0.617980 0.149716 0.324977
O13   O     O_3   0.319862 0.323718 0.082219 -0.694780
H7    H     H_    0.287100 0.283319 0.038737 0.373209
O14   O     O_3   0.683613 0.672211 0.917786 -0.695598
H8    H     H_    0.717188 0.711894 0.961249 0.373491
O15   O     O_3   0.049556 0.646716 0.445928 -0.593291
C43   C     C_3   0.036282 0.625550 0.353928 0.071346
H9    H     H_    0.964548 0.612202 0.341109 0.136578
H10   H     H_    0.072676 0.562473 0.330461 0.104443
C44   C     C_3   0.065524 0.709679 0.298796 -0.306184
H11   H     H_    0.032129 0.773861 0.322316 0.230392
H12   H     H_    0.138086 0.719910 0.308436 0.246766
C45   C     C_3   0.043658 0.695580 0.199425 -0.950592
H13   H     H_    0.078003 0.632772 0.174048 0.268622
H14   H     H_    0.065889 0.757750 0.161409 0.271205
H15   H     H_    0.971168 0.686831 0.188146 0.265767
O16   O     O_3   0.946522 0.338821 0.456920 -0.579286
C46   C     C_3   0.963405 0.354792 0.365514 0.091796
H16   H     H_    0.034202 0.374566 0.359476 0.132953
H17   H     H_    0.922326 0.411548 0.334116 0.101142
C47   C     C_3   0.944699 0.264461 0.313318 -0.312332
H18   H     H_    0.982320 0.205855 0.344499 0.233855
H19   H     H_    0.873058 0.247236 0.316160 0.234709
C48   C     C_3   0.970202 0.274034 0.215706 -0.956319
H20   H     H_    0.931478 0.330761 0.182573 0.265063
H21   H     H_    0.955985 0.207269 0.179866 0.270392
H22   H     H_    0.041903 0.290052 0.211335 0.272595
O17   O     O_3   0.951239 0.650986 0.588414 -0.607469
C49   C     C_3   0.924954 0.665246 0.677599 0.118135
H23   H     H_    0.979427 0.641577 0.723470 0.126105
H24   H     H_    0.864029 0.626017 0.696239 0.150614
C50   C     C_3   0.909198 0.769675 0.692156 -0.313754
H25   H     H_    0.968971 0.810138 0.673834 0.214959
H26   H     H_    0.853012 0.792565 0.648211 0.264598
C51   C     C_3   0.887745 0.790711 0.789188 -0.895447
H27   H     H_    0.826980 0.752422 0.808208 0.313026
H28   H     H_    0.876371 0.866966 0.797182 0.264354
H29   H     H_    0.943667 0.769797 0.834507 0.250290
O18   O     O_3   0.056720 0.344347 0.595869 -0.596670
C52   C     C_3   0.077108 0.343316 0.688778 0.119678
H30   H     H_    0.024457 0.381658 0.723833 0.126349
H31   H     H_    0.142086 0.376542 0.707574 0.131706
C53   C     C_3   0.079630 0.241630 0.720513 -0.318654
H32   H     H_    0.018767 0.204336 0.696772 0.228802
H33   H     H_    0.137344 0.206137 0.691282 0.235897
C54   C     C_3   0.086815 0.235380 0.822320 -0.963526
H34   H     H_    0.147338 0.272057 0.847739 0.293059
H35   H     H_    0.090436 0.160759 0.842820 0.270850
H36   H     H_    0.027928 0.267371 0.852607 0.266106
O19   O     O_3   0.222959 0.668421 0.496596 -0.570461
C55   C     C_3   0.243409 0.699955 0.585059 0.172534
H37   H     H_    0.287393 0.761794 0.579747 0.163845
H38   H     H_    0.281586 0.647413 0.625173 0.121598
C56   C     C_3   0.160415 0.727506 0.635567 -0.383086
H39   H     H_    0.114331 0.766596 0.590562 0.280964
H40   H     H_    0.126099 0.663037 0.657789 0.216355
C57   C     C_3   0.183882 0.786795 0.717940 -1.000997
H41   H     H_    0.228822 0.747493 0.764228 0.273203
H42   H     H_    0.122697 0.804156 0.753617 0.276954
H43   H     H_    0.216706 0.853075 0.698116 0.260151
O20   O     O_3   0.773557 0.326120 0.498368 -0.596420
C58   C     C_3   0.754165 0.296217 0.586413 0.166019
H44   H     H_    0.709558 0.234506 0.579759 0.175123
H45   H     H_    0.717939 0.350428 0.624260 0.155954
C59   C     C_3   0.836785 0.266657 0.641216 -0.399548
H46   H     H_    0.872316 0.211144 0.605129 0.260981
H47   H     H_    0.881955 0.327414 0.650995 0.235063
C60   C     C_3   0.812053 0.231298 0.733658 -0.969854
H48   H     H_    0.781948 0.288674 0.772499 0.272331
H49   H     H_    0.872229 0.206859 0.770677 0.274355
H50   H     H_    0.764216 0.172265 0.727999 0.274609
O21   O     O_3   0.776791 0.668124 0.530098 -0.569862
C61   C     C_3   0.771855 0.704618 0.441778 0.210444
H51   H     H_    0.707235 0.740385 0.432753 0.168406
H52   H     H_    0.773552 0.650024 0.388167 0.084583
C62   C     C_3   0.845330 0.776699 0.428372 -0.394055
H53   H     H_    0.841584 0.832101 0.479931 0.234618
H54   H     H_    0.910464 0.742864 0.436815 0.284023
C63   C     C_3   0.838334 0.820533 0.335384 -0.998694
H55   H     H_    0.843809 0.765740 0.283079 0.281665
H56   H     H_    0.892745 0.872070 0.327444 0.271077
H57   H     H_    0.774220 0.857233 0.326042 0.260659
O22   O     O_3   0.231773 0.331187 0.553045 -0.611707
C64   C     C_3   0.239777 0.283864 0.470157 0.195769
H58   H     H_    0.303885 0.246464 0.472477 0.168697
H59   H     H_    0.241489 0.331770 0.411079 0.135953
C65   C     C_3   0.166611 0.210917 0.456268 -0.420924
H60   H     H_    0.171512 0.158523 0.510930 0.220455
H61   H     H_    0.101112 0.244768 0.458770 0.284364
C66   C     C_3   0.174422 0.162730 0.365569 -0.942747
H62   H     H_    0.167984 0.214877 0.310720 0.281715
H63   H     H_    0.120883 0.109950 0.356257 0.264706
H64   H     H_    0.239325 0.127277 0.361153 0.293165
O23   O     O_3   0.463648 0.057525 0.341625 -0.583988
C67   C     C_3   0.545493 0.038456 0.302587 0.089354
H65   H     H_    0.586608 0.992420 0.346805 0.112513
H66   H     H_    0.582279 0.104685 0.289447 0.142187
C68   C     C_3   0.528266 0.987333 0.213967 -0.302034
H67   H     H_    0.489114 0.922676 0.226098 0.247163
H68   H     H_    0.489301 0.033150 0.167688 0.232456
C69   C     C_3   0.614591 0.960628 0.170321 -0.930249
H69   H     H_    0.654747 0.024213 0.157051 0.263375
H70   H     H_    0.599740 0.924437 0.105811 0.284341
H71   H     H_    0.653305 0.912541 0.214491 0.264634
O24   O     O_3   0.637487 0.944736 0.581760 -0.534737
C70   C     C_3   0.694440 0.977924 0.515252 0.115580
H72   H     H_    0.665107 0.039732 0.480834 0.113710
H73   H     H_    0.707732 0.922786 0.464687 0.113763
C71   C     C_3   0.782163 0.008657 0.559412 -0.306008
H74   H     H_    0.769255 0.062006 0.611252 0.233724
H75   H     H_    0.814243 0.947849 0.592868 0.222308
C72   C     C_3   0.844659 0.050192 0.491207 -0.994801
H76   H     H_    0.856079 0.999646 0.436456 0.273665
H77   H     H_    0.909375 0.067003 0.524498 0.272050
H78   H     H_    0.816378 0.115441 0.462156 0.289703
O25   O     O_3   0.518111 0.060163 0.662831 -0.591437
C73   C     C_3   0.433521 0.036560 0.694677 0.092927
H79   H     H_    0.442277 0.977479 0.742340 0.180976
H80   H     H_    0.387128 0.011075 0.640854 0.099677
C74   C     C_3   0.392519 0.119103 0.744228 -0.348458
H81   H     H_    0.438519 0.142847 0.799062 0.249277
H82   H     H_    0.381153 0.178409 0.697338 0.238409
C75   C     C_3   0.304109 0.091526 0.783563 -0.925523
H83   H     H_    0.256502 0.069539 0.729468 0.247493
H84   H     H_    0.276280 0.152421 0.819103 0.305922
H85   H     H_    0.313170 0.033184 0.831991 0.264999
O26   O     O_3   0.354615 0.937146 0.418716 -0.547766
C76   C     C_3   0.286038 0.952281 0.479575 0.128229
H86   H     H_    0.281023 0.028739 0.491704 0.142761
H87   H     H_    0.296709 0.918167 0.546056 0.070808
C77   C     C_3   0.198774 0.915775 0.437994 -0.270824
H88   H     H_    0.188422 0.945630 0.369908 0.227795
H89   H     H_    0.202652 0.838574 0.431122 0.278967
C78   C     C_3   0.119555 0.940033 0.494730 -1.012696
H90   H     H_    0.133926 0.925740 0.566548 0.270179
H91   H     H_    0.061203 0.897742 0.472185 0.280435
H92   H     H_    0.102476 0.014901 0.487470 0.271342
O27   O     O_3   0.449940 0.254140 0.348764 -0.698303
H93   H     H_    0.428041 0.211237 0.300954 0.378484
O28   O     O_3   0.629058 0.757132 0.597588 -0.659456
H94   H     H_    0.609430 0.693143 0.610512 0.402196
O29   O     O_3   0.548880 0.254396 0.651573 -0.746119
H95   H     H_    0.569639 0.211127 0.699305 0.354519
O30   O     O_3   0.368553 0.750179 0.404998 -0.702002
H96   H     H_    0.392430 0.689975 0.385874 0.388166

loop_
_geom_bond_atom_site_label_1
_geom_bond_atom_site_label_2
_ccdc_geom_bond_type
C77   H89   S    
C48   H20   S    
O26   C76   S    
C23   N1    A    
C44   H12   S    
C44   H11   S    
C36   C42   A    
C64   H58   S    
C18   C26   A    
C45   H15   S    
C41   O11   S    
O28   H94   S    
C60   H50   S    
C59   H46   S    
C68   C69   S    
C56   H40   S    
C55   H37   S    
C50   C51   S    
O21   C61   S    
C72   H77   S    
O29   H95   S    
C71   H74   S    
C7    C11   A    
C68   H68   S    
C53   H33   S    
C22   O28   S    
C69   H69   S    
C64   H59   S    
C47   H19   S    
O22   C64   S    
C10   O20   S    
O15   C43   S    
C74   H82   S    
C20   O26   S    
C33   C35   A    
C62   C63   S    
C77   C78   S    
C53   H32   S    
C15   C16   S    
O27   H93   S    
C12   O22   S    
C78   H91   S    
C9    C13   A    
C5    O15   S    
C67   C68   S    
O18   C52   S    
O24   C70   S    
O23   C67   S    
C50   H25   S    
N1    Zn2   S    
C73   H80   S    
C65   C66   S    
N2    Zn1   S    
C58   C59   S    
C47   C48   S    
C43   H9    S    
C66   H63   S    
C17   O23   S    
C1    O4    A    
O5    Zn1   S    
C73   C74   S    
C62   H54   S    
C77   H88   S    
O10   H4    S    
C38   C40   A    
C23   O29   S    
C67   H66   S    
C70   H73   S    
C63   H57   S    
C3    O13   S    
C61   C62   S    
C2    C14   S    
C49   H24   S    
C46   H17   S    
C71   H75   S    
C46   H16   S    
C72   H78   S    
C21   N1    A    
O7    Zn1   S    
O8    Zn2   S    
C27   O8    A    
C63   H55   S    
O30   H96   S    
C33   H1    S    
C70   H72   S    
C21   O27   S    
C64   C65   S    
C34   H2    S    
C47   H18   S    
C61   H52   S    
C10   C14   A    
C54   H36   S    
O17   C49   S    
C18   O24   S    
C1    O1    A    
C2    O2    A    
C25   C26   S    
O3    Zn1   S    
C49   C50   S    
C17   C21   A    
C76   H86   S    
C57   H43   S    
C32   C34   A    
C78   H92   S    
C19   C23   A    
O14   H8    S    
C76   H87   S    
C74   H81   S    
C5    C9    A    
C37   C38   A    
C2    O3    A    
C11   O21   S    
C6    O16   S    
C78   H90   S    
C4    C39   A    
C8    C12   A    
C20   C26   A    
C7    O17   S    
C30   O10   S    
C29   C39   A    
C43   C44   S    
C31   C33   A    
C28   O7    A    
C30   C40   A    
C65   H61   S    
C52   H31   S    
C45   H13   S    
C66   H64   S    
C35   C41   A    
C7    C16   A    
C22   N2    A    
C29   O9    S    
C3    C40   A    
C51   H27   S    
C8    C15   A    
C51   H28   S    
C48   H21   S    
C58   H44   S    
C44   C45   S    
C63   H56   S    
C56   C57   S    
C1    C13   S    
C75   H84   S    
C60   H48   S    
C59   C60   S    
C19   O25   S    
C46   C47   S    
C57   H41   S    
C57   H42   S    
O1    Zn1   S    
O19   C55   S    
O2    Zn2   S    
C50   H26   S    
C3    C41   A    
C35   C37   A    
C27   C32   S    
C18   C22   A    
C28   C31   S    
C45   H14   S    
O16   C46   S    
C60   H49   S    
C59   H47   S    
C6    C10   A    
C4    O14   S    
C55   H38   S    
C62   H53   S    
C71   C72   S    
O25   C73   S    
C51   H29   S    
C24   O30   S    
C74   C75   S    
C17   C25   A    
C75   H85   S    
C69   H70   S    
C66   H62   S    
C76   C77   S    
C24   N2    A    
C37   C39   A    
C72   H76   S    
C68   H67   S    
C54   H34   S    
C30   C32   A    
C27   O5    A    
C28   O6    A    
O9    H3    S    
C67   H65   S    
C4    C42   A    
C54   H35   S    
C36   C38   A    
C49   H23   S    
C11   C14   A    
C52   C53   S    
C34   C36   A    
C69   H71   S    
O11   H5    S    
C19   C25   A    
O4    Zn2   S    
C9    O19   S    
C5    C15   A    
C55   C56   S    
C6    C16   A    
O12   H6    S    
C12   C13   A    
C29   C31   A    
O13   H7    S    
C48   H22   S    
C52   H30   S    
C58   H45   S    
C65   H60   S    
C61   H51   S    
C43   H10   S    
C70   C71   S    
C75   H83   S    
C56   H39   S    
C8    O18   S    
C42   O12   S    
C20   C24   A    
C73   H79   S    
O6    Zn2   S    
O20   C58   S    
C53   C54   S    
