data_mof_unit_59050.cif
_audit_creation_date              2012-12-10T18:25:30-0500
_audit_creation_method            fapswitch 2.2
_symmetry_space_group_name_H-M    P1
_symmetry_Int_Tables_number       1
_space_group_crystal_system       triclinic
_cell_length_a                    14.854334
_cell_length_b                    14.27819
_cell_length_c                    19.166949
_cell_angle_alpha                 89.89964
_cell_angle_beta                  85.971239
_cell_angle_gamma                 90.45218
_cell_volume                      4054.99323345

loop_
_atom_site_label
_atom_site_type_symbol
_atom_type_description
_atom_site_fract_x
_atom_site_fract_y
_atom_site_fract_z
_atom_type_partial_charge
C1    C     C_R   0.327369 0.499789 0.500230 0.888857
C2    C     C_R   0.672630 0.500213 0.499759 0.888967
C3    C     C_R   0.807443 0.466940 0.558624 -0.196595
C4    C     C_R   0.192560 0.533060 0.441346 -0.196405
C5    C     C_R   0.900565 0.466756 0.559288 0.119808
C6    C     C_R   0.099434 0.533249 0.440680 0.119636
C7    C     C_R   0.953200 0.499782 0.499887 0.063386
C8    C     C_R   0.046797 0.500224 0.500080 0.063385
C9    C     C_R   0.912125 0.532251 0.440254 0.103068
C10   C     C_R   0.087869 0.467763 0.559716 0.103052
C11   C     C_R   0.941787 0.434631 0.618165 -0.162045
C12   C     C_R   0.058211 0.565379 0.381804 -0.161906
C13   C     C_R   0.035347 0.435245 0.618413 -0.155189
C14   C     C_R   0.964648 0.564774 0.381559 -0.155296
C15   C     C_R   0.577454 0.801889 0.478570 0.424655
C16   C     C_R   0.422515 0.198105 0.521360 0.424683
C17   C     C_R   0.422476 0.800389 0.521621 0.417601
C18   C     C_R   0.577551 0.199608 0.478433 0.417918
C19   C     C_R   0.419329 0.899223 0.510312 -0.092089
C20   C     C_R   0.580677 0.100760 0.489707 -0.092342
C21   C     C_R   0.580626 0.900657 0.489958 -0.091051
C22   C     C_R   0.419366 0.099325 0.510002 -0.091281
C23   C     C_R   0.499987 0.949892 0.500069 0.039026
C24   C     C_R   0.500012 0.050094 0.499923 0.038789
C25   C     C_R   0.337975 0.949642 0.511156 -0.061396
C26   C     C_R   0.662028 0.050317 0.488854 -0.061418
C27   C     C_R   0.661995 0.952429 0.489061 -0.056063
C28   C     C_R   0.338001 0.047530 0.510895 -0.056122
C29   C     C_R   0.500008 0.500077 0.365717 0.932661
C30   C     C_R   0.500030 0.499940 0.634284 0.932289
C31   C     C_R   0.493867 0.585047 0.253774 -0.238263
C32   C     C_R   0.493437 0.415094 0.747053 -0.241378
C33   C     C_R   0.505252 0.584807 0.746138 -0.211269
C34   C     C_R   0.508023 0.415742 0.253032 -0.214515
C35   C     C_R   0.494386 0.586140 0.181260 0.410620
C36   C     C_R   0.492901 0.414278 0.819570 0.408228
C37   C     C_R   0.504836 0.585799 0.818632 0.406266
C38   C     C_R   0.508694 0.415032 0.180522 0.403590
C39   C     C_R   0.501635 0.500663 0.144796 -0.206963
C40   C     C_R   0.498816 0.500072 0.855195 -0.206861
C41   C     C_R   0.500578 0.500284 0.289765 -0.194096
C42   C     C_R   0.499620 0.499908 0.710234 -0.192963
C43   C     C_R   0.499511 0.500125 0.930224 0.446673
C44   C     C_R   0.500944 0.500697 0.069767 0.446413
C45   C     C_R   0.818988 0.531649 0.440620 -0.142547
C46   C     C_R   0.181002 0.468375 0.559357 -0.142554
C47   C     C_R   0.767991 0.500246 0.499818 -0.004906
C48   C     C_R   0.232007 0.499758 0.500158 -0.004918
H1    H     H_    0.487854 0.650383 0.282218 0.229333
H2    H     H_    0.488951 0.349469 0.719296 0.235121
H3    H     H_    0.510287 0.650374 0.717645 0.231726
H4    H     H_    0.513420 0.350231 0.280855 0.239813
H5    H     H_    0.786096 0.554807 0.395030 0.156466
H6    H     H_    0.213878 0.445258 0.604961 0.156811
H7    H     H_    0.765486 0.442133 0.603646 0.141210
H8    H     H_    0.234521 0.557864 0.396325 0.140992
H9    H     H_    0.901729 0.409271 0.663861 0.171457
H10   H     H_    0.098270 0.590742 0.336109 0.171995
H11   H     H_    0.066624 0.410222 0.664263 0.172478
H12   H     H_    0.933372 0.589805 0.335712 0.172326
H13   H     H_    0.273404 0.914046 0.511732 0.207831
H14   H     H_    0.726608 0.085886 0.488302 0.207897
H15   H     H_    0.726541 0.917860 0.488670 0.208666
H16   H     H_    0.273447 0.082073 0.511248 0.208686
N1    N     N_R   0.421475 0.498952 0.039350 -0.070927
N2    N     N_R   0.578978 0.501980 0.960643 -0.071291
N3    N     N_R   0.420760 0.498579 0.970212 -0.066742
N4    N     N_R   0.579696 0.502130 0.029781 -0.067059
N5    N     N_R   0.500000 0.750030 0.500000 -0.211182
N6    N     N_R   0.500000 0.249970 0.500000 -0.210830
O1    O     O_R   0.367850 0.580280 0.500020 -0.560768
O2    O     O_R   0.632150 0.419720 0.499980 -0.559267
O3    O     O_R   0.632150 0.580280 0.499980 -0.546128
O4    O     O_R   0.367850 0.419720 0.500020 -0.544689
O5    O     O_R   0.499990 0.580300 0.398140 -0.580380
O6    O     O_R   0.500010 0.419700 0.601860 -0.580915
O7    O     O_R   0.500010 0.580300 0.601860 -0.579463
O8    O     O_R   0.499990 0.419700 0.398140 -0.579940
Zn1   Zn    Zn3+2 0.500000 0.607200 0.500000 1.089450
Zn2   Zn    Zn3+2 0.500000 0.392800 0.500000 1.089856
S1    S     S_3+6 0.485483 0.694815 0.137409 0.064735
O9    O     O_2   0.397688 0.696775 0.102963 -0.261376
O10   O     O_2   0.488468 0.775008 0.187947 -0.245254
O11   O     O_3   0.571314 0.706139 0.075871 -0.503772
H17   H     H_    0.557902 0.763697 0.049745 0.407917
S2    S     S_3+6 0.484913 0.305503 0.864506 0.065543
O12   O     O_2   0.397632 0.301759 0.909150 -0.251612
O13   O     O_2   0.487577 0.225264 0.813728 -0.244638
O14   O     O_3   0.571496 0.296153 0.916022 -0.510267
H18   H     H_    0.559226 0.237778 0.943146 0.407251
S3    S     S_3+6 0.512206 0.694713 0.862330 0.070316
O15   O     O_2   0.600124 0.699617 0.896521 -0.260148
O16   O     O_2   0.507714 0.774832 0.811720 -0.239309
O17   O     O_3   0.426477 0.703090 0.924075 -0.501948
H19   H     H_    0.439039 0.761121 0.950034 0.407749
S4    S     S_3+6 0.518318 0.306577 0.135723 0.071399
O18   O     O_2   0.605415 0.305919 0.090802 -0.249475
O19   O     O_2   0.517316 0.226244 0.186599 -0.238224
O20   O     O_3   0.431608 0.294192 0.084529 -0.509538
H20   H     H_    0.444836 0.236391 0.057339 0.407017
S5    S     S_3+6 0.671570 0.755188 0.426655 0.047372
O21   O     O_2   0.709558 0.829990 0.377302 -0.281652
O22   O     O_2   0.743593 0.728411 0.474048 -0.305496
O23   O     O_3   0.646190 0.663698 0.376965 -0.543573
H21   H     H_    0.690404 0.665802 0.335815 0.371460
S6    S     S_3+6 0.328255 0.244830 0.573098 0.047129
O24   O     O_2   0.256312 0.271388 0.525569 -0.304713
O25   O     O_2   0.290251 0.170117 0.622525 -0.280442
O26   O     O_3   0.353401 0.336510 0.622667 -0.549099
H22   H     H_    0.309428 0.334169 0.663962 0.371034
S7    S     S_3+6 0.327873 0.751706 0.573256 0.062407
O27   O     O_2   0.290194 0.824962 0.623249 -0.254836
O28   O     O_2   0.255830 0.725213 0.525454 -0.320269
O29   O     O_3   0.351758 0.659489 0.622548 -0.519626
H23   H     H_    0.292491 0.635417 0.642058 0.370174
S8    S     S_3+6 0.672292 0.248313 0.426961 0.061585
O30   O     O_2   0.744276 0.274528 0.474893 -0.319496
O31   O     O_2   0.709937 0.175151 0.376873 -0.254041
O32   O     O_3   0.648679 0.340754 0.377816 -0.526668
H24   H     H_    0.707975 0.364326 0.357977 0.370715

loop_
_geom_bond_atom_site_label_1
_geom_bond_atom_site_label_2
_ccdc_geom_bond_type
C18   N6    A    
N2    N4    A    
C9    C45   A    
S5    O21   D    
C19   C23   A    
S7    O27   D    
O1    Zn1   S    
O29   H23   S    
C35   S1    S    
C7    C8    A    
C25   C28   A    
C17   N5    A    
C26   C27   A    
C1    O1    A    
C20   C26   A    
C1    O4    A    
C32   C36   A    
C5    C11   A    
C37   C40   A    
C6    C12   A    
C38   C39   A    
O8    Zn2   S    
S6    O24   D    
S4    O20   S    
S8    O30   D    
C30   O7    A    
C3    H7    S    
C40   C43   S    
C29   O8    A    
C20   C24   A    
N1    N3    A    
S4    O19   D    
C10   C46   A    
C23   C24   A    
C18   C20   A    
C16   S6    S    
C12   H10   S    
C45   C47   A    
C21   C27   A    
C45   H5    S    
S5    O22   D    
O4    Zn2   S    
C4    H8    S    
C44   N1    A    
C34   C41   A    
C31   H1    S    
C2    O2    A    
C17   S7    S    
O23   H21   S    
S1    O10   D    
S1    O9    D    
O7    Zn1   S    
C15   N5    A    
C46   C48   A    
C37   S3    S    
N6    Zn2   S    
C36   C40   A    
C16   N6    A    
O11   H17   S    
C4    C6    A    
C18   S8    S    
S3    O15   D    
C5    C7    A    
S2    O12   D    
C6    C8    A    
C36   S2    S    
C10   C13   A    
C33   C37   A    
C35   C39   A    
C9    C14   A    
S3    O16   D    
C30   O6    A    
O20   H20   S    
S4    O18   D    
C46   H6    S    
O3    Zn1   S    
S7    O28   D    
C25   H13   S    
C15   S5    S    
C32   H2    S    
C2    O3    A    
C27   H15   S    
C13   H11   S    
C28   H16   S    
C43   N3    A    
C12   C14   A    
S5    O23   S    
C21   C23   A    
C22   C24   A    
C44   N4    A    
C33   C42   A    
S1    O11   S    
C4    C48   A    
C7    C9    A    
C16   C22   A    
C31   C41   A    
C29   C41   S    
C34   C38   A    
O6    Zn2   S    
C3    C5    A    
S2    O14   S    
O32   H24   S    
C1    C48   S    
C39   C44   S    
C29   O5    A    
C2    C47   S    
C33   H3    S    
C14   H12   S    
C34   H4    S    
S8    O32   S    
C26   H14   S    
O2    Zn2   S    
O26   H22   S    
S3    O17   S    
C11   C13   A    
S6    O25   D    
C43   N2    A    
C31   C35   A    
C3    C47   A    
C17   C19   A    
S8    O31   D    
S7    O29   S    
S2    O13   D    
O17   H19   S    
C19   C25   A    
N5    Zn1   S    
C15   C21   A    
C8    C10   A    
C38   S4    S    
C32   C42   A    
C30   C42   S    
C22   C28   A    
O14   H18   S    
C11   H9    S    
O5    Zn1   S    
S6    O26   S    
