data_mof_unit_32241.cif
_audit_creation_date              2012-12-10T17:40:26-0500
_audit_creation_method            fapswitch 2.2
_symmetry_space_group_name_H-M    P1
_symmetry_Int_Tables_number       1
_space_group_crystal_system       triclinic
_cell_length_a                    13.813012
_cell_length_b                    15.027122
_cell_length_c                    15.685513
_cell_angle_alpha                 88.36652
_cell_angle_beta                  70.813112
_cell_angle_gamma                 88.748539
_cell_volume                      3073.46460344

loop_
_atom_site_label
_atom_site_type_symbol
_atom_type_description
_atom_site_fract_x
_atom_site_fract_y
_atom_site_fract_z
_atom_type_partial_charge
C1    C     C_R   0.499996 0.670962 0.497643 0.814042
C2    C     C_R   0.500027 0.329013 0.502293 0.812102
C3    C     C_R   0.374373 0.575785 0.092728 0.141102
C4    C     C_R   0.621918 0.577011 0.904110 0.139187
C5    C     C_R   0.304638 0.573911 0.045492 -0.274960
C6    C     C_R   0.691671 0.576686 0.951462 -0.278116
C7    C     C_R   0.428797 0.184963 0.575496 0.106088
C8    C     C_R   0.571062 0.814926 0.424267 0.105594
C9    C     C_R   0.500833 0.232453 0.505145 -0.120196
C10   C     C_R   0.499199 0.767470 0.494763 -0.118750
C11   C     C_R   0.573750 0.188054 0.435567 -0.262409
C12   C     C_R   0.426487 0.811840 0.564491 -0.258269
C13   C     C_R   0.574589 0.095204 0.432364 0.109994
C14   C     C_R   0.425616 0.904676 0.567656 0.109324
C15   C     C_R   0.500760 0.046676 0.501413 -0.027836
C16   C     C_R   0.499364 0.953205 0.498537 -0.028293
C17   C     C_R   0.428301 0.091615 0.573416 0.100748
C18   C     C_R   0.571721 0.908265 0.426457 0.101130
C19   C     C_R   0.646743 0.050209 0.360829 0.140199
C20   C     C_R   0.353510 0.949653 0.639225 0.141475
C21   C     C_R   0.644216 0.957332 0.358372 -0.219442
C22   C     C_R   0.355874 0.042539 0.641558 -0.220730
C23   C     C_R   0.437843 0.501516 0.672408 0.788359
C24   C     C_R   0.562057 0.502262 0.327549 0.790502
C25   C     C_R   0.221656 0.564047 0.450356 0.285702
C26   C     C_R   0.778332 0.436107 0.549798 0.290618
C27   C     C_R   0.189339 0.437611 0.550044 -0.026583
C28   C     C_R   0.810750 0.562230 0.449690 -0.025464
C29   C     C_R   0.086429 0.436325 0.551247 -0.001320
C30   C     C_R   0.913721 0.563511 0.448397 0.000975
C31   C     C_R   0.051781 0.499754 0.499507 0.050868
C32   C     C_R   0.948374 0.500123 0.500165 0.049443
C33   C     C_R   0.120057 0.563461 0.447819 0.014058
C34   C     C_R   0.880076 0.436491 0.551966 0.009912
C35   C     C_R   0.017357 0.373124 0.603208 -0.215959
C36   C     C_R   0.982867 0.626636 0.396317 -0.216973
C37   C     C_R   0.915720 0.373014 0.603544 -0.179579
C38   C     C_R   0.084490 0.626827 0.396080 -0.189175
C39   C     C_R   0.401318 0.514202 0.770514 -0.077354
C40   C     C_R   0.597914 0.516199 0.229005 -0.079799
C41   C     C_R   0.265198 0.547533 0.909355 -0.180748
C42   C     C_R   0.732292 0.551823 0.088863 -0.180089
C43   C     C_R   0.297051 0.528370 0.817853 -0.186705
C44   C     C_R   0.701385 0.532197 0.181159 -0.189726
C45   C     C_R   0.472849 0.519596 0.815814 -0.191025
C46   C     C_R   0.526091 0.520895 0.183546 -0.201722
C47   C     C_R   0.443559 0.546848 0.905797 0.100546
C48   C     C_R   0.554083 0.548351 0.092404 0.100841
C49   C     C_R   0.337506 0.555930 0.953813 0.123690
C50   C     C_R   0.659652 0.558835 0.043992 0.124973
C51   C     C_R   0.516248 0.560130 0.950740 0.012643
C52   C     C_R   0.480816 0.560220 0.046856 0.013609
Cu1   Cu    Cu3+1 0.402580 0.500010 0.499990 0.929727
Cu2   Cu    Cu3+1 0.597420 0.499990 0.500010 0.933393
H1    H     H_    0.215661 0.389259 0.590068 0.127132
H2    H     H_    0.784430 0.610503 0.409579 0.125109
H3    H     H_    0.865313 0.322761 0.644713 0.171969
H4    H     H_    0.134964 0.677011 0.354847 0.169303
H5    H     H_    0.628159 0.226994 0.382782 0.175620
H6    H     H_    0.372216 0.772887 0.617378 0.176619
N1    N     N_R   0.256170 0.500070 0.500040 -0.192748
N2    N     N_R   0.743830 0.499930 0.499960 -0.190424
O1    O     O_R   0.417730 0.629750 0.499970 -0.596178
O2    O     O_R   0.582270 0.370250 0.500030 -0.593773
O3    O     O_R   0.582270 0.629730 0.499980 -0.575274
O4    O     O_R   0.417730 0.370270 0.500020 -0.577195
O5    O     O_R   0.371590 0.500020 0.629830 -0.582309
O6    O     O_R   0.628410 0.499980 0.370170 -0.581523
O7    O     O_R   0.536130 0.499990 0.629840 -0.587995
O8    O     O_R   0.463870 0.500010 0.370160 -0.591371
H7    H     H_    0.223868 0.585535 0.081423 0.144252
H8    H     H_    0.771856 0.589316 0.914992 0.144831
N3    N     N_3   0.284067 0.637083 0.404660 -0.616896
H9    H     H_    0.356471 0.616746 0.364311 0.273147
H10   H     H_    0.285845 0.684584 0.451320 0.240117
N4    N     N_3   0.715603 0.363584 0.596377 -0.624179
H11   H     H_    0.643776 0.384398 0.637524 0.255478
H12   H     H_    0.712738 0.315805 0.550346 0.242081
H13   H     H_    0.041871 0.323587 0.643632 0.140467
H14   H     H_    0.958401 0.676088 0.355783 0.138530
H15   H     H_    0.449003 0.499916 0.219638 0.184205
H16   H     H_    0.550878 0.499560 0.780544 0.178944
H17   H     H_    0.758388 0.529516 0.214898 0.154686
H18   H     H_    0.240154 0.524726 0.784305 0.156384
H19   H     H_    0.184028 0.556399 0.945269 0.131634
H20   H     H_    0.812985 0.561929 0.052593 0.131343
N5    N     N_3   0.337297 0.603625 0.184640 -0.610722
H21   H     H_    0.279299 0.560322 0.221278 0.221630
H22   H     H_    0.304672 0.667267 0.186200 0.230055
N6    N     N_3   0.657694 0.604637 0.810832 -0.595761
H23   H     H_    0.717678 0.561888 0.776265 0.216838
H24   H     H_    0.687323 0.668709 0.806232 0.231090
N7    N     N_3   0.357787 0.230616 0.650125 -0.616197
H25   H     H_    0.308397 0.269703 0.626280 0.225505
H26   H     H_    0.398761 0.272023 0.678071 0.208919
N8    N     N_3   0.641667 0.769254 0.349392 -0.614920
H27   H     H_    0.691151 0.729957 0.372934 0.224040
H28   H     H_    0.600375 0.728028 0.321577 0.215862
N9    N     N_3   0.722326 0.098995 0.290696 -0.596420
H29   H     H_    0.775462 0.122878 0.318719 0.213871
H30   H     H_    0.762954 0.056870 0.238725 0.218027
N10   N     N_3   0.278124 0.900841 0.709497 -0.594762
H31   H     H_    0.224766 0.877009 0.681695 0.212521
H32   H     H_    0.237729 0.942933 0.761587 0.217834
H33   H     H_    0.700210 0.923589 0.303171 0.175481
H34   H     H_    0.299845 0.076270 0.696745 0.175496

loop_
_geom_bond_atom_site_label_1
_geom_bond_atom_site_label_2
_ccdc_geom_bond_type
N5    H21   S    
N7    H25   S    
C27   C29   A    
C34   C37   A    
C41   C43   A    
N3    H9    S    
C23   O7    A    
C45   H16   S    
C8    N8    S    
C44   H17   S    
C28   H2    S    
C24   O8    A    
C47   C49   A    
Cu2   O3    S    
Cu1   Cu2   S    
C40   C46   A    
C35   C37   A    
N4    H12   S    
C27   H1    S    
Cu2   O6    S    
C15   C16   A    
C18   C21   A    
C11   C13   A    
C7    C9    A    
C23   O5    A    
C27   N1    A    
C38   H4    S    
Cu1   N1    S    
C26   C34   A    
N9    H29   S    
C7    C17   A    
N8    H28   S    
C1    O3    A    
C31   C33   A    
C42   H20   S    
C39   C45   A    
C48   C50   A    
N7    H26   S    
C43   H18   S    
N3    H10   S    
C5    C49   A    
C42   C44   A    
C11   H5    S    
Cu1   O8    S    
C1    O1    A    
C41   C49   A    
C2    O2    A    
C4    N6    S    
C45   C47   A    
C7    N7    S    
C46   C48   A    
C13   C19   A    
C4    C51   A    
C3    N5    S    
C51   C52   A    
C14   C20   A    
N4    H11   S    
C4    C6    A    
C36   H14   S    
C19   N9    S    
C39   C43   A    
Cu2   N2    S    
C3    C5    A    
C22   H34   S    
C8    C18   A    
C32   C34   A    
C6    H8    S    
C46   H15   S    
N6    H24   S    
C31   C32   A    
C40   C44   A    
C29   C31   A    
N8    H27   S    
C25   N1    A    
C6    C50   A    
N10   H32   S    
Cu1   O4    S    
C9    C11   A    
C10   C12   A    
C42   C50   A    
C8    C10   A    
N9    H30   S    
C12   C14   A    
C13   C15   A    
C14   C16   A    
C26   N4    S    
C15   C17   A    
C19   C21   A    
C1    C10   S    
C33   C38   A    
C20   C22   A    
C2    O4    A    
C47   C51   A    
C3    C52   A    
C41   H19   S    
C29   C35   A    
C17   C22   A    
C30   C36   A    
C28   C30   A    
C26   N2    A    
C5    H7    S    
C36   C38   A    
C30   C32   A    
Cu1   O1    S    
N6    H23   S    
Cu2   O7    S    
Cu2   O2    S    
C23   C39   S    
C35   H13   S    
C24   C40   S    
C25   N3    S    
N10   H31   S    
Cu1   O5    S    
C21   H33   S    
C24   O6    A    
C12   H6    S    
C48   C52   A    
C20   N10   S    
C16   C18   A    
N5    H22   S    
C2    C9    S    
C37   H3    S    
C25   C33   A    
C28   N2    A    
