data_mof_unit_21378.cif
_audit_creation_date              2012-12-11T18:37:31-0500
_audit_creation_method            fapswitch 2.2
_symmetry_space_group_name_H-M    P1
_symmetry_Int_Tables_number       1
_space_group_crystal_system       triclinic
_cell_length_a                    8.453436
_cell_length_b                    14.507155
_cell_length_c                    26.98347
_cell_angle_alpha                 94.078203
_cell_angle_beta                  92.993715
_cell_angle_gamma                 88.233054
_cell_volume                      3295.02058046

loop_
_atom_site_label
_atom_site_type_symbol
_atom_type_description
_atom_site_fract_x
_atom_site_fract_y
_atom_site_fract_z
_atom_type_partial_charge
Ba1   Ba    Ba6+2 0.849670 0.455410 0.524690 1.816848
Ba2   Ba    Ba6+2 0.340150 0.544510 0.475310 1.798273
C1    C     C_3   0.636952 0.111868 0.677765 0.966738
C2    C     C_3   0.606011 0.205069 0.653143 0.950422
C3    C     C_3   0.583499 0.708143 0.627449 0.686733
C4    C     C_3   0.692417 0.728679 0.674073 0.236314
C5    C     C_3   0.049820 0.780843 0.334033 0.834241
C6    C     C_3   0.015638 0.852993 0.294925 1.081933
C7    C     C_3   0.545123 0.794573 0.356112 0.344111
C8    C     C_3   0.519325 0.887625 0.332596 0.598257
C9    C     C_R   0.929345 0.441597 0.174246 0.686578
C10   C     C_R   0.014332 0.598002 0.184087 0.725147
C11   C     C_2   0.792131 0.583029 0.272224 0.303410
C12   C     C_3   0.066096 0.264129 0.663433 0.422839
C13   C     C_3   0.764574 0.597805 0.327939 -0.172809
C14   C     C_1   0.980407 0.481365 0.342087 0.021680
C15   C     C_2   0.015307 0.476281 0.293619 0.264978
C16   C     C_2   0.914841 0.527878 0.256530 0.276250
C17   C     C_R   0.016328 0.516146 0.101946 -0.137174
C18   C     C_R   0.956357 0.437699 0.122223 -0.189496
C19   C     C_R   0.924270 0.358437 0.089569 0.447224
C20   C     C_R   0.045595 0.596312 0.133145 -0.064282
C21   C     C_2   0.851721 0.525912 0.358529 0.173437
C22   C     C_2   0.346889 0.487634 0.642463 0.085198
C23   C     C_3   0.049572 0.241368 0.717318 0.649087
C24   C     C_R   0.105195 0.426441 0.972433 0.058231
C25   C     C_R   0.108948 0.595324 0.976761 -0.115253
C26   C     C_R   0.130561 0.509509 0.949546 0.014371
C27   C     C_R   0.152333 0.342308 0.947417 -0.100484
C28   C     C_R   0.206363 0.339502 0.899399 -0.042604
C29   C     C_R   0.214761 0.420646 0.874233 -0.014147
C30   C     C_R   0.176922 0.506378 0.899256 -0.135973
C31   C     C_R   0.186983 0.588464 0.874358 -0.188743
C32   C     C_R   0.223678 0.581464 0.823016 0.618777
C33   C     C_R   0.260922 0.417216 0.824629 0.661916
C34   C     C_3   0.155762 0.244615 0.410973 0.903459
C35   C     C_2   0.421555 0.445489 0.729194 -0.179435
C36   C     C_3   0.435178 0.420296 0.674373 -0.012743
C37   C     C_1   0.212097 0.524806 0.658249 0.046202
C38   C     C_2   0.170949 0.526283 0.705787 0.300201
C39   C     C_2   0.287958 0.489282 0.745193 0.175143
C40   C     C_R   0.039831 0.430636 0.020436 -0.112439
C41   C     C_R   0.049734 0.514372 0.050552 -0.023757
C42   C     C_R   0.096766 0.595956 0.029615 0.041384
C43   C     C_R   0.965161 0.354849 0.039633 0.384480
C44   C     C_R   0.110636 0.672768 0.113323 -0.095370
C45   C     C_3   0.179608 0.146729 0.386937 0.341764
C46   C     C_R   0.100342 0.676530 0.949870 0.459509
C47   C     C_R   0.149867 0.674062 0.900878 0.422105
C48   C     C_R   0.140320 0.672687 0.062519 0.380414
C49   C     C_R   0.686420 0.061837 0.469467 0.476905
C50   C     C_R   0.518026 0.198159 0.502256 0.141752
C51   C     C_R   0.388545 0.229716 0.530125 0.246253
C52   C     C_R   0.283733 0.167513 0.546469 0.077048
C53   C     C_R   0.322258 0.072930 0.542619 -0.072690
C54   C     C_R   0.461733 0.039574 0.520079 -0.052610
C55   C     C_R   0.557312 0.100902 0.496863 -0.133100
C56   C     C_3   0.022140 0.739231 0.576249 0.397381
C57   C     C_R   0.635865 0.907402 0.494808 -0.202357
C58   C     C_R   0.734186 0.967731 0.472401 -0.026216
C59   C     C_R   0.675185 0.811451 0.492344 0.012572
C60   C     C_R   0.806885 0.777981 0.466737 0.100825
C61   C     C_R   0.916436 0.838132 0.450642 -0.074366
C62   C     C_R   0.882395 0.934297 0.454609 0.338046
C63   C     C_R   0.501591 0.944700 0.518786 0.011095
C64   C     C_3   0.006018 0.843765 0.587992 0.272675
C65   C     C_3   0.629457 0.317212 0.371486 0.667686
C66   C     C_3   0.540324 0.295922 0.321102 0.177813
H1    H     H_    0.903521 0.712653 0.565158 -0.180495
H2    H     H_    0.410722 0.300175 0.325412 0.043870
H3    H     H_    0.945778 0.197251 0.719475 0.056056
N1    N     N_R   0.953801 0.522110 0.204058 -0.395377
N2    N     N_R   0.257262 0.496342 0.798492 -0.427212
O1    O     O_2   0.918080 0.549800 0.616640 -0.467707
O2    O     O_3   0.604386 0.247926 0.403497 -0.675312
O3    O     O_3   0.070073 0.182200 0.632200 -0.586525
O4    O     O_2   0.271610 0.450170 0.383330 -0.510888
O5    O     O_3   0.039630 0.450200 0.443530 -0.458522
O6    O     O_3   0.531440 0.620360 0.408460 -0.447121
O7    O     O_3   0.094583 0.302298 0.374609 -0.618265
O8    O     O_3   0.643350 0.612530 0.521650 -0.443386
O9    O     O_3   0.127390 0.668260 0.431510 -0.476993
O10   O     O_2   0.243538 0.830577 0.464077 -0.515428
O11   O     O_3   0.158981 0.817463 0.370928 -0.606963
O12   O     O_3   0.150070 0.549720 0.556460 -0.476560
O13   O     O_3   0.546340 0.387390 0.478340 -0.462614
O14   O     O_2   0.398940 0.728800 0.517420 -0.442494
O15   O     O_3   0.605619 0.774911 0.593588 -0.665871
O16   O     O_2   0.437233 0.542095 0.320942 -0.394816
O17   O     O_3   0.467050 0.723434 0.326804 -0.598865
O18   O     O_2   0.885675 0.373372 0.193159 -0.516425
O19   O     O_2   0.302655 0.343035 0.804474 -0.537313
O20   O     O_2   0.042260 0.667330 0.210909 -0.524991
O21   O     O_2   0.224483 0.650807 0.799943 -0.522582
O22   O     O_3   0.658250 0.379560 0.591530 -0.421301
O23   O     O_2   0.763983 0.454162 0.679113 -0.473994
O24   O     O_3   0.080954 0.698150 0.618923 -0.557100
O25   O     O_3   0.696089 0.277316 0.678410 -0.725213
O26   O     O_2   0.790750 0.271170 0.482550 -0.360529
O27   O     O_3   0.062300 0.331660 0.568480 -0.525832
O28   O     O_2   0.954931 0.164233 0.540240 -0.443754
P1    P     P_3+3 0.090020 0.577590 0.608380 1.120080
P2    P     P_3+3 0.614340 0.285150 0.467650 1.146209
P3    P     P_3+3 0.093156 0.211485 0.571093 1.024569
P4    P     P_3+3 0.099670 0.422330 0.391610 1.087816
P5    P     P_3+3 0.109180 0.788331 0.429778 0.963502
P6    P     P_3+3 0.639563 0.385626 0.655892 1.012533
P7    P     P_3+3 0.582173 0.730473 0.531284 1.018396
P8    P     P_3+3 0.549592 0.617414 0.344418 1.074225
O29   O     O_3   0.646260 0.192669 0.603427 -0.740758
H4    H     H_    0.762138 0.199052 0.603010 0.300251
O30   O     O_3   0.275159 0.146466 0.345983 -0.716961
H5    H     H_    0.385389 0.132790 0.358366 0.306735
H6    H     H_    0.232063 0.100667 0.415198 -0.021791
H7    H     H_    0.062241 0.119735 0.373713 0.107519
H8    H     H_    0.104508 0.725555 0.545674 0.008393
H9    H     H_    0.904628 0.859073 0.612046 0.075811
H10   H     H_    0.981303 0.879467 0.553264 -0.083591
O31   O     O_3   0.143410 0.878352 0.613094 -0.620838
H11   H     H_    0.229368 0.869390 0.589463 0.313846
O32   O     O_3   0.790663 0.318699 0.363638 -0.671994
H12   H     H_    0.822951 0.255282 0.350889 0.318401
H13   H     H_    0.583608 0.385129 0.386511 0.086386
O33   O     O_3   0.793737 0.078703 0.671689 -0.747584
H14   H     H_    0.800061 0.050444 0.637203 0.312173
H15   H     H_    0.572552 0.224644 0.306224 0.078194
O34   O     O_3   0.580497 0.359615 0.287464 -0.684782
H16   H     H_    0.519100 0.343044 0.255903 0.344041
O35   O     O_3   0.443159 0.226148 0.654137 -0.721542
H17   H     H_    0.419778 0.239580 0.689587 0.319664
O36   O     O_3   0.530451 0.046951 0.655102 -0.680273
H18   H     H_    0.542756 0.990671 0.673904 0.363420
O37   O     O_3   0.424048 0.712732 0.639800 -0.639678
H19   H     H_    0.413771 0.673634 0.668083 0.277180
H20   H     H_    0.618316 0.637869 0.612444 0.008079
O38   O     O_3   0.653843 0.815244 0.697477 -0.638764
H21   H     H_    0.718544 0.861049 0.682619 0.326744
H22   H     H_    0.678655 0.674832 0.700717 0.065324
H23   H     H_    0.818472 0.725035 0.664068 0.045003
O39   O     O_3   0.608909 0.123567 0.728856 -0.667669
H24   H     H_    0.695827 0.160605 0.745383 0.303133
O40   O     O_3   0.029839 0.323506 0.747317 -0.742800
H25   H     H_    0.915556 0.341218 0.745158 0.294182
O41   O     O_3   0.115379 0.699982 0.310953 -0.704612
H26   H     H_    0.130465 0.654859 0.336772 0.290640
H27   H     H_    0.934586 0.764797 0.348995 -0.328919
O42   O     O_3   0.154793 0.870692 0.271086 -0.644923
H28   H     H_    0.181813 0.815174 0.249242 0.348792
O43   O     O_3   0.900554 0.820289 0.258973 -0.652221
H29   H     H_    0.799230 0.817889 0.275733 0.281234
O44   O     O_3   0.958264 0.936143 0.318338 -0.709954
H30   H     H_    0.049343 0.966778 0.336572 0.325882
H31   H     H_    0.674823 0.780415 0.359293 -0.062379
H32   H     H_    0.500410 0.799910 0.394259 0.047921
O45   O     O_3   0.646647 0.945045 0.346768 -0.782679
H33   H     H_    0.631596 0.000287 0.327145 0.334715
O46   O     O_3   0.377470 0.931614 0.347164 -0.673038
H34   H     H_    0.392486 0.951854 0.383017 0.297117
H35   H     H_    0.963892 0.308815 0.652221 0.000807
H36   H     H_    0.513319 0.874814 0.291365 0.102134
O47   O     O_3   0.140960 0.423708 0.274886 -0.666528
H37   H     H_    0.176538 0.377057 0.298154 0.329313
O48   O     O_3   0.845717 0.284035 0.104381 -0.608609
H38   H     H_    0.750016 0.308936 0.120981 0.330042
H39   H     H_    0.509579 0.418481 0.755538 0.129542
H40   H     H_    0.239388 0.272808 0.881690 0.141274
H41   H     H_    0.152621 0.277883 0.965234 0.148335
O49   O     O_3   0.912625 0.279948 0.009538 -0.660599
H42   H     H_    0.878357 0.302107 0.976651 0.300032
O50   O     O_3   0.705035 0.631538 0.237420 -0.681843
H43   H     H_    0.637087 0.678154 0.255125 0.314148
H44   H     H_    0.141751 0.732800 0.137688 0.130017
O51   O     O_3   0.032543 0.758715 0.968564 -0.606408
H45   H     H_    0.955564 0.744594 0.993259 0.309656
H46   H     H_    0.174917 0.304011 0.661159 -0.006885
O52   O     O_3   0.154272 0.757212 0.879454 -0.600105
H47   H     H_    0.262450 0.761574 0.867457 0.345647
O53   O     O_3   0.021935 0.559735 0.717586 -0.671193
H48   H     H_    0.000889 0.541815 0.751258 0.327736
O54   O     O_3   0.224621 0.743174 0.045450 -0.674176
H49   H     H_    0.247558 0.790378 0.073093 0.329205
O55   O     O_3   0.778919 0.492573 0.397532 -0.706876
H50   H     H_    0.771830 0.543302 0.423291 0.356006
O56   O     O_3   0.421724 0.526387 0.605393 -0.741429
H51   H     H_    0.436718 0.476716 0.579087 0.358786
O57   O     O_3   0.366559 0.322306 0.542470 -0.740763
H52   H     H_    0.289344 0.345790 0.517264 0.306254
H53   H     H_    0.242817 0.025429 0.557082 0.115144
O58   O     O_3   0.994096 0.997868 0.445426 -0.711922
H54   H     H_    0.084362 0.967290 0.428719 0.301663
O59   O     O_3   0.831511 0.684846 0.459316 -0.753708
H55   H     H_    0.911174 0.666781 0.485177 0.291006
O60   O     O_3   0.761105 0.113618 0.437590 -0.638288
H56   H     H_    0.773044 0.075946 0.405825 0.337545
H57   H     H_    0.426390 0.900437 0.536959 0.116477
O61   O     O_3   0.185502 0.192928 0.734125 -0.629699
H58   H     H_    0.163150 0.172753 0.767391 0.348384
O62   O     O_3   0.298480 0.275596 0.431446 -0.857602
H59   H     H_    0.350797 0.300976 0.404175 0.273713
O63   O     O_3   0.050110 0.239549 0.448236 -0.682708
H60   H     H_    0.066687 0.293949 0.471988 0.314987

loop_
_geom_bond_atom_site_label_1
_geom_bond_atom_site_label_2
_ccdc_geom_bond_type
C25   C46   A    
O3    P3    S    
C45   H6    S    
O26   P2    D    
C53   C54   A    
C50   P2    S    
O46   H34   S    
C19   O48   S    
C2    O25   S    
C22   O56   S    
C13   P8    S    
O48   H38   S    
C51   O57   S    
Ba1   O26   S    
O47   H37   S    
C5    C6    S    
O51   H45   S    
C50   C51   A    
C45   H7    S    
C35   C36   S    
C11   C16   D    
Ba2   O12   S    
O5    P4    S    
C1    O36   S    
Ba1   O1    S    
C52   P3    S    
O49   H42   S    
C34   O62   S    
O35   H17   S    
C28   C29   A    
O15   P7    S    
C14   C15   D    
O50   H43   S    
Ba1   O8    S    
C54   C63   A    
O2    P2    S    
C10   C20   A    
O27   P3    S    
C22   C37   D    
O56   H51   S    
C1    C2    S    
C34   C45   S    
C3    H20   S    
Ba1   Ba2   S    
C4    H23   S    
C59   P7    S    
O55   H50   S    
C5    O41   S    
C4    O38   S    
Ba2   O6    S    
O42   H28   S    
O29   H4    S    
C3    O15   S    
C25   C42   A    
C56   C64   S    
C33   N2    Am   
O14   P7    D    
C17   C18   A    
C44   H44   S    
O63   H60   S    
C64   H9    S    
C22   C36   S    
O44   H30   S    
O62   H59   S    
C23   H3    S    
C7    C8    S    
Ba1   P2    S    
O24   P1    S    
C2    O29   S    
O1    P1    D    
C5    H27   S    
C33   O19   D    
C13   C21   S    
C5    O11   S    
C10   N1    Am   
O8    P7    S    
C7    H31   S    
C57   C58   A    
O22   P6    S    
C56   H8    S    
Ba1   O5    S    
C59   C60   A    
C56   O24   S    
O13   P2    S    
C65   O32   S    
Ba1   O27   S    
O30   H5    S    
C17   C41   A    
C62   O58   S    
C8    H36   S    
C19   C43   A    
C16   N1    S    
C9    C18   A    
C57   C59   A    
O6    P8    S    
C65   C66   S    
O53   H48   S    
C26   C30   A    
C17   C20   A    
O39   H24   S    
C28   H40   S    
C21   O55   S    
C34   O7    S    
C37   C38   D    
C9    N1    Am   
O38   H21   S    
O16   P8    D    
C35   H39   S    
C51   C52   A    
O7    P4    S    
O25   P6    S    
O59   H55   S    
C40   C43   A    
C12   O3    S    
C4    H22   S    
C48   O54   S    
C41   C42   A    
C27   C28   A    
Ba2   O5    S    
C36   P6    S    
O11   P5    S    
C29   C30   A    
C66   O34   S    
Ba1   O22   S    
C6    O44   S    
C60   C61   A    
C15   C16   S    
C3    O37   S    
C8    O45   S    
Ba2   O14   S    
C53   H53   S    
C61   P5    S    
C8    O46   S    
O32   H12   S    
C2    O35   S    
C23   O61   S    
C15   O47   S    
C14   P4    S    
C38   O53   S    
O52   H47   S    
C20   C44   A    
O23   P6    D    
C32   O21   D    
C7    H32   S    
O28   P3    D    
C64   O31   S    
C11   C13   S    
C49   O60   S    
O37   H19   S    
C29   C33   A    
C10   O20   D    
Ba2   O9    S    
Ba1   O12   S    
C65   O2    S    
C40   C41   A    
O34   H16   S    
C66   H15   S    
O45   H33   S    
C1    O33   S    
C24   C40   A    
C37   P1    S    
C46   O51   S    
C42   C48   A    
Ba1   O13   S    
C54   C55   A    
C12   H46   S    
C52   C53   A    
C38   C39   S    
C34   O63   S    
O61   H58   S    
C65   H13   S    
C7    O17   S    
O31   H11   S    
C56   H1    S    
C11   O50   S    
C60   O59   S    
C49   C58   A    
C14   C21   D    
C45   O30   S    
C44   C48   A    
Ba2   P4    S    
C24   C26   A    
O10   P5    D    
C58   C62   A    
C12   H35   S    
O41   H26   S    
C30   C31   A    
C27   H41   S    
O4    P4    D    
C6    O43   S    
Ba2   O4    S    
O43   H29   S    
C57   C63   A    
C23   O40   S    
C3    C4    S    
C46   C47   A    
C31   C32   A    
Ba2   O13   S    
O9    P5    S    
C12   C23   S    
C35   C39   D    
O58   H54   S    
C43   O49   S    
C50   C55   A    
O12   P1    S    
C32   N2    Am   
C39   N2    S    
C61   C62   A    
C6    O42   S    
C9    O18   D    
C49   C55   A    
C18   C19   A    
C24   C27   A    
C66   H2    S    
O60   H56   S    
C64   H10   S    
C25   C26   A    
O40   H25   S    
Ba2   O8    S    
C1    O39   S    
O17   P8    S    
O57   H52   S    
C31   C47   A    
Ba1   P1    S    
C47   O52   S    
O54   H49   S    
O36   H18   S    
O33   H14   S    
C63   H57   S    
