data_mof_unit_23017.cif
_audit_creation_date              2012-12-10T17:05:17-0500
_audit_creation_method            fapswitch 2.2
_symmetry_space_group_name_H-M    P1
_symmetry_Int_Tables_number       1
_space_group_crystal_system       triclinic
_cell_length_a                    10.030659
_cell_length_b                    10.746018
_cell_length_c                    15.374242
_cell_angle_alpha                 90.092478
_cell_angle_beta                  67.55566
_cell_angle_gamma                 90.091072
_cell_volume                      1531.65092406

loop_
_atom_site_label
_atom_site_type_symbol
_atom_type_description
_atom_site_fract_x
_atom_site_fract_y
_atom_site_fract_z
_atom_type_partial_charge
Br1   Br    Br    0.543471 0.667365 0.795592 -0.490391
C1    C     C_R   0.501031 0.737340 0.498704 0.949237
C2    C     C_R   0.746077 0.482167 0.024180 -0.023681
C3    C     C_R   0.602715 0.445633 0.080044 0.019798
C4    C     C_R   0.409546 0.499468 0.676385 0.918247
C5    C     C_R   0.843289 0.516823 0.066789 0.567655
C6    C     C_R   0.793258 0.516777 0.166222 -0.332636
C7    C     C_R   0.556286 0.452276 0.177618 -0.237523
C8    C     C_2   0.608981 0.067001 0.506354 -0.163070
C9    C     C_2   0.491407 0.131423 0.513925 -0.329592
C10   C     C_2   0.604640 0.933056 0.511825 -0.137658
C11   C     C_2   0.505511 0.869038 0.492056 -0.331338
C12   C     C_R   0.432031 0.441296 0.905522 0.009519
C13   C     C_2   0.108736 0.434063 0.441981 -0.126654
C14   C     C_2   0.956915 0.429573 0.445043 -0.162520
C15   C     C_R   0.498292 0.262718 0.502845 0.920448
C16   C     C_R   0.590599 0.498381 0.323449 0.890101
C17   C     C_R   0.354147 0.476881 0.777348 -0.146974
C18   C     C_R   0.648954 0.489261 0.220742 -0.120634
C19   C     C_R   0.207024 0.350205 0.909017 -0.110798
C20   C     C_R   0.235198 0.398254 0.819555 -0.226648
C21   C     C_R   0.441427 0.509950 0.825923 0.278476
C22   C     C_3   0.053347 0.628992 0.048507 -0.293067
C23   C     C_R   0.305160 0.371183 0.952433 0.119706
C24   C     C_3   0.765336 0.336778 0.756991 -0.296835
C25   C     C_R   0.542248 0.443020 0.941598 -0.038169
C26   C     C_R   0.505532 0.412768 0.037098 0.035324
C27   C     C_R   0.373838 0.349706 0.085777 -0.200932
C28   C     C_R   0.278254 0.324313 0.042035 -0.212541
C29   C     C_R   0.689735 0.464159 0.884401 0.536433
C30   C     C_R   0.789318 0.484652 0.926148 -0.276962
H1    H     H_    0.180988 0.271632 0.079572 0.143954
H2    H     H_    0.444940 0.434375 0.221488 0.160958
H3    H     H_    0.864439 0.540253 0.201757 0.160772
H4    H     H_    0.899975 0.505101 0.880953 0.216120
H5    H     H_    0.111918 0.293250 0.942627 0.146035
H6    H     H_    0.166458 0.371908 0.782715 0.164563
H7    H     H_    0.346431 0.312731 0.155757 0.137002
H8    H     H_    0.091969 0.580162 0.098096 0.169541
H9    H     H_    0.982185 0.708894 0.083064 0.156397
H10   H     H_    0.149944 0.667435 0.991381 0.214915
H11   H     H_    0.664065 0.281082 0.783251 0.161190
H12   H     H_    0.710811 0.112459 0.495906 0.170805
H13   H     H_    0.848323 0.293426 0.778937 0.148864
H14   H     H_    0.807240 0.335056 0.678963 0.202954
H15   H     H_    0.386412 0.088922 0.530840 0.153741
H16   H     H_    0.686440 0.886944 0.530418 0.183321
H17   H     H_    0.427649 0.911988 0.468366 0.147620
H18   H     H_    0.189185 0.377988 0.388940 0.154409
H19   H     H_    0.071688 0.547193 0.552239 0.178925
H20   H     H_    0.934865 0.365319 0.397681 0.157043
H21   H     H_    0.873784 0.563469 0.541100 0.195707
N1    N     N_2   0.148330 0.498670 0.499030 -0.187183
N2    N     N_2   0.852680 0.498640 0.499000 -0.183055
O1    O     O_R   0.386950 0.680940 0.500010 -0.610397
O2    O     O_3   0.739790 0.461527 0.787199 -0.575775
O3    O     O_R   0.613110 0.680900 0.499990 -0.604174
O4    O     O_R   0.322330 0.500030 0.632270 -0.614471
O5    O     O_R   0.548480 0.499990 0.632240 -0.559682
O6    O     O_R   0.386890 0.319100 0.500010 -0.618331
O7    O     O_R   0.613050 0.319060 0.499990 -0.616056
O8    O     O_R   0.451520 0.500010 0.367760 -0.614379
O9    O     O_R   0.677670 0.499970 0.367730 -0.614493
O10   O     O_3   0.985405 0.544505 0.008244 -0.625125
Zn1   Zn    Zn3+2 0.349000 0.500030 0.500020 0.946123
Zn2   Zn    Zn3+2 0.651000 0.499970 0.499980 0.965840

loop_
_geom_bond_atom_site_label_1
_geom_bond_atom_site_label_2
_ccdc_geom_bond_type
C24   H11   S    
C9    H15   S    
C10   C11   D    
C5    C6    A    
N2    Zn2   S    
C14   H20   S    
C16   O8    A    
C17   C20   A    
N1    Zn1   S    
C8    C9    D    
O4    Zn1   S    
C10   H16   S    
C22   H10   S    
C24   O2    S    
C27   H7    S    
O3    Zn2   S    
C11   H17   S    
C2    C5    A    
C1    C11   S    
C3    C26   A    
C17   C21   A    
O9    Zn2   S    
Br1   C21   S    
C9    C15   S    
C16   O9    A    
C2    C30   A    
C8    C10   S    
C25   C26   A    
C4    O4    A    
C22   H8    S    
C24   H13   S    
C27   C28   A    
O1    Zn1   S    
H21   N2    S    
C12   C21   A    
C25   C29   A    
C28   H1    S    
C6    C18   A    
C7    H2    S    
O5    Zn2   S    
C29   C30   A    
C6    H3    S    
C30   H4    S    
C12   C25   A    
C1    O3    A    
C7    C18   A    
C8    H12   S    
C15   O7    A    
C4    O5    A    
C2    C3    A    
H19   N1    S    
C14   N2    D    
C24   H14   S    
C26   C27   A    
C13   N1    D    
C20   H6    S    
C13   H18   S    
C15   O6    A    
C5    O10   S    
C3    C7    A    
C19   C23   A    
C13   C14   S    
C22   O10   S    
C4    C17   S    
O8    Zn1   S    
C16   C18   S    
C19   C20   A    
C23   C28   A    
C29   O2    S    
O7    Zn2   S    
C1    O1    A    
C22   H9    S    
C12   C23   A    
O6    Zn1   S    
C19   H5    S    
