data_mof_unit_41768.cif
_audit_creation_date              2013-03-05T15:40:45-0500
_audit_creation_method            fapswitch 2.2
_symmetry_space_group_name_H-M    P1
_symmetry_Int_Tables_number       1
_space_group_crystal_system       triclinic
_cell_length_a                    6.93371
_cell_length_b                    17.376564
_cell_length_c                    24.073643
_cell_angle_alpha                 104.502663
_cell_angle_beta                  90.261217
_cell_angle_gamma                 89.87568
_cell_volume                      2808.03816277

loop_
_atom_site_label
_atom_site_type_symbol
_atom_site_description
_atom_site_fract_x
_atom_site_fract_y
_atom_site_fract_z
_atom_type_partial_charge
O1    O     O_R   0.494290 0.391990 0.999150 -0.588820
O2    O     O_R   0.827170 0.534410 0.082350 -0.556290
O3    O     O_R   0.994360 0.608010 0.000850 -0.532970
C1    C     C_R   0.658415 0.551605 0.106167 0.923944
O4    O     O_R   0.824210 0.388010 0.004470 -0.520417
O5    O     O_R   0.991370 0.460560 0.922410 -0.534019
C2    C     C_R   0.655057 0.355005 0.001228 0.840086
O6    O     O_R   0.497270 0.539440 0.077590 -0.539921
O7    O     O_3   0.659770 0.523970 0.973170 -0.228048
V1    V     V_3+5 0.935840 0.495550 0.004980 1.310514
O8    O     O_R   0.320910 0.465590 0.917650 -0.523241
C3    C     C_R   0.151767 0.450778 0.893773 0.928700
O9    O     O_R   0.323870 0.611990 0.995530 -0.511023
C4    C     C_R   0.153709 0.645236 0.999106 0.919926
V2    V     V_3+5 0.435470 0.504450 0.995020 1.320935
O10   O     O_3   0.161670 0.476030 0.026830 -0.284584
C5    C     C_2   0.138688 0.730447 0.999232 -0.206347
H1    H     H_    0.271995 0.760548 0.994095 0.148811
C6    C     C_2   0.968740 0.771146 0.004227 0.182966
C7    C     C_R   0.131742 0.244914 0.625185 0.679247
N1    N     N_R   0.115008 0.325372 0.647087 -0.437555
C8    C     C_R   0.097301 0.374744 0.610888 0.701736
C9    C     C_R   0.122497 0.344836 0.550836 -0.140368
C10   C     C_R   0.115630 0.261877 0.528164 -0.079562
C11   C     C_R   0.115245 0.211635 0.565768 -0.082057
C12   C     C_R   0.158585 0.394482 0.513337 0.330200
C13   C     C_R   0.171303 0.360862 0.453459 0.313478
C14   C     C_R   0.128456 0.279015 0.430216 -0.112335
C15   C     C_R   0.107344 0.229087 0.468126 -0.103460
C16   C     C_R   0.078892 0.146163 0.446186 -0.104336
C17   C     C_R   0.088861 0.095391 0.484372 0.386357
C18   C     C_R   0.103941 0.129342 0.543540 0.039210
C19   C     C_R   0.108577 0.244399 0.370480 0.715266
N2    N     N_R   0.058328 0.166178 0.350622 -0.433611
C20   C     C_R   0.035509 0.118130 0.387191 0.708281
O11   O     O_2   0.162792 0.197169 0.660759 -0.433408
O12   O     O_2   0.052736 0.451904 0.632946 -0.386862
O13   O     O_2   0.131634 0.288322 0.332178 -0.422978
O14   O     O_2   0.963957 0.044547 0.366358 -0.401998
H2    H     H_    0.106308 0.090835 0.572579 0.208006
C21   C     C_R   0.157024 0.077779 0.257767 0.288931
C22   C     C_R   0.129839 0.047053 0.198436 0.260873
C23   C     C_R   0.978634 0.076318 0.169606 -0.311541
C24   C     C_R   0.847623 0.132963 0.201593 0.240744
C25   C     C_R   0.869254 0.160228 0.261811 0.310557
C26   C     C_R   0.026611 0.133768 0.289721 0.057907
C27   C     C_R   0.271873 0.410268 0.733954 0.315173
C28   C     C_R   0.277322 0.443552 0.793696 0.229414
C29   C     C_R   0.140872 0.419958 0.829923 -0.283908
C30   C     C_R   0.991801 0.366609 0.804560 0.261804
C31   C     C_R   0.978341 0.338580 0.744434 0.287967
C32   C     C_R   0.120791 0.358639 0.708777 0.082540
C33   C     C_R   0.634137 0.893796 0.613516 0.686910
N3    N     N_R   0.587038 0.847363 0.650056 -0.431977
C34   C     C_R   0.630793 0.767522 0.631087 0.702464
C35   C     C_R   0.657591 0.731173 0.571518 -0.115587
C36   C     C_R   0.643702 0.778992 0.532222 -0.107961
C37   C     C_R   0.632265 0.861875 0.553419 -0.119180
C38   C     C_R   0.699520 0.649186 0.550367 0.313910
C39   C     C_R   0.688414 0.613056 0.490640 0.317130
C40   C     C_R   0.659466 0.661145 0.451292 -0.125893
C41   C     C_R   0.655363 0.744718 0.472319 -0.108395
C42   C     C_R   0.664831 0.793890 0.433494 -0.099525
C43   C     C_R   0.648859 0.877722 0.455230 0.319122
C44   C     C_R   0.626602 0.911104 0.514716 0.359772
C45   C     C_R   0.637753 0.629109 0.391234 0.720245
N4    N     N_R   0.660823 0.676298 0.353893 -0.440238
C46   C     C_R   0.687197 0.756574 0.374184 0.707137
O15   O     O_2   0.706735 0.967018 0.634235 -0.423119
O16   O     O_2   0.652537 0.723712 0.669615 -0.411943
O17   O     O_2   0.589142 0.552231 0.370292 -0.401659
O18   O     O_2   0.735145 0.799257 0.336715 -0.411784
C47   C     C_R   0.503899 0.665305 0.258710 0.329933
C48   C     C_R   0.501992 0.635716 0.198085 0.204917
C49   C     C_R   0.649880 0.583498 0.170153 -0.202990
C50   C     C_R   0.795596 0.561828 0.204084 -0.135801
H3    H     H_    0.910059 0.522193 0.183910 0.153369
C51   C     C_R   0.796704 0.589785 0.263948 0.330143
C52   C     C_R   0.651640 0.642057 0.292115 0.111833
C53   C     C_R   0.399492 0.833168 0.737526 0.293920
C54   C     C_R   0.381353 0.855867 0.798316 0.218106
C55   C     C_R   0.467943 0.926871 0.830231 -0.306685
C56   C     C_R   0.545683 0.979991 0.800421 0.212401
C57   C     C_R   0.539588 0.960591 0.740049 0.291332
C58   C     C_R   0.511021 0.880513 0.708885 0.025863
C59   C     C_2   0.648313 0.269280 0.999240 0.199064
C60   C     C_2   0.477115 0.230083 0.997872 -0.215326
H4    H     H_    0.342543 0.262236 0.998027 0.122680
O19   O     O_R   0.618210 0.960470 0.922400 -0.555419
O20   O     O_R   0.291310 0.111960 0.995450 -0.528599
O21   O     O_R   0.124210 0.039530 0.077580 -0.540863
C61   C     C_R   0.461686 0.145002 0.998307 0.958742
O22   O     O_R   0.288310 0.965490 0.917650 -0.541828
O23   O     O_R   0.121180 0.892010 0.999220 -0.570947
C62   C     C_R   0.457105 0.950549 0.894033 0.974745
O24   O     O_R   0.621230 0.107990 0.000760 -0.522853
O25   O     O_3   0.455770 0.976060 0.026840 -0.257653
V3    V     V_3+5 0.179680 0.004440 0.995020 1.339558
O26   O     O_R   0.791670 0.888040 0.004570 -0.533334
C63   C     C_R   0.960930 0.855214 0.001794 0.847338
O27   O     O_R   0.794680 0.034510 0.082370 -0.523361
C64   C     C_R   0.964115 0.049090 0.105991 0.967072
V4    V     V_3+5 0.680070 0.995560 0.005010 1.355035
O28   O     O_3   0.953840 0.023940 0.973160 -0.249689
N5    N     N_R   0.736516 0.217591 0.294495 0.143461
O29   O     O_R   0.665763 0.208273 0.342356 -0.315923
O30   O     O_R   0.695898 0.282035 0.278555 -0.204203
Br1   Br    Br    0.477825 0.432889 0.686742 -0.275377
Br2   Br    Br    0.465614 0.525609 0.823936 -0.304187
N6    N     N_R   0.859247 0.337103 0.839857 0.132450
O31   O     O_R   0.676115 0.353125 0.838839 -0.291854
O32   O     O_R   0.922045 0.293989 0.873194 -0.281224
Br3   Br    Br    0.766600 0.269924 0.711493 -0.284930
N7    N     N_R   0.784400 0.605898 0.587875 0.157222
O33   O     O_R   0.681951 0.556144 0.607529 -0.155430
O34   O     O_R   0.951733 0.627769 0.611089 -0.180490
N8    N     N_R   0.729879 0.529499 0.470241 0.143179
O35   O     O_R   0.856660 0.504831 0.430044 -0.230454
O36   O     O_R   0.652303 0.478210 0.494495 -0.266314
Br4   Br    Br    0.633145 0.949023 0.405351 -0.182989
N9    N     N_R   0.576533 0.993706 0.535227 0.138735
O37   O     O_R   0.423633 0.013813 0.566585 -0.294326
O38   O     O_R   0.687779 0.049117 0.525721 -0.304321
N10   N     N_R   0.357987 0.720514 0.286442 0.129562
O39   O     O_R   0.273819 0.711427 0.332563 -0.311677
O40   O     O_R   0.328659 0.785880 0.270568 -0.183786
N11   N     N_R   0.789544 0.734429 0.012621 0.097985
O41   O     O_R   0.656324 0.724115 0.973245 -0.311899
O42   O     O_R   0.747544 0.724580 0.063011 -0.309625
Br5   Br    Br    0.295716 0.668852 0.154958 -0.383940
Br6   Br    Br    0.005293 0.556840 0.305271 -0.314708
N12   N     N_R   0.292869 0.765962 0.704619 0.150713
O43   O     O_R   0.205470 0.770340 0.657548 -0.313484
O44   O     O_R   0.286022 0.699771 0.720583 -0.155135
N13   N     N_R   0.271259 0.807977 0.827335 0.124382
O45   O     O_R   0.348744 0.782218 0.868623 -0.323297
O46   O     O_R   0.089229 0.794819 0.815326 -0.278633
N14   N     N_R   0.605879 0.058454 0.830689 0.129313
O47   O     O_R   0.493198 0.102976 0.868571 -0.342478
O48   O     O_R   0.757084 0.090163 0.813512 -0.210330
Br7   Br    Br    0.430879 0.045612 0.711008 -0.203394
N15   N     N_R   0.829929 0.228495 0.996454 0.106621
O49   O     O_R   0.954236 0.250297 0.038037 -0.338572
O50   O     O_R   0.885567 0.181904 0.948043 -0.246805
N16   N     N_R   0.206679 0.476885 0.536203 0.152799
O51   O     O_R   0.336624 0.496845 0.576184 -0.202266
O52   O     O_R   0.133410 0.531727 0.514397 -0.259420
Br8   Br    Br    0.276905 0.426308 0.406548 -0.156589
N17   N     N_R   0.099198 0.009945 0.464479 0.135016
O53   O     O_R   0.201424 0.977264 0.419641 -0.227295
O54   O     O_R   0.046064 0.965579 0.497928 -0.332659
Br9   Br    Br    0.374615 0.043083 0.295437 -0.246021
N18   N     N_R   0.250837 0.983326 0.167838 0.137848
O55   O     O_R   0.436407 0.992920 0.165616 -0.262985
O56   O     O_R   0.174340 0.916180 0.140353 -0.317302
N19   N     N_R   0.694970 0.164214 0.173049 0.131693
O57   O     O_R   0.734826 0.199039 0.132540 -0.333433
O58   O     O_R   0.517708 0.163669 0.190440 -0.287271

loop_
_geom_bond_atom_site_label_1
_geom_bond_atom_site_label_2
_geom_bond_distance
_ccdc_geom_bond_type
O26   V4    2.018272 S    
C34   C35   1.427645 A    
C49   C50   1.405248 A    
O27   C64   1.300293 A    
C53   N12   1.439774 S    
C21   C22   1.405957 A    
C20   O14   1.346054 S    
C30   N6    1.434239 S    
C1    O6    1.299073 A    
C33   O15   1.343004 S    
C3    C29   1.497353 S    
N17   O53   1.299336 A    
N13   O45   1.301485 A    
C21   Br9   1.928608 S    
C33   N3    1.375044 A    
N5    O30   1.301313 A    
C12   C13   1.416368 A    
C53   C58   1.428978 A    
C16   C20   1.412473 A    
N1    C8    1.372417 A    
N19   O57   1.300882 A    
C50   C51   1.400777 A    
N17   O54   1.301276 A    
O5    C3    1.299420 A    
C16   C17   1.426014 A    
C17   N17   1.443155 S    
C2    C59   1.479186 S    
C7    C11   1.406417 A    
O23   V3    2.023422 S    
V2    O10   2.154333 S    
O25   V3    2.160180 S    
C61   O24   1.286940 A    
C35   C36   1.409662 A    
N2    C20   1.366409 A    
C47   C48   1.420772 A    
C9    C12   1.419448 A    
C6    N11   1.435967 S    
C10   C15   1.415586 A    
C1    C49   1.502166 S    
N6    O31   1.300796 A    
O8    V2    1.978641 S    
C40   C45   1.420630 A    
C27   C28   1.409745 A    
N12   O43   1.301479 A    
C21   C26   1.408413 A    
N2    C26   1.448825 S    
C44   N9    1.438398 S    
N18   O56   1.301269 A    
O7    V1    2.160179 S    
C11   C18   1.397918 A    
C28   Br2   1.935745 S    
C38   C39   1.419348 A    
O22   C62   1.300484 A    
O9    C4    1.306230 A    
O19   V4    1.974032 S    
C4    C5    1.483354 S    
N16   O52   1.299168 A    
C25   N5    1.438593 S    
C54   N13   1.435968 S    
C57   C58   1.419621 A    
C48   C49   1.422531 A    
N4    C46   1.369992 A    
C24   N19   1.437060 S    
C36   C41   1.418280 A    
C22   N18   1.437264 S    
N4    C52   1.458080 S    
C50   H3    1.083378 S    
O4    C2    1.300104 A    
C59   C60   1.365998 D    
C13   Br8   1.938861 S    
C30   C31   1.409570 A    
C25   C26   1.413908 A    
C8    O12   1.348412 S    
C55   C56   1.412448 A    
C54   C55   1.413247 A    
C31   C32   1.411723 A    
C39   C40   1.424723 A    
O19   C62   1.295686 A    
C12   N16   1.438784 S    
O2    C1    1.306122 A    
C51   Br6   1.917722 S    
N11   O42   1.301173 A    
C45   O17   1.347366 S    
C15   C16   1.418908 A    
C37   C44   1.414258 A    
O20   C61   1.308577 A    
C56   C57   1.407775 A    
O23   C63   1.292598 A    
C46   O18   1.346534 S    
C47   N10   1.439021 S    
C41   C42   1.417304 A    
C5    H1    1.085720 S    
C47   C52   1.418701 A    
C39   N8    1.440232 S    
C31   Br3   1.931515 S    
C10   C11   1.406252 A    
N9    O37   1.299802 A    
O25   V4    1.705480 S    
O3    C4    1.287663 A    
N14   O48   1.301649 A    
O1    V2    2.021999 S    
N12   O44   1.301782 A    
C28   C29   1.418461 A    
C14   C19   1.419204 A    
C27   Br1   1.930407 S    
O6    V2    1.972952 S    
O9    V2    2.018212 S    
C23   C24   1.417697 A    
N15   O50   1.301021 A    
C22   C23   1.416775 A    
O21   C64   1.294917 A    
N11   O41   1.300603 A    
O2    V1    1.968137 S    
C48   Br5   1.933221 S    
N16   O51   1.297979 A    
V4    O28   2.154328 S    
C24   C25   1.415213 A    
C59   N15   1.437226 S    
N10   O40   1.301208 A    
N13   O46   1.301412 A    
N3    C34   1.381106 A    
C14   C15   1.416095 A    
C55   C62   1.489450 S    
O1    C2    1.292520 A    
C17   C18   1.402110 A    
C53   C54   1.423166 A    
O5    V1    1.967171 S    
N3    C58   1.487341 S    
N7    O34   1.300965 A    
C33   C37   1.413799 A    
C35   C38   1.417633 A    
N7    O33   1.298669 A    
C27   C32   1.412634 A    
N5    O29   1.301305 A    
C42   C46   1.421635 A    
C19   O13   1.346343 S    
C43   Br4   1.931868 S    
O26   C63   1.298410 A    
C43   C44   1.413020 A    
N1    C32   1.452906 S    
N8    O36   1.300037 A    
O7    V2    1.705752 S    
C23   C64   1.488376 S    
O4    V1    2.021358 S    
O3    V1    2.023470 S    
V1    O10   1.709717 S    
N8    O35   1.300490 A    
C6    C63   1.477441 S    
C51   C52   1.410777 A    
C36   C37   1.404540 A    
C57   Br7   1.935761 S    
C38   N7    1.435581 S    
V3    O28   1.709771 S    
N19   O58   1.301057 A    
C5    C6    1.363176 D    
C19   N2    1.368381 A    
C45   N4    1.370080 A    
C18   H2    1.082043 S    
O21   V3    1.966960 S    
C40   C41   1.413403 A    
N6    O32   1.300561 A    
N9    O38   1.299860 A    
C34   O16   1.347018 S    
N14   O47   1.300439 A    
C9    C10   1.408606 A    
C42   C43   1.423420 A    
C7    O11   1.349612 S    
C7    N1    1.369938 A    
C60   H4    1.086075 S    
O27   V4    1.978742 S    
C29   C30   1.419669 A    
O24   V4    2.022357 S    
C13   C14   1.423303 A    
N15   O49   1.300819 A    
C8    C9    1.419928 A    
N18   O55   1.300861 A    
C60   C61   1.485158 S    
O22   V3    1.968195 S    
O20   V3    2.021474 S    
C56   N14   1.437428 S    
O8    C3    1.301209 A    
N10   O39   1.300938 A    
