data_mof_unit_24516.cif
_audit_creation_date              2012-12-10T17:18:56-0500
_audit_creation_method            fapswitch 2.2
_symmetry_space_group_name_H-M    P1
_symmetry_Int_Tables_number       1
_space_group_crystal_system       triclinic
_cell_length_a                    9.599082
_cell_length_b                    10.863073
_cell_length_c                    13.444723
_cell_angle_alpha                 93.20854
_cell_angle_beta                  72.219198
_cell_angle_gamma                 88.807523
_cell_volume                      1331.83431561

loop_
_atom_site_label
_atom_site_type_symbol
_atom_type_description
_atom_site_fract_x
_atom_site_fract_y
_atom_site_fract_z
_atom_type_partial_charge
C1    C     C_R   0.498653 0.737938 0.497028 0.797297
C2    C     C_R   0.433582 0.510572 0.980781 0.094230
C3    C     C_R   0.466353 0.542634 0.875423 0.015401
C4    C     C_R   0.540933 0.527865 0.033175 0.100462
C5    C     C_R   0.672978 0.585836 0.982957 0.166874
C6    C     C_R   0.694635 0.629922 0.884342 -0.190848
C7    C     C_R   0.591346 0.611269 0.832546 -0.150609
C8    C     C_R   0.521099 0.489596 0.134275 -0.240316
C9    C     C_R   0.754497 0.568613 0.135682 -0.196288
C10   C     C_R   0.371475 0.507595 0.816510 -0.244943
C11   C     C_R   0.224629 0.895848 0.510634 -0.266663
C12   C     C_R   0.420640 0.505321 0.700659 0.831695
C13   C     C_R   0.092385 0.963395 0.551622 -0.338871
C14   C     C_R   0.089381 0.079110 0.601608 0.642959
C15   C     C_R   0.220170 0.132687 0.601185 0.567413
C16   C     C_R   0.356752 0.070809 0.548109 -0.209541
C17   C     C_R   0.357905 0.944166 0.517832 0.042944
C18   C     C_R   0.492038 0.873145 0.496880 -0.137758
C19   C     C_R   0.622458 0.933222 0.488036 -0.293179
C20   C     C_R   0.623789 0.060230 0.496927 0.642488
C21   C     C_R   0.491956 0.130742 0.523212 -0.200808
C22   C     C_R   0.927071 0.328430 0.356250 0.689800
C23   C     C_R   0.496995 0.263666 0.509533 0.927085
C24   C     C_R   0.034344 0.247774 0.290750 -0.173191
C25   C     C_R   0.175271 0.249802 0.293531 -0.364126
C26   C     C_R   0.211192 0.332972 0.361936 -0.163766
C27   C     C_R   0.107020 0.417202 0.431841 0.176923
C28   C     C_R   0.957482 0.416399 0.430724 0.076856
C29   C     C_R   0.897103 0.579438 0.563788 -0.030934
C30   C     C_R   0.044606 0.579009 0.564128 0.000693
C31   C     C_R   0.578676 0.501127 0.300115 0.828594
C32   C     C_R   0.779969 0.602930 0.033543 -0.158434
C33   C     C_R   0.622673 0.515343 0.187305 -0.037422
C34   C     C_R   0.233098 0.463013 0.868751 0.653274
C35   C     C_R   0.194405 0.444718 0.974887 -0.226848
C36   C     C_R   0.293807 0.464807 0.029970 -0.293943
Cu1   Cu    Cu3+1 0.359340 0.500010 0.500010 1.004035
Cu2   Cu    Cu3+1 0.640660 0.499990 0.499990 1.025324
H1    H     H_    0.834586 0.588694 0.175640 0.152353
H2    H     H_    0.991562 0.924247 0.546902 0.196267
H3    H     H_    0.818864 0.645634 0.615314 0.116355
H4    H     H_    0.007353 0.182700 0.235994 0.187311
H5    H     H_    0.258230 0.186981 0.241411 0.192121
H6    H     H_    0.323806 0.326373 0.354719 0.215055
H7    H     H_    0.791336 0.680087 0.847320 0.144057
H8    H     H_    0.881176 0.646658 0.995338 0.147610
H9    H     H_    0.425834 0.441293 0.174923 0.146948
H10   H     H_    0.255690 0.446763 0.111641 0.164267
H11   H     H_    0.087523 0.411023 0.014416 0.181975
H12   H     H_    0.608529 0.654960 0.759908 0.149039
H13   H     H_    0.725848 0.881817 0.471471 0.181559
N1    N     N_R   0.852480 0.498790 0.499000 -0.185953
N2    N     N_R   0.148360 0.498710 0.498970 -0.175449
O1    O     O_R   0.381190 0.680360 0.500010 -0.607967
O2    O     O_R   0.618760 0.680340 0.500000 -0.607720
O3    O     O_R   0.323240 0.499990 0.650990 -0.484707
O4    O     O_R   0.560820 0.499960 0.650980 -0.587868
O5    O     O_R   0.381240 0.319660 0.500000 -0.578657
O6    O     O_R   0.618810 0.319640 0.499990 -0.456892
O7    O     O_R   0.439180 0.500040 0.349020 -0.631264
O8    O     O_R   0.676760 0.500010 0.349010 -0.530602
H14   H     H_    0.219006 0.809275 0.469389 0.206851
F1    F     F_    0.959485 0.140684 0.648895 -0.587686
F2    F     F_    0.212084 0.240257 0.659418 -0.578475
F3    F     F_    0.755244 0.113163 0.479519 -0.623439
F4    F     F_    0.798604 0.312838 0.339291 -0.648302
H15   H     H_    0.075771 0.643994 0.616747 0.131109
F5    F     F_    0.135274 0.434341 0.817284 -0.593759

loop_
_geom_bond_atom_site_label_1
_geom_bond_atom_site_label_2
_ccdc_geom_bond_type
C31   O7    A    
C35   H11   S    
C23   O5    A    
C2    C4    A    
C15   F2    S    
C27   N2    A    
Cu2   O8    S    
C22   F4    S    
C16   C21   A    
C6    H7    S    
Cu2   O4    S    
C11   C13   A    
C31   O8    A    
Cu1   O5    S    
C4    C8    A    
C11   H14   S    
Cu1   N2    S    
Cu2   O6    S    
C25   H5    S    
C19   C20   A    
C31   C33   S    
C17   C18   A    
C1    C18   S    
C8    H9    S    
C26   H6    S    
C10   C34   A    
C3    C10   A    
C22   C28   A    
C13   C14   A    
C24   C25   A    
C23   O6    A    
C28   N1    A    
C26   C27   A    
C29   C30   A    
C10   C12   S    
C9    C33   A    
C1    O1    A    
C14   F1    S    
C12   O3    A    
Cu1   Cu2   S    
C36   H10   S    
C6    C7    A    
C3    C7    A    
C8    C33   A    
C21   C23   S    
C1    O2    A    
C5    C6    A    
C30   N2    A    
C22   C24   A    
Cu1   O7    S    
Cu2   N1    S    
C12   O4    A    
C34   F5    S    
C15   C16   A    
C16   C17   A    
C19   H13   S    
C20   F3    S    
C9    H1    S    
C24   H4    S    
C20   C21   A    
C34   C35   A    
C2    C36   A    
C27   C28   A    
Cu1   O1    S    
C18   C19   A    
C13   H2    S    
C2    C3    A    
C35   C36   A    
C9    C32   A    
C29   H3    S    
C25   C26   A    
C14   C15   A    
Cu1   O3    S    
C32   H8    S    
C5    C32   A    
C11   C17   A    
Cu2   O2    S    
C30   H15   S    
C7    H12   S    
C4    C5    A    
C29   N1    A    
