data_mof_unit_45819.cif
_audit_creation_date              2012-12-10T19:44:58-0500
_audit_creation_method            fapswitch 2.2
_symmetry_space_group_name_H-M    P1
_symmetry_Int_Tables_number       1
_space_group_crystal_system       triclinic
_cell_length_a                    15.040909
_cell_length_b                    10.898398
_cell_length_c                    13.702713
_cell_angle_alpha                 90.159282
_cell_angle_beta                  90.262948
_cell_angle_gamma                 90.859268
_cell_volume                      2245.8881941

loop_
_atom_site_label
_atom_site_type_symbol
_atom_type_description
_atom_site_fract_x
_atom_site_fract_y
_atom_site_fract_z
_atom_type_partial_charge
C1    C     C_R   0.501946 0.262166 0.499492 0.856464
C2    C     C_R   0.498054 0.737834 0.500508 0.856464
C3    C     C_R   0.048659 0.317486 0.400233 -0.205777
C4    C     C_R   0.951341 0.682514 0.599767 -0.205778
C5    C     C_R   0.296347 0.218609 0.252420 -0.130000
C6    C     C_R   0.703653 0.781391 0.747580 -0.130000
C7    C     C_R   0.331662 0.163135 0.335770 -0.119299
C8    C     C_R   0.668338 0.836865 0.664230 -0.119299
C9    C     C_R   0.420065 0.124078 0.336319 0.173120
C10   C     C_R   0.579935 0.875922 0.663681 0.173121
C11   C     C_R   0.472527 0.140363 0.252637 -0.074792
C12   C     C_R   0.527473 0.859637 0.747363 -0.074792
C13   C     C_R   0.437015 0.196035 0.169676 -0.133913
C14   C     C_R   0.562985 0.803965 0.830324 -0.133913
C15   C     C_R   0.349084 0.235534 0.169677 -0.097925
C16   C     C_R   0.650916 0.764466 0.830323 -0.097925
C17   C     C_R   0.451497 0.934488 0.427621 0.138516
C18   C     C_R   0.548503 0.065512 0.572379 0.138516
C19   C     C_R   0.496500 0.871728 0.502292 -0.143354
C20   C     C_R   0.503500 0.128272 0.497708 -0.143354
C21   C     C_R   0.542076 0.937753 0.577035 -0.086221
C22   C     C_R   0.457924 0.062247 0.422965 -0.086221
C23   C     C_R   0.328904 0.504514 0.499898 0.857718
C24   C     C_R   0.671096 0.495486 0.500102 0.857719
C25   C     C_R   0.571439 0.455378 0.793873 0.046587
C26   C     C_R   0.428561 0.544622 0.206126 0.046588
C27   C     C_R   0.428838 0.545553 0.793345 0.022083
C28   C     C_R   0.571162 0.454447 0.206655 0.022083
C29   C     C_R   0.427005 0.546274 0.896268 -0.021919
C30   C     C_R   0.572995 0.453726 0.103732 -0.021919
C31   C     C_R   0.499982 0.499966 0.948255 0.080567
C32   C     C_R   0.500018 0.500033 0.051745 0.080567
C33   C     C_R   0.573048 0.453967 0.896794 -0.015465
C34   C     C_R   0.426952 0.546033 0.103206 -0.015465
C35   C     C_R   0.354325 0.592467 0.948201 -0.201366
C36   C     C_R   0.645675 0.407533 0.051799 -0.201366
C37   C     C_R   0.354226 0.592128 0.050769 -0.192762
C38   C     C_R   0.645774 0.407871 0.949231 -0.192763
C39   C     C_R   0.813654 0.583710 0.550421 -0.282730
C40   C     C_R   0.186346 0.416290 0.449578 -0.282730
C41   C     C_R   0.767526 0.491209 0.500334 -0.083693
C42   C     C_R   0.232474 0.508791 0.499666 -0.083693
C43   C     C_R   0.813197 0.397958 0.450806 0.083203
C44   C     C_R   0.186803 0.602042 0.549194 0.083203
C45   C     C_R   0.907027 0.401448 0.449922 0.074398
C46   C     C_R   0.092973 0.598552 0.550078 0.074398
C47   C     C_R   0.953188 0.497361 0.500026 0.043224
C48   C     C_R   0.046812 0.502639 0.499974 0.043224
C49   C     C_R   0.905903 0.588022 0.550489 0.116179
C50   C     C_R   0.094097 0.411977 0.449511 0.116179
C51   C     C_R   0.956201 0.312113 0.400379 -0.165929
C52   C     C_R   0.043799 0.687886 0.599621 -0.165928
Cu1   Cu    Cu3+1 0.500010 0.499980 0.597420 0.982617
Cu2   Cu    Cu3+1 0.499990 0.500020 0.402580 0.982617
H1    H     H_    0.777109 0.653937 0.587906 0.140072
H2    H     H_    0.222891 0.346063 0.412094 0.140072
H3    H     H_    0.627674 0.421267 0.753924 0.160547
H4    H     H_    0.372326 0.578733 0.246076 0.160547
H5    H     H_    0.373463 0.582172 0.753012 0.162596
H6    H     H_    0.626537 0.417828 0.246988 0.162596
H7    H     H_    0.297549 0.628744 0.909519 0.158459
H8    H     H_    0.702451 0.371256 0.090481 0.158459
H9    H     H_    0.297346 0.628066 0.089056 0.158922
H10   H     H_    0.702654 0.371934 0.910944 0.158922
H11   H     H_    0.924404 0.237587 0.360844 0.184178
H12   H     H_    0.075596 0.762413 0.639156 0.184178
H13   H     H_    0.084758 0.247296 0.361469 0.144991
H14   H     H_    0.915242 0.752703 0.638531 0.144991
H15   H     H_    0.321742 0.278866 0.105445 0.136552
H16   H     H_    0.678258 0.721134 0.894555 0.136552
H17   H     H_    0.227965 0.247999 0.251620 0.123703
H18   H     H_    0.772035 0.752001 0.748380 0.123703
H19   H     H_    0.290218 0.148955 0.399267 0.127121
H20   H     H_    0.709782 0.851045 0.600733 0.127121
H21   H     H_    0.540765 0.110003 0.251899 0.143841
H22   H     H_    0.459235 0.889997 0.748101 0.143841
H23   H     H_    0.477645 0.208554 0.105384 0.143539
H24   H     H_    0.522355 0.791446 0.894616 0.143539
N1    N     N_R   0.499960 0.499900 0.743810 -0.184587
N2    N     N_R   0.500040 0.500100 0.256190 -0.184588
O1    O     O_R   0.500000 0.319630 0.582270 -0.555911
O2    O     O_R   0.500000 0.680370 0.417730 -0.555911
O3    O     O_R   0.499990 0.319660 0.417730 -0.575302
O4    O     O_R   0.500010 0.680340 0.582270 -0.575302
O5    O     O_R   0.370260 0.499960 0.582280 -0.581129
O6    O     O_R   0.629740 0.500040 0.417720 -0.581129
O7    O     O_R   0.370250 0.499990 0.417740 -0.586862
O8    O     O_R   0.629750 0.500010 0.582260 -0.586862
I1    I     I_    0.362460 0.841388 0.327264 -0.380607
I2    I     I_    0.637540 0.158612 0.672736 -0.380607
I3    I     I_    0.739416 0.249161 0.384691 -0.439655
I4    I     I_    0.260584 0.750839 0.615309 -0.439655

loop_
_geom_bond_atom_site_label_1
_geom_bond_atom_site_label_2
_ccdc_geom_bond_type
C5    H17   S    
C27   C29   A    
C18   C21   A    
C2    O4    A    
C7    H19   S    
Cu1   Cu2   S    
C6    H18   S    
C23   C42   S    
C25   H3    S    
C4    C52   A    
Cu1   O4    S    
C19   C21   A    
C27   N1    A    
Cu2   O7    S    
C9    C22   S    
C45   C51   A    
C1    O1    A    
C34   C37   A    
C46   C52   A    
Cu1   O1    S    
C51   H11   S    
C26   C34   A    
C39   H1    S    
C31   C32   A    
C40   H2    S    
C31   C33   A    
C38   H10   S    
C44   I4    S    
C48   C50   A    
C23   O7    A    
C24   C41   S    
C41   C43   A    
C42   C44   A    
C11   H21   S    
C36   H8    S    
Cu2   O3    S    
C37   H9    S    
C3    C50   A    
C44   C46   A    
Cu2   N2    S    
C45   C47   A    
C10   C21   S    
C15   H15   S    
C13   H23   S    
C18   I2    S    
C16   H16   S    
C47   C49   A    
Cu2   O6    S    
C3    C51   A    
C6    C8    A    
C4    H14   S    
C43   I3    S    
C32   C34   A    
C26   H4    S    
C47   C48   A    
C29   C31   A    
C8    H20   S    
C17   I1    S    
C35   H7    S    
C9    C11   A    
C28   H6    S    
C10   C12   A    
C39   C49   A    
C20   C22   A    
C13   C15   A    
C14   C16   A    
C2    O2    A    
C36   C38   A    
Cu2   O2    S    
C52   H12   S    
C35   C37   A    
C5    C7    A    
C7    C9    A    
C1    C20   S    
Cu1   N1    S    
C2    C19   S    
C25   N1    A    
C24   O8    A    
C3    H13   S    
C33   C38   A    
C12   C14   A    
C1    O3    A    
C29   C35   A    
C17   C22   A    
C30   C36   A    
C4    C49   A    
C12   H22   S    
C28   C30   A    
C43   C45   A    
C27   H5    S    
C30   C32   A    
C11   C13   A    
C40   C50   A    
C40   C42   A    
C17   C19   A    
Cu1   O8    S    
C18   C20   A    
C14   H24   S    
C28   N2    A    
C26   N2    A    
C5    C15   A    
C6    C16   A    
C46   C48   A    
C39   C41   A    
C8    C10   A    
C23   O5    A    
Cu1   O5    S    
C24   O6    A    
C25   C33   A    
