data_mof_unit_27460.cif
_audit_creation_date              2012-12-11T14:45:26-0500
_audit_creation_method            fapswitch 2.2
_symmetry_space_group_name_H-M    P1
_symmetry_Int_Tables_number       1
_space_group_crystal_system       triclinic
_cell_length_a                    24.948401
_cell_length_b                    7.170336
_cell_length_c                    14.387229
_cell_angle_alpha                 89.906454
_cell_angle_beta                  102.788657
_cell_angle_gamma                 87.361491
_cell_volume                      2507.01768029

loop_
_atom_site_label
_atom_site_type_symbol
_atom_type_description
_atom_site_fract_x
_atom_site_fract_y
_atom_site_fract_z
_atom_type_partial_charge
O1    O     O_R   0.319150 0.364170 0.330530 -0.544481
O2    O     O_R   0.680850 0.635830 0.669470 -0.544485
O3    O     O_R   0.180850 0.864170 0.169470 -0.538083
O4    O     O_R   0.819150 0.135830 0.830530 -0.538083
O5    O     O_R   0.210330 0.696850 0.354180 -0.539108
O6    O     O_R   0.789670 0.303150 0.645820 -0.539107
O7    O     O_R   0.289670 0.196850 0.145820 -0.534203
O8    O     O_R   0.710330 0.803150 0.854180 -0.534203
C1    C     C_R   0.197131 0.527393 0.378239 0.677581
C2    C     C_R   0.802869 0.472607 0.621760 0.677580
C3    C     C_R   0.302467 0.023371 0.121463 0.683572
C4    C     C_R   0.697533 0.976628 0.878537 0.683568
O9    O     O_R   0.320550 0.694110 0.341970 -0.541381
O10   O     O_R   0.679450 0.305890 0.658030 -0.541378
O11   O     O_R   0.179450 0.194110 0.158030 -0.546596
O12   O     O_R   0.820550 0.805890 0.841970 -0.546595
O13   O     O_R   0.291860 0.861000 0.157170 -0.535854
O14   O     O_R   0.708140 0.139000 0.842830 -0.535855
O15   O     O_R   0.208140 0.361000 0.342830 -0.534925
O16   O     O_R   0.791860 0.639000 0.657170 -0.534926
C5    C     C_R   0.341876 0.520910 0.362452 0.694288
C6    C     C_R   0.658125 0.479091 0.637544 0.694292
C7    C     C_R   0.157758 0.030041 0.137766 0.693864
C8    C     C_R   0.842242 0.969959 0.862234 0.693866
O17   O     O_3   0.240460 0.529330 0.189380 -0.372655
O18   O     O_3   0.759540 0.470670 0.810620 -0.372656
O19   O     O_3   0.259540 0.029330 0.310620 -0.376929
O20   O     O_3   0.740460 0.970670 0.689380 -0.376927
V1    V     V_3+5 0.251770 0.805510 0.261240 1.435143
V2    V     V_3+5 0.748230 0.194490 0.738760 1.435151
V3    V     V_3+5 0.248230 0.305510 0.238760 1.439392
V4    V     V_3+5 0.751770 0.694490 0.761240 1.439392
C9    C     C_R   0.101297 0.038912 0.075817 -0.064865
C10   C     C_R   0.898703 0.961088 0.924183 -0.064872
C11   C     C_R   0.397788 0.493652 0.424502 -0.065022
C12   C     C_R   0.602216 0.506350 0.575487 -0.065008
C13   C     C_R   0.972255 0.779318 0.031861 -0.171889
C14   C     C_R   0.027746 0.220678 0.968137 -0.171893
C15   C     C_R   0.532408 0.718282 0.478228 -0.165797
C16   C     C_R   0.467598 0.281714 0.521753 -0.165809
C17   C     C_R   0.917733 0.800298 0.980659 -0.140277
C18   C     C_R   0.082267 0.199699 0.019340 -0.140270
C19   C     C_R   0.586607 0.678353 0.527125 -0.139478
C20   C     C_R   0.413397 0.321650 0.472865 -0.139484
C21   C     C_R   0.935514 0.102800 0.921528 -0.231160
C22   C     C_R   0.064486 0.897197 0.078471 -0.231144
C23   C     C_R   0.562486 0.372505 0.571861 -0.238264
C24   C     C_R   0.437519 0.627483 0.428117 -0.238230
C25   C     C_R   0.990689 0.081719 0.972343 0.167661
C26   C     C_R   0.009312 0.918278 0.027656 0.167671
C27   C     C_R   0.507635 0.412631 0.523372 0.155859
C28   C     C_R   0.492370 0.587359 0.476604 0.155875
H1    H     H_    0.078207 0.773452 0.122231 0.122363
H2    H     H_    0.921793 0.226546 0.877768 0.122369
H3    H     H_    0.426305 0.759562 0.390466 0.125450
H4    H     H_    0.573698 0.240423 0.609509 0.125458
H5    H     H_    0.109516 0.311360 0.015404 0.144562
H6    H     H_    0.890483 0.688639 0.984595 0.144568
H7    H     H_    0.383694 0.215652 0.471644 0.138523
H8    H     H_    0.616310 0.784360 0.528353 0.138530
H9    H     H_    0.985521 0.653388 0.074063 0.128857
H10   H     H_    0.014480 0.346608 0.925936 0.128864
H11   H     H_    0.521705 0.852559 0.442673 0.145855
H12   H     H_    0.478303 0.147441 0.557308 0.145822
C29   C     C_R   0.664975 0.991983 0.951038 -0.031962
C30   C     C_R   0.335025 0.008003 0.048965 -0.031959
C31   C     C_R   0.835356 0.472922 0.548562 -0.036505
C32   C     C_R   0.164643 0.527074 0.451436 -0.036508
C33   C     C_R   0.657994 0.058750 0.111917 -0.110117
C34   C     C_R   0.342009 0.941271 0.888094 -0.110098
C35   C     C_R   0.844228 0.406833 0.388302 -0.115303
C36   C     C_R   0.155770 0.593127 0.611699 -0.115293
C37   C     C_R   0.689960 0.029751 0.044965 -0.159382
C38   C     C_R   0.310040 0.970333 0.955035 -0.159376
C39   C     C_R   0.812465 0.416064 0.456469 -0.167401
C40   C     C_R   0.187533 0.583921 0.543531 -0.167401
C41   C     C_R   0.608141 0.977846 0.924234 -0.192108
C42   C     C_R   0.391862 0.022019 0.075777 -0.192130
C43   C     C_R   0.890919 0.512656 0.573738 -0.194940
C44   C     C_R   0.109080 0.487332 0.426257 -0.194931
C45   C     C_R   0.574364 0.002894 0.990952 0.086831
C46   C     C_R   0.425642 0.996943 0.009072 0.086822
C47   C     C_R   0.925466 0.491066 0.507839 0.084865
C48   C     C_R   0.074532 0.508894 0.492158 0.084862
C49   C     C_R   0.600020 0.053237 0.085743 0.059120
C50   C     C_R   0.399985 0.946657 0.914281 0.059124
C51   C     C_R   0.900425 0.448378 0.411692 0.058988
C52   C     C_R   0.099574 0.551569 0.588307 0.058985
C53   C     C_R   0.516133 0.981932 0.965680 0.043619
C54   C     C_R   0.483874 0.017858 0.034352 0.043616
C55   C     C_R   0.983852 0.508335 0.534996 0.042046
C56   C     C_R   0.016147 0.491612 0.465001 0.042046
C57   C     C_R   0.510537 0.077783 0.125755 -0.221939
C58   C     C_R   0.489470 0.921992 0.874283 -0.221949
C59   C     C_R   0.988946 0.464620 0.369241 -0.223851
C60   C     C_R   0.011053 0.535305 0.630758 -0.223847
C61   C     C_R   0.567305 0.095686 0.152094 -0.027731
C62   C     C_R   0.432701 0.904148 0.847942 -0.027726
C63   C     C_R   0.932336 0.443314 0.341888 -0.026923
C64   C     C_R   0.067663 0.556608 0.658112 -0.026917
H13   H     H_    0.408144 0.046606 0.150235 0.096821
H14   H     H_    0.591857 0.953209 0.849767 0.096820
H15   H     H_    0.094272 0.443266 0.354001 0.102208
H16   H     H_    0.905727 0.556743 0.645991 0.102216
H17   H     H_    0.265780 0.961177 0.933777 0.121138
H18   H     H_    0.734218 0.039011 0.066215 0.121139
H19   H     H_    0.230214 0.620426 0.562817 0.129564
H20   H     H_    0.769783 0.379566 0.437185 0.129568
H21   H     H_    0.679460 0.084601 0.184230 0.154421
H22   H     H_    0.320546 0.915479 0.815779 0.154388
H23   H     H_    0.824527 0.360674 0.318118 0.157926
H24   H     H_    0.175470 0.639275 0.681887 0.157919
H25   H     H_    0.487919 0.119154 0.178460 0.147350
H26   H     H_    0.512087 0.880574 0.821585 0.147335
H27   H     H_    0.010548 0.465598 0.312326 0.145706
H28   H     H_    0.989451 0.534301 0.687674 0.145697
C65   C     C_2   0.589886 0.167887 0.249136 0.747834
O21   O     O_2   0.623804 0.288391 0.260971 -0.562386
O22   O     O_R   0.569873 0.104537 0.326418 -0.672666
H29   H     H_    0.587368 0.166121 0.388444 0.293220
C66   C     C_2   0.410112 0.831968 0.750901 0.747860
O23   O     O_2   0.376191 0.711482 0.739073 -0.562374
O24   O     O_R   0.430112 0.895330 0.673609 -0.672657
H30   H     H_    0.412590 0.833854 0.611574 0.293229
C67   C     C_2   0.908350 0.423437 0.238204 0.736271
O25   O     O_2   0.865095 0.507097 0.200879 -0.565185
O26   O     O_R   0.937018 0.316119 0.182257 -0.665367
H31   H     H_    0.917363 0.316188 0.112559 0.293789
C68   C     C_2   0.091650 0.576452 0.761797 0.736271
O27   O     O_2   0.134903 0.492769 0.799115 -0.565178
O28   O     O_R   0.062987 0.683769 0.817751 -0.665367
H32   H     H_    0.082643 0.683677 0.887449 0.293780

loop_
_geom_bond_atom_site_label_1
_geom_bond_atom_site_label_2
_ccdc_geom_bond_type
O17   V3    S    
C24   H3    S    
C47   C51   A    
C36   H24   S    
O1    C5    A    
O19   V1    S    
O13   V1    S    
O3    C7    A    
C44   C48   A    
O15   V3    S    
C58   H26   S    
O24   H30   S    
C63   C67   S    
C14   C25   A    
C2    C31   S    
O7    C3    A    
C9    C18   A    
O9    V1    S    
C17   H6    S    
C14   C18   A    
C65   O22   S    
O4    C8    A    
C59   C63   A    
C58   C62   A    
C20   H7    S    
C30   C38   A    
O1    V3    S    
C29   C37   A    
C12   C23   A    
O2    V4    S    
C53   C58   A    
O3    V1    S    
C34   C38   A    
C34   H22   S    
C55   C60   A    
C33   H21   S    
C1    O15   A    
C59   H27   S    
C7    C9    S    
C35   H23   S    
O2    C6    A    
C33   C37   A    
O14   V2    S    
C21   C25   A    
C16   C20   A    
O5    V1    S    
C3    C30   S    
C36   C40   A    
C45   C53   A    
O11   C7    A    
C15   C28   A    
C39   H20   S    
O12   C8    A    
C42   H13   S    
C61   C65   S    
C9    C22   A    
C41   H14   S    
C10   C17   A    
O10   V2    S    
C11   C24   A    
C18   H5    S    
C36   C52   A    
C51   C63   A    
C30   C42   A    
O7    V3    S    
C44   H15   S    
C27   C28   A    
O8    V4    S    
C31   C43   A    
C2    O16   A    
C55   C56   A    
C64   C68   S    
C15   C19   A    
C46   C50   A    
C56   C59   A    
C8    C10   S    
O5    C1    A    
C29   C41   A    
C42   C46   A    
C13   H9    S    
C6    C12   S    
C41   C45   A    
O8    C4    A    
O9    C5    A    
C10   C21   A    
C57   H25   S    
C32   C40   A    
C11   C20   A    
C66   O23   D    
C52   C64   A    
C19   H8    S    
C35   C51   A    
O6    V2    S    
C21   H2    S    
C40   H19   S    
C67   O25   D    
C43   H16   S    
C31   C39   A    
C32   C44   A    
C34   C50   A    
C57   C61   A    
C33   C49   A    
C54   C57   A    
C68   O27   D    
O16   V4    S    
C3    O13   A    
C48   C52   A    
C46   C54   A    
O6    C2    A    
C23   C27   A    
O22   H29   S    
O11   V3    S    
C5    C11   S    
O12   V4    S    
C16   C27   A    
C15   H11   S    
C4    C29   S    
C22   C26   A    
C16   H12   S    
O10   C6    A    
O20   V2    S    
C1    C32   S    
C65   O21   D    
C38   H17   S    
C35   C39   A    
C13   C26   A    
C37   H18   S    
C60   C64   A    
C22   H1    S    
C62   C66   S    
C47   C55   A    
C13   C17   A    
O28   H32   S    
C50   C62   A    
O4    V2    S    
C66   O24   S    
C49   C61   A    
C43   C47   A    
C24   C28   A    
C25   C26   A    
C4    O14   A    
C67   O26   S    
C60   H28   S    
C12   C19   A    
C48   C56   A    
C68   O28   S    
C53   C54   A    
O18   V4    S    
C45   C49   A    
O26   H31   S    
C23   H4    S    
C14   H10   S    
