data_mof_unit_67931.cif
_audit_creation_date              2013-03-05T16:14:17-0500
_audit_creation_method            fapswitch 2.2
_symmetry_space_group_name_H-M    P1
_symmetry_Int_Tables_number       1
_space_group_crystal_system       triclinic
_cell_length_a                    11.031806
_cell_length_b                    10.635607
_cell_length_c                    10.252544
_cell_angle_alpha                 90.727797
_cell_angle_beta                  92.440699
_cell_angle_gamma                 89.695682
_cell_volume                      1201.72858783

loop_
_atom_site_label
_atom_site_type_symbol
_atom_site_description
_atom_site_fract_x
_atom_site_fract_y
_atom_site_fract_z
_atom_type_partial_charge
O1    O     O_R   0.499990 0.316750 0.614620 -0.597864
O2    O     O_R   0.500010 0.683250 0.385380 -0.592960
O3    O     O_R   0.499990 0.316780 0.385290 -0.608177
O4    O     O_R   0.500010 0.683220 0.614710 -0.613595
C1    C     C_R   0.499339 0.261452 0.499568 0.917292
C2    C     C_R   0.498334 0.738129 0.500720 1.016058
O5    O     O_R   0.316760 0.500000 0.614660 -0.493751
O6    O     O_R   0.683240 0.500000 0.385340 -0.501001
O7    O     O_R   0.316760 0.500020 0.385330 -0.670433
O8    O     O_R   0.683240 0.499980 0.614670 -0.661355
C3    C     C_R   0.260660 0.495798 0.497567 0.872006
C4    C     C_R   0.739210 0.501943 0.502210 0.873721
Zn1   Zn    Zn3+2 0.500000 0.499980 0.653120 1.039195
Zn2   Zn    Zn3+2 0.500000 0.500020 0.346880 1.044406
C5    C     C_R   0.178488 0.645583 0.076637 0.292513
C6    C     C_R   0.820345 0.355255 0.927247 0.283037
C7    C     C_R   0.122332 0.645221 0.197454 0.345216
C8    C     C_R   0.865207 0.348640 0.801134 0.308731
C9    C     C_R   0.101061 0.529895 0.256333 -0.191157
C10   C     C_R   0.897592 0.459804 0.740322 -0.196596
C11   C     C_R   0.128422 0.414279 0.196771 0.388611
C12   C     C_R   0.879539 0.578345 0.797720 0.346856
C13   C     C_R   0.181775 0.413877 0.076010 0.290823
C14   C     C_R   0.835564 0.586161 0.922829 0.314967
C15   C     C_R   0.200431 0.529144 0.012581 0.023399
C16   C     C_R   0.810037 0.474370 0.989240 0.037472
C17   C     C_R   0.930979 0.538723 0.394912 -0.161802
C18   C     C_R   0.068568 0.446143 0.602721 -0.246761
H1    H     H_    0.881131 0.578285 0.314853 0.211502
H2    H     H_    0.118715 0.409578 0.684683 0.212922
C19   C     C_R   0.872711 0.500342 0.504440 -0.046982
C20   C     C_R   0.126956 0.487524 0.493614 -0.093115
C21   C     C_R   0.943861 0.456943 0.610684 0.175860
C22   C     C_R   0.054812 0.526890 0.386094 0.201503
C23   C     C_R   0.573700 0.061254 0.416331 0.151862
C24   C     C_R   0.418868 0.936340 0.583223 0.158888
C25   C     C_R   0.578698 0.932240 0.424324 0.396669
C26   C     C_R   0.423488 0.066386 0.586726 0.385259
C27   C     C_R   0.497047 0.870958 0.501961 -0.399866
C28   C     C_R   0.498643 0.128054 0.500207 -0.415662
C29   C     C_R   0.492795 0.608805 0.071373 -0.019059
C30   C     C_R   0.510445 0.391156 0.928756 0.058271
H3    H     H_    0.491723 0.697763 0.122797 0.145457
H4    H     H_    0.517779 0.302068 0.877640 0.174534
C31   C     C_R   0.493698 0.608918 0.930699 -0.019431
C32   C     C_R   0.507611 0.391035 0.069542 0.079278
H5    H     H_    0.486362 0.697970 0.881307 0.161421
H6    H     H_    0.513160 0.302073 0.119103 0.191508
N1    N     N_R   0.499970 0.499970 0.857200 -0.094814
N2    N     N_R   0.500030 0.500030 0.142800 -0.102301
N3    N     N_R   0.241666 0.526219 0.882478 0.214679
O9    O     O_R   0.247518 0.628155 0.814669 -0.320780
O10   O     O_R   0.275069 0.420193 0.830918 -0.384069
N4    N     N_R   0.769517 0.482272 0.118949 0.219505
O11   O     O_R   0.779269 0.385548 0.194924 -0.302016
O12   O     O_R   0.727902 0.588171 0.163800 -0.386110
O13   O     O_3   0.207301 0.757361 0.016123 -0.566676
C33   C     C_3   0.279870 0.837603 0.098092 -0.128742
H7    H     H_    0.317822 0.793142 0.188883 0.152133
H8    H     H_    0.226415 0.921947 0.125020 0.163262
H9    H     H_    0.357334 0.870726 0.042438 0.185078
O14   O     O_3   0.762998 0.252158 0.978545 -0.574970
C34   C     C_3   0.848409 0.160817 0.020648 -0.124893
H10   H     H_    0.901191 0.194851 0.108488 0.223955
H11   H     H_    0.908192 0.129286 0.942557 0.137552
H12   H     H_    0.799368 0.075427 0.048540 0.205715
O15   O     O_3   0.099886 0.755839 0.265674 -0.602775
C35   C     C_3   0.000196 0.819464 0.205709 -0.245867
H13   H     H_    0.916674 0.762519 0.207953 0.227367
H14   H     H_    0.016527 0.846087 0.103621 0.201192
H15   H     H_    0.984347 0.907781 0.261247 0.178435
O16   O     O_3   0.883838 0.234121 0.739225 -0.631389
C36   C     C_3   0.773439 0.192026 0.680672 -0.178201
H16   H     H_    0.703087 0.177144 0.753205 0.186055
H17   H     H_    0.789541 0.100195 0.631941 0.162476
H18   H     H_    0.739719 0.258440 0.605114 0.188762
O17   O     O_3   0.087731 0.303833 0.251079 -0.590254
C37   C     C_3   0.185129 0.225056 0.292094 -0.249325
H19   H     H_    0.263335 0.277443 0.336141 0.163679
H20   H     H_    0.216695 0.163706 0.212565 0.191274
H21   H     H_    0.150813 0.160098 0.365048 0.161622
O18   O     O_3   0.884378 0.685661 0.722683 -0.659257
C38   C     C_3   0.997099 0.744761 0.744141 -0.144759
H22   H     H_    0.025185 0.751851 0.849354 0.218952
H23   H     H_    0.989802 0.841958 0.706510 0.174181
H24   H     H_    0.066119 0.695100 0.687601 0.247447
O19   O     O_3   0.235252 0.304499 0.030806 -0.579437
C39   C     C_3   0.147789 0.227719 0.966232 -0.193506
H25   H     H_    0.091649 0.280241 0.892668 0.165294
H26   H     H_    0.090656 0.181924 0.036797 0.140999
H27   H     H_    0.195760 0.150579 0.915968 0.218604
O20   O     O_3   0.829198 0.701754 0.986672 -0.602970
C40   C     C_3   0.745083 0.784202 0.923624 -0.167648
H28   H     H_    0.681513 0.820095 0.996542 0.187124
H29   H     H_    0.690319 0.741259 0.841013 0.159372
H30   H     H_    0.794483 0.866118 0.886542 0.163839
N5    N     N_R   0.647318 0.122708 0.325186 0.251957
O21   O     O_R   0.632527 0.095906 0.201553 -0.387312
O22   O     O_R   0.739290 0.190444 0.366215 -0.393657
N6    N     N_R   0.330135 0.871633 0.655460 0.241910
O23   O     O_R   0.256159 0.793643 0.594827 -0.412757
O24   O     O_R   0.312469 0.902171 0.776465 -0.352075
O25   O     O_3   0.666769 0.865550 0.360109 -0.553376
C41   C     C_3   0.770612 0.857174 0.445191 -0.256505
H31   H     H_    0.830755 0.782451 0.408966 0.191952
H32   H     H_    0.748765 0.830685 0.546461 0.156421
H33   H     H_    0.821647 0.947046 0.446874 0.181810
O26   O     O_3   0.356696 0.132241 0.676721 -0.547907
C42   C     C_3   0.240782 0.158314 0.620563 -0.145575
H34   H     H_    0.198636 0.075330 0.569569 0.145949
H35   H     H_    0.246018 0.239370 0.554994 0.112456
H36   H     H_    0.179498 0.186254 0.698153 0.189246

loop_
_geom_bond_atom_site_label_1
_geom_bond_atom_site_label_2
_geom_bond_distance
_ccdc_geom_bond_type
O19   C39   1.405831 S    
C34   H11   1.106455 S    
C40   H28   1.109498 S    
C17   H1    1.058793 S    
C29   H3    1.077502 S    
C36   H16   1.110795 S    
C41   H32   1.115761 S    
N5    O21   1.299334 A    
O17   C37   1.412163 S    
O5    C3    1.327354 A    
C30   H4    1.081274 S    
O1    C1    1.311122 A    
C12   O18   1.387045 S    
C9    C11   1.403114 A    
C14   C16   1.413142 A    
C42   H35   1.103175 S    
C37   H20   1.104587 S    
C5    C15   1.418885 A    
C33   H8    1.109331 S    
C16   N4    1.422251 S    
O26   C42   1.407539 S    
C30   C32   1.445098 A    
O4    Zn1   1.993156 S    
N6    O23   1.300512 A    
C35   H13   1.106528 S    
C19   C21   1.397049 A    
C33   H9    1.108969 S    
C34   H12   1.106457 S    
C40   H29   1.113764 S    
C13   O19   1.385052 S    
C6    C16   1.416335 A    
C5    O13   1.392410 S    
O2    C2    1.312860 A    
C6    O14   1.389064 S    
C14   O20   1.388302 S    
C41   H31   1.103460 S    
N5    O22   1.299664 A    
C32   H6    1.079869 S    
C31   H5    1.080700 S    
C17   C22   1.377912 A    
C8    O16   1.384699 S    
N4    O12   1.300029 A    
C7    O15   1.387584 S    
C17   C19   1.384463 A    
N3    O9    1.298688 A    
C18   C20   1.391691 A    
O4    C2    1.312479 A    
C42   H36   1.102664 S    
C25   O25   1.384128 S    
C37   H19   1.106446 S    
C33   H7    1.114110 S    
C9    C22   1.445794 S    
O15   C35   1.410819 S    
N3    O10   1.297633 A    
C20   C22   1.399064 A    
O7    Zn2   2.075960 S    
C15   N3    1.427452 S    
O14   C34   1.408608 S    
C38   H22   1.111305 S    
C39   H27   1.107528 S    
C31   N1    1.377203 A    
O6    C4    1.324343 A    
N6    O24   1.300867 A    
C24   N6    1.436038 S    
O7    C3    1.330950 A    
O3    Zn2   1.993155 S    
O8    C4    1.331344 A    
Zn1   N1    2.092355 S    
C10   C21   1.443815 S    
C35   H14   1.110076 S    
C38   H23   1.109306 S    
C39   H26   1.099517 S    
C3    C20   1.476887 S    
C40   H30   1.109813 S    
C11   C13   1.393297 A    
C4    C19   1.471979 S    
C36   H18   1.106339 S    
C12   C14   1.391908 A    
O1    Zn1   1.983416 S    
C36   H17   1.108332 S    
C29   N2    1.377171 A    
C5    C7    1.408415 A    
N4    O11   1.299472 A    
O6    Zn2   2.043017 S    
C23   C25   1.376296 A    
C24   C27   1.400574 A    
C10   C12   1.401405 A    
O16   C36   1.407398 S    
O3    C1    1.318087 A    
O8    Zn1   2.075958 S    
C18   C21   1.385708 A    
C32   N2    1.377365 A    
C18   H2    1.062937 S    
C23   C28   1.403110 A    
C25   C27   1.396512 A    
C42   H34   1.113737 S    
C26   C28   1.409821 A    
C37   H21   1.104579 S    
O13   C33   1.416767 S    
Zn2   N2    2.092355 S    
C35   H15   1.109165 S    
C24   C26   1.384284 A    
O20   C40   1.415094 S    
C7    C9    1.399230 A    
C8    C10   1.398710 A    
C13   C15   1.415107 A    
C26   O26   1.385947 S    
O2    Zn2   1.983415 S    
C30   N1    1.379800 A    
C34   H10   1.109239 S    
O5    Zn1   2.043020 S    
C38   H24   1.104672 S    
C39   H25   1.109814 S    
C6    C8    1.404817 A    
O18   C38   1.404028 S    
C1    C28   1.418929 S    
C11   O17   1.390990 S    
O25   C41   1.413146 S    
C29   C31   1.442738 A    
C2    C27   1.412613 S    
C23   N5    1.430309 S    
C41   H33   1.111481 S    
