data_mof_unit_26201.cif
_audit_creation_date              2012-12-10T18:52:15-0500
_audit_creation_method            fapswitch 2.2
_symmetry_space_group_name_H-M    P1
_symmetry_Int_Tables_number       1
_space_group_crystal_system       triclinic
_cell_length_a                    15.745974
_cell_length_b                    10.632203
_cell_length_c                    9.900802
_cell_angle_alpha                 90.963577
_cell_angle_beta                  91.395374
_cell_angle_gamma                 90.97103
_cell_volume                      1656.56110368

loop_
_atom_site_label
_atom_site_type_symbol
_atom_type_description
_atom_site_fract_x
_atom_site_fract_y
_atom_site_fract_z
_atom_type_partial_charge
C1    C     C_R   0.501317 0.260464 0.498940 0.896382
C2    C     C_R   0.434827 0.443507 0.066455 0.031826
C3    C     C_R   0.338108 0.499852 0.498497 0.892066
C4    C     C_R   0.661891 0.500148 0.501503 0.892068
C5    C     C_3   0.970199 0.381457 0.505448 0.110064
C6    C     C_3   0.029801 0.618540 0.494552 0.110063
C7    C     C_3   0.024426 0.434781 0.391097 0.098586
C8    C     C_3   0.975573 0.565217 0.608903 0.098585
C9    C     C_1   0.249433 0.499683 0.495405 -0.123371
C10   C     C_1   0.750567 0.500316 0.504595 -0.123372
C11   C     C_3   0.029970 0.445853 0.612515 -0.060055
C12   C     C_R   0.498681 0.739536 0.501060 0.896381
C13   C     C_3   0.970029 0.554145 0.387485 -0.060055
C14   C     C_3   0.083639 0.499189 0.498065 0.024754
C15   C     C_3   0.916361 0.500808 0.501935 0.024754
C16   C     C_1   0.174328 0.499438 0.495222 0.056217
C17   C     C_1   0.825672 0.500560 0.504778 0.056218
C18   C     C_R   0.563124 0.062371 0.425058 0.175880
C19   C     C_R   0.436882 0.937630 0.574960 0.175875
C20   C     C_3   0.053197 0.360813 0.268028 -0.807061
C21   C     C_3   0.946803 0.639184 0.731972 -0.807061
C22   C     C_3   0.935029 0.247460 0.510794 -0.841169
C23   C     C_R   0.560486 0.932854 0.428663 -0.199684
C24   C     C_3   0.064971 0.752537 0.489206 -0.841169
C25   C     C_2   0.937641 0.614575 0.260803 0.941665
C26   C     C_2   0.062359 0.385422 0.739196 0.941665
C27   C     C_3   0.632623 0.128023 0.349141 -0.841970
C28   C     C_3   0.367400 0.871982 0.650921 -0.841948
C29   C     C_2   0.637182 0.621472 0.871315 0.930248
C30   C     C_2   0.362818 0.378528 0.128685 0.930247
C31   C     C_R   0.439515 0.067147 0.571343 -0.199690
C32   C     C_R   0.498405 0.872040 0.502977 -0.049521
C33   C     C_R   0.501595 0.127960 0.497026 -0.049510
C34   C     C_R   0.564963 0.555157 0.076663 -0.118484
C35   C     C_R   0.435036 0.444843 0.923337 -0.118485
C36   C     C_R   0.565172 0.556493 0.933545 0.031822
H1    H     H_    0.607207 0.878751 0.374928 0.156014
H2    H     H_    0.909476 0.576486 0.797499 0.266787
H3    H     H_    0.988259 0.180386 0.512804 0.244943
H4    H     H_    0.897237 0.236179 0.603094 0.260469
H5    H     H_    0.893690 0.227339 0.420357 0.244769
H6    H     H_    0.011741 0.819611 0.487196 0.244944
H7    H     H_    0.106310 0.772658 0.579642 0.244768
H8    H     H_    0.102763 0.763818 0.396906 0.260469
H9    H     H_    0.836656 0.668484 0.148274 0.359280
H10   H     H_    0.163344 0.331513 0.851726 0.359280
H11   H     H_    0.667763 0.195665 0.417531 0.221279
H12   H     H_    0.392795 0.121251 0.625080 0.156015
H13   H     H_    0.679096 0.060320 0.308973 0.235628
H14   H     H_    0.604894 0.178977 0.262147 0.267366
H15   H     H_    0.332241 0.804345 0.582553 0.221286
H16   H     H_    0.395150 0.821026 0.737896 0.267371
H17   H     H_    0.320942 0.939687 0.691130 0.235621
H18   H     H_    0.764275 0.644361 0.863955 0.338014
H19   H     H_    0.235725 0.355638 0.136044 0.338014
H20   H     H_    0.616292 0.600243 0.135106 0.173708
H21   H     H_    0.383708 0.399757 0.864894 0.173708
H22   H     H_    0.996849 0.323274 0.210069 0.259295
H23   H     H_    0.090524 0.423511 0.202501 0.266787
H24   H     H_    0.093246 0.281535 0.300918 0.236269
H25   H     H_    0.003151 0.676723 0.789930 0.259295
H26   H     H_    0.906754 0.718462 0.699082 0.236269
N1    N     N_R   0.499980 0.499970 0.857200 -0.127526
N2    N     N_R   0.500020 0.500030 0.142800 -0.127525
O1    O     O_R   0.499990 0.316750 0.614620 -0.631456
O2    O     O_R   0.850346 0.626535 0.237203 -0.800285
O3    O     O_2   0.011903 0.347106 0.821524 -0.611782
O4    O     O_R   0.149654 0.373461 0.762797 -0.800284
O5    O     O_2   0.624797 0.706057 0.791814 -0.603232
O6    O     O_R   0.720101 0.591321 0.910717 -0.814461
O7    O     O_2   0.375203 0.293943 0.208186 -0.603231
O8    O     O_R   0.279899 0.408679 0.089283 -0.814462
O9    O     O_R   0.500010 0.683250 0.385380 -0.631454
O10   O     O_R   0.500000 0.316780 0.385290 -0.570078
O11   O     O_R   0.500000 0.683220 0.614710 -0.570083
O12   O     O_R   0.376780 0.499970 0.614640 -0.614211
O13   O     O_R   0.623220 0.500030 0.385360 -0.614209
O14   O     O_R   0.376780 0.500000 0.385310 -0.601937
O15   O     O_R   0.623220 0.500000 0.614690 -0.601936
O16   O     O_2   0.988097 0.652891 0.178476 -0.611782
Zn1   Zn    Zn3+2 0.500000 0.499980 0.653120 0.994761
Zn2   Zn    Zn3+2 0.500000 0.500020 0.346880 0.994765

loop_
_geom_bond_atom_site_label_1
_geom_bond_atom_site_label_2
_ccdc_geom_bond_type
C2    C35   A    
C34   H20   S    
C25   O16   D    
C24   H6    S    
C19   C31   A    
C30   O7    D    
C1    C33   S    
C29   C36   S    
N1    Zn1   S    
C1    O10   A    
C9    C16   T    
C5    C11   S    
C28   H15   S    
C22   H5    S    
C10   C17   T    
C7    C14   S    
C21   H2    S    
C1    O1    A    
C31   C33   A    
C20   H24   S    
C36   N1    A    
C21   H25   S    
H19   O8    S    
C27   H14   S    
C22   H4    S    
C12   O9    A    
C12   C32   S    
C13   C25   S    
O10   Zn2   S    
C19   C32   A    
C2    N2    A    
C29   O5    D    
C25   O2    S    
C18   C23   A    
C4    O15   A    
C5    C7    S    
O11   Zn1   S    
C6    C8    S    
C11   C26   S    
C23   H1    S    
H10   O4    S    
C3    C9    S    
C6    C14   S    
O14   Zn2   S    
O1    Zn1   S    
H18   O6    S    
C6    C24   S    
C34   N2    A    
C8    C21   S    
C20   H23   S    
C19   C28   S    
N2    Zn2   S    
C21   H26   S    
C8    C15   S    
C31   H12   S    
C13   C15   S    
C24   H8    S    
C14   C16   S    
C26   O3    D    
C20   H22   S    
O9    Zn2   S    
O15   Zn1   S    
C29   O6    S    
C27   H11   S    
C15   C17   S    
C18   C27   S    
O12   Zn1   S    
C30   O8    S    
C28   H17   S    
C5    C22   S    
C35   H21   S    
C2    C30   S    
C26   O4    S    
C23   C32   A    
C4    O13   A    
C6    C13   S    
C28   H16   S    
O13   Zn2   S    
C8    C11   S    
C22   H3    S    
C11   C14   S    
C34   C36   A    
C18   C33   A    
C5    C15   S    
C7    C13   S    
C7    C20   S    
C12   O11   A    
H9    O2    S    
C24   H7    S    
C3    O12   A    
C35   N1    A    
C3    O14   A    
C4    C10   S    
C27   H13   S    
