data_mof_unit_20335.cif
_audit_creation_date              2012-12-11T15:26:53-0500
_audit_creation_method            fapswitch 2.2
_symmetry_space_group_name_H-M    P1
_symmetry_Int_Tables_number       1
_space_group_crystal_system       triclinic
_cell_length_a                    14.228725
_cell_length_b                    14.245645
_cell_length_c                    27.350914
_cell_angle_alpha                 89.899029
_cell_angle_beta                  90.043603
_cell_angle_gamma                 120.252227
_cell_volume                      4788.9518871

loop_
_atom_site_label
_atom_site_type_symbol
_atom_type_description
_atom_site_fract_x
_atom_site_fract_y
_atom_site_fract_z
_atom_type_partial_charge
C1    C     C_R   0.236104 0.786402 0.568805 0.533041
C2    C     C_1   0.704620 0.861131 0.860026 0.055017
C3    C     C_1   0.138145 0.844238 0.859917 0.054591
C4    C     C_1   0.156549 0.294845 0.860170 0.002538
C5    C     C_1   0.618307 0.805161 0.659245 0.009421
C6    C     C_1   0.194871 0.813345 0.659277 0.012023
C7    C     C_1   0.188982 0.384363 0.659853 0.003087
C8    C     C_1   0.593356 0.790213 0.616875 0.052949
C9    C     C_1   0.209689 0.803036 0.616927 0.052873
C10   C     C_1   0.197945 0.408532 0.617367 0.054274
C11   C     C_R   0.106200 0.218702 0.949261 0.577127
C12   C     C_R   0.213723 0.450252 0.568949 0.535117
C13   C     C_R   0.781349 0.887347 0.949183 0.571129
C14   C     C_R   0.112584 0.893906 0.949202 0.585355
C15   C     C_R   0.594745 0.798788 0.383019 0.046135
C16   C     C_R   0.195914 0.807129 0.386491 0.044496
C17   C     C_R   0.206197 0.410422 0.381892 0.043842
C18   C     C_R   0.524813 0.803747 0.348347 -0.102593
C19   C     C_R   0.201399 0.752073 0.345375 -0.096334
C20   C     C_R   0.283643 0.482761 0.348394 -0.091603
C21   C     C_R   0.556577 0.826386 0.300046 -0.088947
C22   C     C_R   0.175403 0.774756 0.299778 -0.079738
C23   C     C_R   0.550257 0.763809 0.568750 0.533065
C24   C     C_R   0.277181 0.454663 0.299632 -0.079286
C25   C     C_R   0.659218 0.845815 0.286196 0.066628
C26   C     C_R   0.141546 0.851240 0.294964 0.068301
C27   C     C_R   0.193728 0.353480 0.284098 0.081712
C28   C     C_R   0.233544 0.787796 0.432457 0.528336
C29   C     C_R   0.213812 0.448715 0.431459 0.530117
C30   C     C_R   0.552352 0.765873 0.431853 0.526708
C31   C     C_R   0.732611 0.848728 0.321415 -0.030919
C32   C     C_R   0.131230 0.902981 0.336554 -0.032434
C33   C     C_R   0.120608 0.277821 0.318146 0.002153
C34   C     C_3   0.590970 0.722206 0.796878 0.405746
C35   C     C_R   0.699351 0.822617 0.369930 -0.094732
C36   C     C_R   0.160566 0.882419 0.382355 -0.099417
C37   C     C_R   0.125357 0.307188 0.367078 -0.091805
C38   C     C_R   0.695306 0.769826 0.211302 0.251739
C39   C     C_R   0.180696 0.979937 0.224537 0.262752
C40   C     C_R   0.080266 0.315217 0.209347 0.243009
C41   C     C_R   0.715827 0.777945 0.161510 -0.123489
C42   C     C_R   0.163270 0.993612 0.175519 -0.140568
C43   C     C_R   0.064231 0.287798 0.160334 -0.118222
C44   C     C_R   0.700683 0.940288 0.155897 0.234850
C45   C     C_3   0.276924 0.869205 0.797053 0.392203
C46   C     C_R   0.036035 0.799086 0.167038 0.238203
C47   C     C_R   0.245241 0.311348 0.153335 0.227896
C48   C     C_R   0.682119 0.933605 0.206228 -0.121465
C49   C     C_R   0.045601 0.788162 0.217158 -0.113822
C50   C     C_R   0.260636 0.336099 0.203228 -0.090134
C51   C     C_R   0.683491 0.851718 0.234219 -0.054604
C52   C     C_R   0.119251 0.875984 0.245746 -0.048809
C53   C     C_R   0.176688 0.332235 0.231763 -0.044146
C54   C     C_R   0.725777 0.865895 0.133950 -0.045048
C55   C     C_R   0.094943 0.904731 0.145790 -0.052934
C56   C     C_3   0.132980 0.409613 0.797397 0.408592
C57   C     C_R   0.142279 0.278256 0.132758 -0.051148
C58   C     C_R   0.105668 0.220898 0.085918 0.575752
C59   C     C_R   0.779427 0.884718 0.086148 0.576865
C60   C     C_R   0.088781 0.929302 0.093842 0.543197
C61   C     C_3   0.627448 0.917978 0.730672 0.135037
C62   C     C_3   0.080931 0.709773 0.730780 0.134337
C63   C     C_3   0.292446 0.374463 0.731675 0.184707
C64   C     C_3   0.758401 0.845075 0.722522 0.218120
C65   C     C_3   0.156048 0.914455 0.722298 0.218208
C66   C     C_3   0.087797 0.243775 0.722694 0.212349
C67   C     C_3   0.561084 0.713736 0.740431 0.079176
C68   C     C_3   0.783539 0.870686 0.777629 0.137278
C69   C     C_3   0.129691 0.913694 0.777331 0.137263
C70   C     C_3   0.087432 0.217378 0.777684 0.149876
C71   C     C_1   0.733967 0.872672 0.901896 0.089574
C72   C     C_1   0.126871 0.861762 0.901814 0.088178
C73   C     C_1   0.138755 0.265665 0.901999 0.086245
C74   C     C_3   0.641961 0.821594 0.711855 -0.104886
C75   C     C_3   0.178321 0.820861 0.711870 -0.093470
C76   C     C_3   0.181776 0.360267 0.712466 -0.097211
C77   C     C_3   0.630974 0.920810 0.789339 0.426900
C78   C     C_3   0.285594 0.847361 0.740676 0.063589
C79   C     C_3   0.078068 0.710362 0.789441 0.428165
C80   C     C_3   0.291154 0.369203 0.789897 0.411157
C81   C     C_3   0.678090 0.845807 0.807403 -0.070754
C82   C     C_3   0.153522 0.832943 0.807350 -0.063807
C83   C     C_3   0.168332 0.322059 0.807732 -0.084803
C84   C     C_3   0.156531 0.441281 0.741305 0.079121
Cr1   Cr    Cr6+3 0.164410 0.584450 0.499910 1.069789
Cr2   Cr    Cr6+3 0.415550 0.579960 0.499910 1.069381
Cr3   Cr    Cr6+3 0.420040 0.835590 0.499910 1.066948
Cr4   Cr    Cr6+3 0.156760 0.076070 0.017830 1.169585
Cr5   Cr    Cr6+3 0.923930 0.080690 0.017830 1.164291
Cr6   Cr    Cr6+3 0.919310 0.843240 0.017830 1.166843
H1    H     H_    0.545013 0.897845 0.718663 0.089824
H2    H     H_    0.499491 0.824057 0.273130 0.136958
H3    H     H_    0.183638 0.734100 0.268006 0.148198
H4    H     H_    0.333996 0.513520 0.273718 0.148952
H5    H     H_    0.666118 0.992155 0.223913 0.200146
H6    H     H_    0.000955 0.708573 0.233947 0.212016
H7    H     H_    0.337838 0.358004 0.220149 0.204663
H8    H     H_    0.813407 0.866834 0.310916 0.146227
H9    H     H_    0.102676 0.960238 0.333357 0.149173
H10   H     H_    0.057598 0.198101 0.306368 0.155850
H11   H     H_    0.754030 0.820315 0.396840 0.119237
H12   H     H_    0.100068 0.647094 0.718824 0.092812
H13   H     H_    0.156012 0.924857 0.414270 0.118670
H14   H     H_    0.066464 0.250546 0.392982 0.118845
H15   H     H_    0.759931 0.769590 0.714214 0.204301
H16   H     H_    0.232177 0.991844 0.714119 0.205361
H17   H     H_    0.010743 0.242386 0.714215 0.204169
H18   H     H_    0.813387 0.817148 0.790790 0.223011
H19   H     H_    0.183540 0.997227 0.790514 0.222358
H20   H     H_    0.003654 0.187147 0.790704 0.225409
H21   H     H_    0.477834 0.702523 0.737090 0.117070
H22   H     H_    0.295521 0.774726 0.737610 0.092982
H23   H     H_    0.354648 0.458626 0.721245 0.141895
H24   H     H_    0.231064 0.523585 0.738974 0.136492
H25   H     H_    0.693993 0.203624 0.815046 0.377217
H26   H     H_    0.795392 0.488387 0.815597 0.377088
H27   H     H_    0.512565 0.307722 0.815759 0.379811
H28   H     H_    0.469573 0.825731 0.784135 0.343976
H29   H     H_    0.171568 0.642925 0.784151 0.345625
H30   H     H_    0.350424 0.480274 0.841194 0.389854
H31   H     H_    0.655786 0.523563 0.764078 0.415026
H32   H     H_    0.478103 0.134440 0.764108 0.411507
H33   H     H_    0.869439 0.344761 0.762814 0.412453
H34   H     H_    0.443651 0.785584 0.358414 0.112321
H35   H     H_    0.667313 0.500935 0.223406 0.386690
H36   H     H_    0.430203 0.243281 0.235931 0.383472
H37   H     H_    0.842500 0.348118 0.219327 0.388751
H38   H     H_    0.605436 0.131050 0.132800 0.394406
H39   H     H_    0.868108 0.504733 0.149874 0.394113
H40   H     H_    0.532611 0.422008 0.124713 0.395956
H41   H     H_    0.780631 0.098881 0.626084 0.368739
H42   H     H_    0.900951 0.683408 0.626275 0.368657
H43   H     H_    0.325372 0.228935 0.625753 0.370447
H44   H     H_    0.841438 0.896891 0.661872 0.336617
H45   H     H_    0.229107 0.693977 0.348440 0.111708
H46   H     H_    0.105646 0.946077 0.661412 0.336363
H47   H     H_    0.056254 0.161394 0.661951 0.336989
H48   H     H_    0.897502 0.981599 0.817452 0.306021
H49   H     H_    0.018506 0.916385 0.816810 0.306484
H50   H     H_    0.084425 0.103327 0.817246 0.308654
H51   H     H_    0.511528 0.603219 0.689273 0.323144
H52   H     H_    0.396978 0.907581 0.689709 0.323959
H53   H     H_    0.099838 0.495471 0.690349 0.319059
H54   H     H_    0.511374 0.692112 0.859098 0.365421
H55   H     H_    0.306460 0.820682 0.859745 0.380888
H56   H     H_    0.346799 0.562920 0.359773 0.121643
H57   H     H_    0.179783 0.487692 0.860039 0.364498
H58   H     H_    0.728688 0.716978 0.144533 0.235506
H59   H     H_    0.206816 0.074058 0.159728 0.201103
H60   H     H_    0.987607 0.269506 0.144118 0.236388
O1    O     O_R   0.137310 0.468260 0.552980 -0.503301
O2    O     O_R   0.139940 0.470480 0.446230 -0.491717
O3    O     O_R   0.529520 0.669460 0.446230 -0.493214
O4    O     O_R   0.330540 0.860060 0.446230 -0.494975
O5    O     O_R   0.176560 0.690850 0.450770 -0.495018
O6    O     O_R   0.309150 0.485710 0.450770 -0.496691
O7    O     O_R   0.514290 0.823440 0.450770 -0.498931
O8    O     O_3   0.333333 0.666667 0.499990 -0.316517
O9    O     O_3   0.000000 0.000000 0.017910 -0.339556
O10   O     O_R   0.149710 0.171070 0.967700 -0.482567
O11   O     O_R   0.828930 0.978640 0.967700 -0.481163
O12   O     O_R   0.531740 0.669050 0.552980 -0.503530
O13   O     O_R   0.021360 0.850290 0.967700 -0.482114
O14   O     O_R   0.178510 0.985930 0.071830 -0.449479
O15   O     O_R   0.014070 0.192580 0.071830 -0.493916
O16   O     O_R   0.807420 0.821490 0.071830 -0.502904
O17   O     O_R   0.147830 0.173300 0.066650 -0.471967
O18   O     O_R   0.826700 0.974530 0.066650 -0.446136
O19   O     O_R   0.025470 0.852170 0.066650 -0.413605
O20   O     O_2   0.661160 0.040828 0.870759 -0.200611
O21   O     O_2   0.819322 0.103920 0.819698 -0.211638
O22   O     O_3   0.669218 0.142518 0.791720 -0.409471
O23   O     O_R   0.330950 0.862690 0.552980 -0.503691
O24   O     O_2   0.957930 0.619622 0.870943 -0.203023
O25   O     O_2   0.895692 0.715047 0.819843 -0.211150
O26   O     O_3   0.856045 0.525706 0.791995 -0.410393
O27   O     O_2   0.380374 0.335183 0.871744 -0.254623
O28   O     O_2   0.286136 0.180843 0.818710 -0.199812
O29   O     O_3   0.476314 0.332816 0.792546 -0.403873
O30   O     O_3   0.524355 0.876071 0.807713 -0.572966
O31   O     O_3   0.122477 0.648620 0.807916 -0.571454
O32   O     O_3   0.353278 0.477933 0.804972 -0.616226
O33   O     O_2   0.715821 0.674868 0.858605 -0.263001
O34   O     O_R   0.180530 0.983530 0.965090 -0.466187
O35   O     O_2   0.545603 0.525636 0.833706 -0.168249
O36   O     O_3   0.700956 0.602558 0.770302 -0.421566
O37   O     O_2   0.327169 0.042288 0.858510 -0.258988
O38   O     O_2   0.474602 0.019481 0.832973 -0.137133
O39   O     O_3   0.398785 0.099384 0.769901 -0.425249
O40   O     O_2   0.958508 0.285153 0.858279 -0.257378
O41   O     O_2   0.981284 0.455328 0.832559 -0.139248
O42   O     O_3   0.903229 0.299913 0.769372 -0.430042
O43   O     O_2   0.787676 0.690746 0.271360 -0.302410
O44   O     O_2   0.589714 0.610191 0.277463 -0.274761
O45   O     O_R   0.016470 0.197000 0.965090 -0.471449
O46   O     O_3   0.668081 0.558951 0.203091 -0.475987
O47   O     O_2   0.238542 0.143973 0.287228 -0.335397
O48   O     O_2   0.348528 0.055693 0.287834 -0.247523
O49   O     O_3   0.373576 0.184241 0.215690 -0.475335
O50   O     O_2   0.904659 0.223954 0.267275 -0.301088
O51   O     O_2   0.027982 0.420482 0.276189 -0.263928
O52   O     O_3   0.902608 0.350946 0.199902 -0.475316
O53   O     O_2   0.795007 0.136342 0.113580 -0.259710
O54   O     O_2   0.632859 0.990480 0.073574 -0.235878
O55   O     O_3   0.606984 0.074286 0.153174 -0.488951
O56   O     O_R   0.803000 0.819470 0.965090 -0.474812
O57   O     O_2   0.865186 0.671931 0.109063 -0.264845
O58   O     O_2   0.034741 0.670954 0.094988 -0.210997
O59   O     O_3   0.917842 0.567723 0.170356 -0.489973
O60   O     O_2   0.351656 0.224860 0.108146 -0.240443
O61   O     O_2   0.356424 0.382422 0.069483 -0.246485
O62   O     O_3   0.474295 0.414401 0.146986 -0.481155
O63   O     O_2   0.654887 0.111086 0.698458 -0.195723
O64   O     O_2   0.820330 0.108708 0.721355 -0.158568
O65   O     O_3   0.729508 0.025531 0.639114 -0.523880
O66   O     O_2   0.886908 0.544061 0.698615 -0.195351
O67   O     O_R   0.174120 0.688790 0.549730 -0.485172
O68   O     O_2   0.891287 0.712512 0.721542 -0.159451
O69   O     O_3   0.974141 0.705148 0.639249 -0.524163
O70   O     O_2   0.460654 0.351483 0.699477 -0.198202
O71   O     O_2   0.292259 0.183706 0.720650 -0.158955
O72   O     O_3   0.301316 0.277888 0.639242 -0.528331
O73   O     O_3   0.837365 0.929475 0.693293 -0.517906
O74   O     O_3   0.072382 0.909397 0.692842 -0.519959
O75   O     O_3   0.093512 0.165710 0.693285 -0.521057
O76   O     O_3   0.869317 0.976959 0.783809 -0.546613
O77   O     O_3   0.023386 0.892826 0.783248 -0.545856
O78   O     O_R   0.311210 0.485330 0.549730 -0.482960
O79   O     O_3   0.107832 0.131864 0.783621 -0.545022
O80   O     O_3   0.557832 0.622440 0.718924 -0.627974
O81   O     O_3   0.377902 0.935236 0.719112 -0.639667
O82   O     O_3   0.070353 0.447769 0.719494 -0.651441
O83   O     O_3   0.494861 0.690129 0.823740 -0.615235
O84   O     O_3   0.307390 0.804832 0.824499 -0.627411
O85   O     O_3   0.197278 0.504650 0.824868 -0.631967
O86   O     O_R   0.514670 0.825880 0.549730 -0.483723
S1    S     S_3+6 0.699143 0.054634 0.818534 0.199097
S2    S     S_3+6 0.685336 0.037676 0.122007 0.062772
S3    S     S_3+6 0.961957 0.676316 0.133332 0.071107
S4    S     S_3+6 0.357645 0.331598 0.117521 0.060745
S5    S     S_3+6 0.710764 0.045412 0.698036 0.116966
S6    S     S_3+6 0.953727 0.665990 0.698171 0.116679
S7    S     S_3+6 0.338548 0.294220 0.698374 0.111645
S8    S     S_3+6 0.944250 0.643975 0.818720 0.197377
S9    S     S_3+6 0.357412 0.300930 0.819035 0.163150
S10   S     S_3+6 0.639377 0.629750 0.816010 0.092227
S11   S     S_3+6 0.370920 0.010352 0.815753 0.093489
S12   S     S_3+6 0.991255 0.361398 0.815532 0.090374
S13   S     S_3+6 0.684882 0.655958 0.242944 0.024703
S14   S     S_3+6 0.286716 0.092198 0.256003 0.009540
S15   S     S_3+6 0.977699 0.327912 0.240430 0.029431

loop_
_geom_bond_atom_site_label_1
_geom_bond_atom_site_label_2
_ccdc_geom_bond_type
H36   O49   S    
C25   C31   A    
C30   O7    A    
C77   S1    S    
C26   C32   A    
C48   H5    S    
O39   S11   S    
C18   C21   A    
Cr2   O78   S    
C15   C18   A    
H40   O62   S    
C45   C82   S    
C24   C27   A    
C66   H17   S    
C8    C23   S    
C6    C9    T    
C25   C51   S    
H52   O81   S    
C6    C75   S    
C27   C33   A    
C56   S12   S    
C46   C49   A    
C1    O23   A    
H54   O83   S    
C15   C30   S    
O64   S5    D    
C60   O19   A    
C64   C68   S    
Cr2   O3    S    
C11   O45   A    
C24   H4    S    
O50   S15   D    
Cr1   O5    S    
C68   O76   S    
C12   O78   A    
C38   S13   S    
C63   C76   S    
C19   H45   S    
Cr5   O45   S    
H28   O30   S    
Cr6   O9    S    
C17   C20   A    
C17   C29   S    
C79   C82   S    
O38   S11   D    
H49   O77   S    
H29   O31   S    
C31   H8    S    
Cr5   O11   S    
C14   O13   A    
H48   O76   S    
C58   O15   A    
Cr2   O6    S    
C5    C74   S    
O53   S2    D    
H47   O75   S    
C69   C82   S    
C70   H20   S    
H31   O36   S    
Cr6   O56   S    
C69   H19   S    
C30   O3    A    
O27   S9    D    
C20   C24   A    
C67   O80   S    
C61   C77   S    
O51   S15   D    
C78   H22   S    
O46   S13   S    
C34   S10   S    
C28   O5    A    
O37   S11   D    
C56   O85   S    
C56   C84   S    
C45   C78   S    
Cr2   O12   S    
C34   C81   S    
C80   O32   S    
H53   O82   S    
C39   C42   A    
C16   C28   S    
C44   C54   A    
O57   S3    D    
O26   S8    S    
C23   O12   A    
O22   S1    S    
C49   C52   A    
Cr4   O10   S    
O52   S15   S    
C66   C76   S    
H50   O79   S    
C55   C60   S    
Cr6   O16   S    
C28   O4    A    
O41   S12   D    
C12   O1    A    
C45   S11   S    
C75   C78   S    
C80   C83   S    
C69   O77   S    
O58   S3    D    
C15   C35   A    
O29   S9    S    
C11   O10   A    
Cr5   O9    S    
C47   C50   A    
C54   C59   S    
C40   C43   A    
C61   S5    S    
O25   S8    D    
Cr3   O23   S    
O70   S7    D    
Cr1   O67   S    
C76   C84   S    
O65   S5    S    
C50   C53   A    
H26   O26   S    
H41   O65   S    
C56   C83   S    
C77   O30   S    
C62   C79   S    
C64   H15   S    
C19   C22   A    
C1    C9    S    
C45   O84   S    
C38   C41   A    
O54   S2    D    
C11   C73   S    
C40   S15   S    
C13   O56   A    
C38   C51   A    
O21   S1    D    
H35   O46   S    
C78   O81   S    
C79   S8    S    
C33   C37   A    
Cr3   O86   S    
C79   O31   S    
C64   O73   S    
C39   S14   S    
O33   S10   D    
O60   S4    D    
C46   C55   A    
Cr1   O1    S    
Cr5   O18   S    
C58   O17   A    
C26   C52   S    
C42   C55   A    
C47   C57   A    
O28   S9    D    
O48   S14   D    
O49   S14   S    
H46   O74   S    
C77   C81   S    
Cr4   O17   S    
C63   S7    S    
C3    C82   S    
C66   O75   S    
H43   O72   S    
C4    C73   T    
O44   S13   D    
C67   C74   S    
C17   C37   A    
C46   S3    S    
Cr3   O4    S    
C70   C83   S    
Cr2   O8    S    
Cr5   O15   S    
C62   S6    S    
O62   S4    S    
C59   O16   A    
C10   C12   S    
C48   C51   A    
C29   O6    A    
C23   O86   A    
C67   H21   S    
O20   S1    D    
H44   O73   S    
O43   S13   D    
C36   H13   S    
C22   C26   A    
C22   H3    S    
C20   H56   S    
C62   C75   S    
C5    C8    T    
H38   O55   S    
C68   C81   S    
H39   O59   S    
C2    C71   T    
Cr3   O8    S    
C32   C36   A    
C65   H16   S    
O36   S10   S    
H32   O39   S    
C32   H9    S    
O71   S7    D    
C21   C25   A    
C50   H7    S    
C84   H24   S    
C80   S9    S    
C14   C72   S    
O59   S3    S    
H25   O22   S    
C35   H11   S    
C44   S2    S    
C34   C67   S    
C37   H14   S    
C14   O34   A    
O72   S7    S    
C27   C53   S    
C13   O11   A    
C7    C76   S    
O24   S8    D    
C61   C74   S    
C63   C80   S    
C13   C71   S    
O40   S12   D    
O42   S12   S    
O69   S6    S    
H57   O85   S    
Cr6   O13   S    
C33   H10   S    
C7    C10   T    
H42   O69   S    
O63   S5    D    
C3    C72   T    
H51   O80   S    
C70   O79   S    
C44   C48   A    
Cr4   O14   S    
C16   C36   A    
C29   O2    A    
O66   S6    D    
C57   C58   S    
C66   C70   S    
C4    C83   S    
O47   S14   D    
Cr4   O9    S    
C16   C19   A    
C65   C69   S    
Cr6   O19   S    
C65   C75   S    
C60   O14   A    
C39   C52   A    
C31   C35   A    
O68   S6    D    
C49   H6    S    
O55   S2    S    
C84   O82   S    
H37   O52   S    
C41   C54   A    
Cr1   O2    S    
Cr4   O34   S    
C43   C57   A    
C47   S4    S    
C63   H23   S    
Cr3   O7    S    
C42   H59   S    
C40   C53   A    
Cr1   O8    S    
C18   H34   S    
C64   C74   S    
O61   S4    D    
C2    C81   S    
C1    O67   A    
C68   H18   S    
C61   H1    S    
H33   O42   S    
H55   O84   S    
C34   O83   S    
H30   O32   S    
C65   O74   S    
C59   O18   A    
H27   O29   S    
C43   H60   S    
O35   S10   D    
C62   H12   S    
C21   H2    S    
C41   H58   S    
