data_mof_unit_28530.cif
_audit_creation_date              2012-12-10T20:34:51-0500
_audit_creation_method            fapswitch 2.2
_symmetry_space_group_name_H-M    P1
_symmetry_Int_Tables_number       1
_space_group_crystal_system       triclinic
_cell_length_a                    10.648339
_cell_length_b                    10.641267
_cell_length_c                    9.893853
_cell_angle_alpha                 89.365957
_cell_angle_beta                  90.696335
_cell_angle_gamma                 90.762027
_cell_volume                      1120.84187311

loop_
_atom_site_label
_atom_site_type_symbol
_atom_type_description
_atom_site_fract_x
_atom_site_fract_y
_atom_site_fract_z
_atom_type_partial_charge
C1    C     C_R   0.507896 0.260384 0.500603 0.897212
C2    C     C_3   0.878642 0.505411 0.500832 0.144943
C3    C     C_3   0.931092 0.619357 0.583344 -0.127559
C4    C     C_3   0.927085 0.513821 0.353280 -0.397852
C5    C     C_R   0.540820 0.063146 0.622157 0.118912
C6    C     C_R   0.537329 0.130502 0.501489 -0.189031
C7    C     C_R   0.565757 0.069898 0.380736 -0.293463
C8    C     C_R   0.563022 0.939194 0.377217 0.217059
C9    C     C_R   0.532439 0.872219 0.497462 -0.150083
C10   C     C_R   0.536239 0.935166 0.620188 0.061131
C11   C     C_3   0.454475 0.925576 0.742250 -0.472781
C12   C     C_R   0.257724 0.501626 0.499506 0.835860
C13   C     C_3   0.461410 0.068668 0.745552 0.028631
C14   C     C_R   0.392350 0.520617 0.068775 0.179694
C15   C     C_R   0.609049 0.489580 0.073321 -0.151662
C16   C     C_R   0.609016 0.489480 0.929674 -0.157793
C17   C     C_R   0.392331 0.519863 0.926800 0.167492
C18   C     C_3   0.272875 0.445787 0.916901 -0.544755
C19   C     C_3   0.269663 0.449613 0.070615 -0.009615
C20   C     C_R   0.506327 0.740283 0.498988 0.895370
C21   C     C_R   0.742135 0.502024 0.500456 0.833936
C22   C     C_3   0.070658 0.381859 0.567678 -0.408689
C23   C     C_3   0.926583 0.381853 0.566587 -0.438153
C24   C     C_3   0.076094 0.620012 0.578586 -0.432564
C25   C     C_3   0.069281 0.512478 0.353496 -0.408878
C26   C     C_3   0.121216 0.504024 0.499825 0.172314
H1    H     H_    0.105549 0.374255 0.673848 0.174996
H2    H     H_    0.893749 0.601120 0.302028 0.182818
H3    H     H_    0.113851 0.707301 0.529677 0.156292
H4    H     H_    0.580061 0.122436 0.287606 0.176084
H5    H     H_    0.358745 0.889045 0.717157 0.165441
H6    H     H_    0.500418 0.876295 0.828517 0.211720
H7    H     H_    0.368733 0.113402 0.727103 0.108963
H8    H     H_    0.696798 0.478858 0.127890 0.148101
H9    H     H_    0.104372 0.298140 0.512906 0.160785
H10   H     H_    0.696711 0.478784 0.877389 0.149846
H11   H     H_    0.196407 0.501203 0.869205 0.170395
H12   H     H_    0.286255 0.352052 0.871582 0.210699
H13   H     H_    0.193258 0.510284 0.106205 0.103745
H14   H     H_    0.890197 0.299264 0.509281 0.170643
H15   H     H_    0.892382 0.371985 0.672147 0.171615
H16   H     H_    0.114017 0.618455 0.683743 0.159511
H17   H     H_    0.902119 0.608394 0.690634 0.129413
H18   H     H_    0.105530 0.598891 0.301873 0.167268
H19   H     H_    0.098903 0.429018 0.297040 0.177623
H20   H     H_    0.890935 0.432642 0.293382 0.169110
N1    N     N_R   0.499150 0.499140 0.142800 -0.094454
N2    N     N_R   0.499150 0.499180 0.857150 -0.102719
O1    O     O_R   0.500020 0.316790 0.614690 -0.626898
O2    O     O_R   0.500000 0.316760 0.385350 -0.600646
O3    O     O_R   0.314800 0.500000 0.614670 -0.626545
O4    O     O_R   0.314790 0.499960 0.385330 -0.612946
O5    O     O_R   0.500000 0.683240 0.614650 -0.615361
O6    O     O_R   0.499980 0.683210 0.385310 -0.586204
O7    O     O_R   0.685210 0.500040 0.614670 -0.638973
O8    O     O_R   0.685200 0.500000 0.385330 -0.635280
Zn1   Zn    Zn3+2 0.500010 0.500020 0.653130 0.927525
Zn2   Zn    Zn3+2 0.499990 0.499980 0.346870 0.956855
C27   C     C_1   0.881584 0.740878 0.534063 0.127046
N3    N     N_1   0.843236 0.836141 0.495485 -0.227477
N4    N     N_2   0.587582 0.877407 0.253580 -0.271084
H21   H     H_    0.669472 0.908603 0.208906 0.220986
C28   C     C_3   0.483435 0.875326 0.158229 -0.761602
H22   H     H_    0.468360 0.970626 0.114819 0.239053
H23   H     H_    0.396020 0.841428 0.207782 0.243530
H24   H     H_    0.504887 0.810447 0.074764 0.230023
N5    N     N_2   0.527977 0.120870 0.862444 -0.292014
H25   H     H_    0.514919 0.216342 0.869443 0.245774
C29   C     C_3   0.658048 0.088270 0.888871 -0.766664
H26   H     H_    0.688170 0.127636 0.987764 0.218466
H27   H     H_    0.719533 0.129089 0.809287 0.237103
H28   H     H_    0.670214 0.985095 0.894490 0.246135
N6    N     N_2   0.270251 0.327611 0.139859 -0.255989
H29   H     H_    0.181067 0.290618 0.151754 0.205518
C30   C     C_3   0.358172 0.231422 0.103782 -0.709158
H30   H     H_    0.360899 0.159675 0.185900 0.228627
H31   H     H_    0.454335 0.269947 0.091952 0.251829
H32   H     H_    0.326184 0.183851 0.010081 0.210800

loop_
_geom_bond_atom_site_label_1
_geom_bond_atom_site_label_2
_ccdc_geom_bond_type
C28   H23   S    
C24   H16   S    
N6    H29   S    
C17   N2    A    
C15   N1    A    
C16   N2    A    
C4    C25   S    
C7    C8    A    
C4    H20   S    
C22   H9    S    
C3    H17   S    
C19   H13   S    
C18   H11   S    
C24   C26   S    
O6    Zn2   S    
C5    C6    A    
C23   H14   S    
O1    Zn1   S    
N4    C28   S    
C18   C19   S    
C29   H27   S    
C24   H3    S    
C12   O4    A    
C8    C9    A    
O3    Zn1   S    
C1    O2    A    
C15   H8    S    
C5    C13   S    
C8    N4    S    
C28   H24   S    
C11   H5    S    
C27   N3    T    
C7    H4    S    
N6    C30   S    
C14   C17   A    
C3    C24   S    
C29   H26   S    
C25   H18   S    
C4    H2    S    
N5    H25   S    
O2    Zn2   S    
C19   N6    S    
C20   O6    A    
C21   O7    A    
O5    Zn1   S    
C25   C26   S    
C1    C6    S    
C12   C26   S    
N5    C29   S    
C29   H28   S    
C2    C4    S    
C30   H30   S    
C13   H7    S    
C9    C20   S    
C2    C21   S    
C17   C18   S    
C30   H31   S    
C6    C7    A    
O4    Zn2   S    
C11   H6    S    
C22   H1    S    
O7    Zn1   S    
C25   H19   S    
C12   O3    A    
C9    C10   A    
C14   C19   S    
C13   N5    S    
C20   O5    A    
C21   O8    A    
C14   N1    A    
C23   H15   S    
C2    C3    S    
C18   H12   S    
C5    C10   A    
C16   H10   S    
N1    Zn2   S    
C11   C13   S    
O8    Zn2   S    
N4    H21   S    
C30   H32   S    
C10   C11   S    
C28   H22   S    
N2    Zn1   S    
C22   C26   S    
C2    C23   S    
C22   C23   S    
C1    O1    A    
C15   C16   A    
C3    C27   S    
