data_mof_unit_56924.cif
_audit_creation_date              2013-03-05T16:13:33-0500
_audit_creation_method            fapswitch 2.2
_symmetry_space_group_name_H-M    P1
_symmetry_Int_Tables_number       1
_space_group_crystal_system       triclinic
_cell_length_a                    10.587134
_cell_length_b                    9.887416
_cell_length_c                    10.808745
_cell_angle_alpha                 89.99229
_cell_angle_beta                  91.137497
_cell_angle_gamma                 89.840379
_cell_volume                      1131.22554003

loop_
_atom_site_label
_atom_site_type_symbol
_atom_site_description
_atom_site_fract_x
_atom_site_fract_y
_atom_site_fract_z
_atom_type_partial_charge
O1    O     O_R   0.316770 0.614620 0.499990 -0.640895
O2    O     O_R   0.683230 0.614620 0.500010 -0.640297
O3    O     O_R   0.316800 0.385290 0.500000 -0.561800
O4    O     O_R   0.683200 0.385290 0.500000 -0.561900
C1    C     C_R   0.260523 0.500132 0.499595 0.901663
C2    C     C_R   0.739570 0.499856 0.501486 0.900006
O5    O     O_R   0.500000 0.614690 0.316780 -0.615357
O6    O     O_R   0.500000 0.614690 0.683220 -0.612529
O7    O     O_R   0.500020 0.385360 0.316780 -0.556614
O8    O     O_R   0.499980 0.385360 0.683220 -0.551546
C3    C     C_R   0.505020 0.499057 0.260655 0.920619
C4    C     C_R   0.494754 0.499050 0.739312 0.953324
Zn1   Zn    Zn3+2 0.500000 0.653120 0.500000 0.980523
Zn2   Zn    Zn3+2 0.500000 0.346880 0.500000 1.128180
C5    C     C_R   0.503276 0.612171 0.061720 0.013200
C6    C     C_R   0.495039 0.612132 0.938115 0.012090
C7    C     C_R   0.509375 0.493710 0.129213 -0.265634
C8    C     C_R   0.489703 0.493657 0.870695 -0.264626
C9    C     C_R   0.509068 0.368225 0.064308 0.224713
C10   C     C_R   0.490174 0.368182 0.935685 0.223940
C11   C     C_3   0.495284 0.763016 0.928168 -0.090344
C12   C     C_3   0.502698 0.763084 0.071462 -0.091586
H1    H     H_    0.579386 0.803380 0.880461 0.192351
H2    H     H_    0.418509 0.803794 0.119122 0.191663
C13   C     C_R   0.068941 0.473066 0.614795 0.057774
C14   C     C_R   0.937418 0.473808 0.615641 0.081167
C15   C     C_R   0.872038 0.499906 0.504240 0.005045
C16   C     C_R   0.128364 0.500562 0.503134 0.013553
C17   C     C_R   0.932670 0.528919 0.394398 -0.187528
C18   C     C_R   0.062150 0.529643 0.393923 -0.178094
H3    H     H_    0.879634 0.550203 0.309692 0.150964
H4    H     H_    0.110838 0.551390 0.308867 0.147161
C19   C     C_R   0.602957 0.070072 0.543721 0.350289
C20   C     C_R   0.396999 0.070723 0.456047 0.343384
C21   C     C_R   0.602378 0.926869 0.542593 -0.120771
C22   C     C_R   0.397649 0.927472 0.457254 -0.120472
H5    H     H_    0.683596 0.871465 0.578044 0.179126
H6    H     H_    0.316346 0.872500 0.422075 0.177836
N1    N     N_R   0.500000 0.857200 0.500000 -0.124428
N2    N     N_R   0.500000 0.142810 0.500000 -0.179503
N3    N     N_R   0.531005 0.241355 0.126296 0.256258
O9    O     O_R   0.447987 0.144800 0.118178 -0.343209
O10   O     O_R   0.640963 0.216525 0.177420 -0.375283
N4    N     N_R   0.468490 0.241287 0.873843 0.258310
O11   O     O_R   0.550671 0.143594 0.883860 -0.342668
O12   O     O_R   0.358981 0.217355 0.821706 -0.386817
N5    N     N_3   0.375631 0.815622 0.877590 -0.394389
H7    H     H_    0.299711 0.774339 0.925230 0.192902
H8    H     H_    0.374238 0.919912 0.893320 0.266882
N6    N     N_3   0.622231 0.815371 0.121945 -0.395688
H9    H     H_    0.698230 0.773913 0.074240 0.193211
H10   H     H_    0.623300 0.919658 0.106186 0.268276
N7    N     N_3   0.142903 0.446583 0.725043 -0.444027
H11   H     H_    0.120079 0.518380 0.792030 0.178439
H12   H     H_    0.119770 0.350614 0.758072 0.242278
N8    N     N_3   0.869704 0.452235 0.727683 -0.431797
H13   H     H_    0.897473 0.359304 0.765535 0.248328
H14   H     H_    0.894458 0.528431 0.790566 0.170080
N9    N     N_R   0.712233 0.136632 0.593196 0.222546
O13   O     O_R   0.702517 0.211141 0.691435 -0.342156
O14   O     O_R   0.823951 0.099331 0.558249 -0.363178
N10   N     N_R   0.286678 0.137799 0.408205 0.224560
O15   O     O_R   0.294188 0.214093 0.310775 -0.330885
O16   O     O_R   0.175755 0.100708 0.445041 -0.356623

loop_
_geom_bond_atom_site_label_1
_geom_bond_atom_site_label_2
_geom_bond_distance
_ccdc_geom_bond_type
N5    H7    1.046911 S    
C21   N1    1.358562 A    
O7    Zn2   2.016549 S    
C6    C11   1.495731 S    
C15   C17   1.391076 A    
C1    C16   1.400467 S    
N3    O10   1.301411 A    
N3    O9    1.301255 A    
N6    H10   1.045204 S    
C2    C15   1.402185 S    
O1    C1    1.280504 A    
C12   N6    1.463849 S    
O6    C4    1.295951 A    
N10   O15   1.299159 A    
C22   H6    1.081940 S    
N6    H9    1.046897 S    
C5    C12   1.495874 S    
N9    O13   1.298048 A    
C19   N9    1.427338 S    
C20   N10   1.429349 S    
N5    H8    1.045213 S    
N7    H11   1.045327 S    
N4    O11   1.301274 A    
C13   C16   1.399058 A    
C17   H3    1.084770 S    
O7    C3    1.279064 A    
C14   C15   1.400512 A    
O2    C2    1.280418 A    
O3    Zn2   1.975355 S    
O8    C4    1.278828 A    
C20   N2    1.380846 A    
C16   C18   1.390480 A    
C19   C21   1.415999 A    
N8    H14   1.045182 S    
O5    C3    1.295807 A    
C20   C22   1.416430 A    
N7    H12   1.045222 S    
C11   H1    1.112723 S    
O4    Zn2   1.977432 S    
C12   H2    1.112715 S    
Zn1   N1    2.017824 S    
C19   N2    1.379780 A    
O1    Zn1   1.977916 S    
C17   C18   1.370971 A    
C5    C6    1.337129 A    
C18   H4    1.084679 S    
O6    Zn1   2.016451 S    
C9    N3    1.438185 S    
O5    Zn1   2.016552 S    
N8    H13   1.044859 S    
C21   H5    1.081907 S    
C8    C10   1.425552 A    
C6    C8    1.380360 A    
O4    C2    1.281783 A    
O8    Zn2   2.016649 S    
N9    O14   1.301155 A    
C4    C8    1.423151 S    
C5    C7    1.380474 A    
O2    Zn1   1.975834 S    
C11   N5    1.463861 S    
C3    C7    1.423371 S    
N10   O16   1.301180 A    
N4    O12   1.301291 A    
C7    C9    1.425393 A    
C10   N4    1.438548 S    
C13   C14   1.392662 A    
C11   C12   1.549259 S    
Zn2   N2    2.017726 S    
C22   N1    1.358773 A    
C9    C10   1.400639 A    
C13   N7    1.436474 S    
O3    C1    1.280810 A    
C14   N8    1.435714 S    
