data_mof_unit_16094.cif
_audit_creation_date              2012-10-26T20:00:55-0400
_audit_creation_method            fapswitch 2.2
_symmetry_space_group_name_H-M    P1
_symmetry_Int_Tables_number       1
_space_group_crystal_system       triclinic
_cell_length_a                    11.65824
_cell_length_b                    13.001021
_cell_length_c                    13.472891
_cell_angle_alpha                 92.187655
_cell_angle_beta                  76.578739
_cell_angle_gamma                 99.868807
_cell_volume                      1956.90901235

loop_
_atom_site_label
_atom_site_type_symbol
_atom_type_description
_atom_site_fract_x
_atom_site_fract_y
_atom_site_fract_z
_atom_type_partial_charge
C1    C     C_R   0.521049 0.700897 0.501062 0.551061
C2    C     C_R   0.400635 0.498523 0.808334 -0.007532
C3    C     C_R   0.467764 0.185712 0.495611 -0.000472
C4    C     C_R   0.436213 0.492569 0.696107 0.540349
C5    C     C_R   0.533349 0.814309 0.501259 -0.002218
C6    C     C_R   0.650451 0.984699 0.515265 -0.140678
C7    C     C_R   0.639879 0.876606 0.513953 -0.136672
C8    C     C_R   0.437651 0.860801 0.489095 -0.138577
C9    C     C_R   0.447425 0.968821 0.490594 0.047422
C10   C     C_R   0.554577 0.031228 0.503994 0.047804
C11   C     C_R   0.564046 0.139216 0.506282 -0.134619
C12   C     C_R   0.461655 0.521670 0.971830 0.038313
C13   C     C_R   0.361570 0.123454 0.482059 -0.136674
C14   C     C_R   0.351517 0.015374 0.479434 -0.141484
C15   C     C_R   0.944044 0.593473 0.598770 -0.180272
C16   C     C_R   0.479251 0.299103 0.498069 0.546209
C17   C     C_R   0.825386 0.584843 0.588943 0.043714
C18   C     C_R   0.858123 0.459975 0.456982 0.040963
C19   C     C_R   0.978273 0.466086 0.464095 0.006745
C20   C     C_R   0.021659 0.533832 0.536009 0.006121
C21   C     C_R   0.141850 0.540012 0.543045 0.042470
C22   C     C_R   0.174507 0.414991 0.411218 0.039751
C23   C     C_R   0.478903 0.481853 0.870362 0.012619
C24   C     C_R   0.055836 0.406344 0.401422 -0.180655
C25   C     C_R   0.563402 0.502415 0.304243 0.549171
C26   C     C_R   0.738413 0.462271 0.038053 -0.136754
C27   C     C_R   0.599465 0.498408 0.193004 -0.005454
C28   C     C_R   0.297721 0.540316 0.851500 -0.148734
C29   C     C_R   0.282244 0.582490 0.948703 -0.135537
C30   C     C_R   0.368217 0.583205 0.006527 0.007401
C31   C     C_3   0.363838 0.662896 0.093452 -0.251909
C32   C     C_3   0.478959 0.744106 0.079446 -0.292005
C33   C     C_3   0.473759 0.819226 0.169742 -0.448053
C34   C     C_R   0.542684 0.501892 0.030668 0.019374
C35   C     C_R   0.651259 0.467633 0.982821 0.044859
C36   C     C_R   0.666330 0.430127 0.883643 -0.143847
C37   C     C_R   0.576306 0.428638 0.831983 -0.123166
C38   C     C_R   0.513998 0.504412 0.136818 -0.137880
C39   C     C_R   0.714017 0.481564 0.142644 -0.140492
Cu1   Cu    Cu3+1 0.386470 0.492430 0.492410 0.923762
Cu2   Cu    Cu3+1 0.613530 0.507570 0.507590 0.924401
H1    H     H_    0.781156 0.475533 0.184845 0.123304
H2    H     H_    0.025129 0.353431 0.345356 0.083448
H3    H     H_    0.766070 0.631026 0.637589 0.129921
H4    H     H_    0.744059 0.395308 0.848498 0.108279
H5    H     H_    0.823523 0.408091 0.402068 0.111835
H6    H     H_    0.823380 0.439706 0.001110 0.104652
H7    H     H_    0.422416 0.501745 0.176476 0.128104
H8    H     H_    0.234995 0.550928 0.806214 0.124644
H9    H     H_    0.207150 0.623282 0.974977 0.105596
H10   H     H_    0.585303 0.385894 0.761019 0.147895
H11   H     H_    0.646378 0.186813 0.516718 0.118960
H12   H     H_    0.286395 0.158166 0.473321 0.128457
H13   H     H_    0.396613 0.861073 0.178008 0.150712
H14   H     H_    0.465110 0.775878 0.241345 0.164328
H15   H     H_    0.557259 0.877640 0.157127 0.146942
H16   H     H_    0.558668 0.706199 0.072244 0.176243
H17   H     H_    0.490725 0.789359 0.008381 0.163274
H18   H     H_    0.289882 0.707551 0.095931 0.132674
H19   H     H_    0.339286 0.626402 0.169659 0.137628
H20   H     H_    0.733105 0.031751 0.525482 0.101688
H21   H     H_    0.268959 0.968336 0.468982 0.101033
H22   H     H_    0.714795 0.841911 0.523363 0.128579
H23   H     H_    0.355278 0.813167 0.478802 0.118698
H24   H     H_    0.176468 0.591925 0.597930 0.111047
H25   H     H_    0.233765 0.368686 0.362677 0.123095
H26   H     H_    0.974696 0.646290 0.654929 0.083840
N1    N     N_R   0.215880 0.481050 0.481000 -0.229355
N2    N     N_R   0.784100 0.518950 0.519000 -0.231466
O1    O     O_R   0.419710 0.645650 0.494620 -0.510146
O2    O     O_R   0.611450 0.658430 0.507430 -0.503530
O3    O     O_R   0.357340 0.490460 0.641450 -0.502635
O4    O     O_R   0.549080 0.503250 0.654260 -0.510036
O5    O     O_R   0.388550 0.341570 0.492570 -0.505421
O6    O     O_R   0.580290 0.354350 0.505380 -0.514907
O7    O     O_R   0.450920 0.496750 0.345740 -0.513352
O8    O     O_R   0.642660 0.509540 0.358550 -0.502854

loop_
_geom_bond_atom_site_label_1
_geom_bond_atom_site_label_2
_ccdc_geom_bond_type
C33   H14   S    
C17   N2    A    
C16   O6    A    
C19   C20   A    
C32   H17   S    
C12   C23   A    
C1    O2    A    
Cu1   O1    S    
C16   O5    A    
C6    H20   S    
C28   C29   A    
C18   C19   A    
Cu2   O8    S    
C30   C31   S    
C37   H10   S    
C26   C39   A    
C27   C38   A    
C14   H21   S    
C34   C35   A    
C31   H18   S    
C22   H25   S    
C11   H11   S    
C22   N1    A    
C35   C36   A    
C27   C39   A    
C8    C9    A    
C9    C10   A    
C38   H7    S    
C3    C13   A    
Cu2   O2    S    
C12   C30   A    
C18   N2    A    
C13   C14   A    
C32   H16   S    
C18   H5    S    
C39   H1    S    
C13   H12   S    
C29   H9    S    
C15   C20   A    
C5    C7    A    
C23   C37   A    
Cu1   O7    S    
C31   H19   S    
C2    C4    S    
C9    C14   A    
C29   C30   A    
Cu2   O6    S    
C28   H8    S    
C31   C32   S    
C15   H26   S    
C4    O3    A    
C36   H4    S    
C7    H22   S    
C4    O4    A    
C26   H6    S    
C8    H23   S    
Cu1   Cu2   S    
C21   N1    A    
C25   O8    A    
C12   C34   A    
C1    C5    S    
Cu2   N2    S    
C33   H13   S    
C15   C17   A    
C36   C37   A    
Cu1   O3    S    
C21   H24   S    
C34   C38   A    
C6    C10   A    
C5    C8    A    
C6    C7    A    
C25   C27   S    
C1    O1    A    
C25   O7    A    
C32   C33   S    
C19   C24   A    
C17   H3    S    
C33   H15   S    
Cu1   O5    S    
C22   C24   A    
C3    C11   A    
C10   C11   A    
Cu2   O4    S    
C26   C35   A    
C20   C21   A    
Cu1   N1    S    
C2    C23   A    
C24   H2    S    
C2    C28   A    
C3    C16   S    
