data_mof_unit_21784.cif
_audit_creation_date              2012-12-10T18:40:27-0500
_audit_creation_method            fapswitch 2.2
_symmetry_space_group_name_H-M    P1
_symmetry_Int_Tables_number       1
_space_group_crystal_system       triclinic
_cell_length_a                    10.750292
_cell_length_b                    11.579765
_cell_length_c                    15.302635
_cell_angle_alpha                 90.003982
_cell_angle_beta                  86.499817
_cell_angle_gamma                 90.001705
_cell_volume                      1901.40808831

loop_
_atom_site_label
_atom_site_type_symbol
_atom_type_description
_atom_site_fract_x
_atom_site_fract_y
_atom_site_fract_z
_atom_type_partial_charge
C1    C     C_R   0.500001 0.718964 0.500004 0.916401
C2    C     C_R   0.499998 0.281041 0.500004 0.888535
C3    C     C_1   0.500003 0.839030 0.500013 -0.167325
C4    C     C_1   0.499996 0.160982 0.500016 -0.189856
C5    C     C_1   0.500001 0.940875 0.500020 0.013450
C6    C     C_1   0.499998 0.059140 0.500022 0.004129
C7    C     C_1   0.930315 0.499957 0.500036 0.038783
C8    C     C_1   0.069684 0.499957 0.499972 0.039959
C9    C     C_R   0.484264 0.500386 0.659138 0.934544
C10   C     C_R   0.515646 0.500693 0.340868 0.932280
C11   C     C_R   0.477013 0.474716 0.755454 -0.296989
C12   C     C_R   0.522081 0.476612 0.244318 -0.302341
C13   C     C_R   0.587182 0.456686 0.799867 -0.174814
C14   C     C_R   0.411299 0.461100 0.200090 -0.164644
C15   C     C_R   0.586723 0.373204 0.867103 0.419817
C16   C     C_R   0.409804 0.379624 0.131564 0.428004
C17   C     C_R   0.473222 0.327193 0.902802 -0.163219
C18   C     C_R   0.522091 0.330619 0.096219 -0.165589
C19   C     C_R   0.359296 0.366069 0.870922 -0.152571
C20   C     C_R   0.636777 0.368537 0.127443 -0.153393
C21   C     C_R   0.361695 0.441317 0.797772 0.428178
C22   C     C_R   0.636463 0.442809 0.201018 0.423872
C23   C     C_2   0.477258 0.221733 0.958816 0.019335
C24   C     C_2   0.516327 0.223247 0.042351 0.005981
N1    N     N_1   0.819370 0.500000 0.500010 -0.058853
N2    N     N_1   0.180630 0.500000 0.499990 -0.058827
O1    O     O_R   0.397470 0.665550 0.500010 -0.596120
O2    O     O_R   0.602530 0.334450 0.499990 -0.606887
O3    O     O_R   0.602530 0.665550 0.499990 -0.596554
O4    O     O_R   0.397470 0.334450 0.500010 -0.605827
O5    O     O_R   0.385350 0.500000 0.615800 -0.564733
O6    O     O_R   0.614650 0.500000 0.384200 -0.565406
O7    O     O_R   0.590410 0.500000 0.615800 -0.571374
O8    O     O_R   0.409590 0.500000 0.384200 -0.574410
Zn1   Zn    Zn3+2 0.363080 0.500000 0.500000 1.007017
Zn2   Zn    Zn3+2 0.636920 0.500000 0.500000 1.006314
C25   C     C_2   0.703393 0.523123 0.777918 0.476970
H1    H     H_    0.792129 0.493073 0.799248 0.094886
O9    O     O_2   0.700396 0.616048 0.740381 -0.563980
C26   C     C_2   0.295320 0.526249 0.225052 0.494929
H2    H     H_    0.205427 0.493714 0.208064 0.087454
O10   O     O_2   0.299514 0.620269 0.260910 -0.566479
O11   O     O_3   0.748179 0.468665 0.236996 -0.571130
C27   C     C_3   0.778371 0.585098 0.218021 0.177591
H3    H     H_    0.710226 0.644626 0.252294 0.123648
H4    H     H_    0.780496 0.602014 0.146193 0.167115
C28   C     C_3   0.907026 0.611143 0.249206 -0.742664
H5    H     H_    0.977217 0.553455 0.215592 0.261095
H6    H     H_    0.932325 0.702271 0.234151 0.209756
H7    H     H_    0.907576 0.597543 0.320979 0.244476
O12   O     O_3   0.251004 0.469761 0.761393 -0.561771
C29   C     C_3   0.221631 0.585630 0.782889 0.175501
H8    H     H_    0.292451 0.645789 0.752290 0.120653
H9    H     H_    0.215570 0.598672 0.855229 0.165652
C30   C     C_3   0.095696 0.615490 0.748710 -0.731553
H10   H     H_    0.022882 0.556912 0.778181 0.267207
H11   H     H_    0.070730 0.705995 0.766167 0.206361
H12   H     H_    0.099491 0.606304 0.676392 0.243511
C31   C     C_2   0.549857 0.115880 0.089121 0.394497
H13   H     H_    0.538871 0.113022 0.160083 0.043165
O13   O     O_2   0.597316 0.033464 0.050062 -0.524233
C32   C     C_2   0.441664 0.112975 0.914626 0.408042
H14   H     H_    0.450269 0.107814 0.843687 0.039804
O14   O     O_2   0.394851 0.031992 0.955800 -0.527087
C33   C     C_2   0.238298 0.321457 0.910239 0.533509
H15   H     H_    0.235963 0.247755 0.953773 0.085544
O15   O     O_2   0.139344 0.367238 0.895915 -0.547411
C34   C     C_2   0.756814 0.324640 0.086704 0.547036
H16   H     H_    0.759758 0.245321 0.049460 0.086999
O16   O     O_2   0.853850 0.378044 0.092243 -0.552381
O17   O     O_3   0.296970 0.345009 0.101225 -0.625972
C35   C     C_3   0.247268 0.254386 0.154857 -0.004369
H17   H     H_    0.264249 0.266243 0.225571 0.128099
H18   H     H_    0.288466 0.170716 0.132434 0.179256
C36   C     C_3   0.106990 0.248294 0.147504 -0.697018
H19   H     H_    0.084697 0.234789 0.078384 0.267910
H20   H     H_    0.067875 0.175383 0.187505 0.203741
H21   H     H_    0.063152 0.329777 0.172042 0.273715
O18   O     O_3   0.698069 0.331224 0.895284 -0.625417
C37   C     C_3   0.746005 0.248047 0.834265 0.062689
H22   H     H_    0.779240 0.290129 0.771804 0.136354
H23   H     H_    0.674924 0.181793 0.819846 0.136742
C38   C     C_3   0.855791 0.185958 0.871277 -0.736690
H24   H     H_    0.822999 0.130790 0.927348 0.250937
H25   H     H_    0.902138 0.130036 0.820105 0.211668
H26   H     H_    0.924275 0.249634 0.893421 0.294776

loop_
_geom_bond_atom_site_label_1
_geom_bond_atom_site_label_2
_ccdc_geom_bond_type
C30   H10   S    
C35   H18   S    
C8    N2    T    
C36   H19   S    
C7    C8    S    
C28   H6    S    
C27   H3    S    
O3    Zn2   S    
C32   H14   S    
O4    Zn1   S    
C18   C24   S    
O6    Zn2   S    
C19   C21   A    
C37   C38   S    
C5    C6    S    
C12   C22   A    
O7    Zn2   S    
C18   C20   A    
O8    Zn1   S    
C32   O14   D    
C23   C32   S    
C15   O18   S    
C38   H24   S    
C29   H9    S    
C34   H16   S    
C33   O15   D    
C23   C24   D    
C13   C25   S    
C27   C28   S    
C26   O10   D    
C31   H13   S    
C9    O7    A    
C16   O17   S    
C35   C36   S    
C27   H4    S    
C28   H7    S    
C31   O13   D    
O12   C29   S    
C28   H5    S    
C37   H23   S    
C35   H17   S    
O1    Zn1   S    
C11   C21   A    
C1    C3    S    
C2    C4    S    
O11   C27   S    
C25   H1    S    
C9    C11   S    
C22   O11   S    
C1    O3    A    
C10   O8    A    
C17   C23   S    
C36   H20   S    
C10   C12   S    
C4    C6    T    
C26   H2    S    
C38   H25   S    
C12   C14   A    
C30   H11   S    
O5    Zn1   S    
C21   O12   S    
C29   H8    S    
C15   C17   A    
C20   C34   S    
C20   C22   A    
C37   H22   S    
C3    C5    T    
C29   C30   S    
C7    N1    T    
C2    O4    A    
C13   C15   A    
O17   C35   S    
C25   O9    D    
C11   C13   A    
C24   C31   S    
C17   C19   A    
C19   C33   S    
C14   C16   A    
C36   H21   S    
C9    O5    A    
N1    Zn2   S    
C14   C26   S    
O18   C37   S    
C10   O6    A    
N2    Zn1   S    
C38   H26   S    
O2    Zn2   S    
C16   C18   A    
C33   H15   S    
C30   H12   S    
C1    O1    A    
C34   O16   D    
C2    O2    A    
