data_mof_unit_61327.cif
_audit_creation_date              2012-12-10T19:45:03-0500
_audit_creation_method            fapswitch 2.2
_symmetry_space_group_name_H-M    P1
_symmetry_Int_Tables_number       1
_space_group_crystal_system       triclinic
_cell_length_a                    18.827599
_cell_length_b                    18.675122
_cell_length_c                    18.630506
_cell_angle_alpha                 109.122385
_cell_angle_beta                  109.541625
_cell_angle_gamma                 109.456664
_cell_volume                      5060.77165248

loop_
_atom_site_label
_atom_site_type_symbol
_atom_type_description
_atom_site_fract_x
_atom_site_fract_y
_atom_site_fract_z
_atom_type_partial_charge
C1    C     C_R   0.119519 0.999656 0.620285 0.875755
C2    C     C_R   0.957308 0.985069 0.164879 -0.116629
C3    C     C_R   0.242977 0.246776 0.422147 -0.246106
C4    C     C_R   0.314486 0.315493 0.502852 -0.073677
C5    C     C_R   0.321798 0.320028 0.582188 0.027541
C6    C     C_R   0.255905 0.254575 0.578647 -0.244466
C7    C     C_R   0.184237 0.186220 0.497944 -0.077598
C8    C     C_R   0.177012 0.181540 0.418660 -0.000407
C9    C     C_R   0.449709 0.376812 0.726442 -0.246213
C10   C     C_R   0.517602 0.445206 0.809549 -0.223617
C11   C     C_R   0.530742 0.529960 0.836448 0.706243
C12   C     C_R   0.118916 0.120071 0.498726 0.869541
C13   C     C_R   0.475989 0.546385 0.780229 -0.214419
C14   C     C_R   0.408463 0.478306 0.696711 -0.232785
C15   C     C_R   0.395043 0.393040 0.669234 0.140488
C16   C     C_R   0.266100 0.023762 0.691783 0.098512
C17   C     C_R   0.186179 0.002234 0.687703 -0.079283
C18   C     C_R   0.175140 0.994836 0.756202 -0.213739
C19   C     C_R   0.239761 0.995476 0.820973 -0.216319
C20   C     C_R   0.315865 0.006178 0.817953 -0.090372
C21   C     C_R   0.330776 0.026537 0.756904 0.150307
C22   C     C_3   0.359111 0.986569 0.696323 -0.488156
C23   C     C_R   0.879997 0.000259 0.379848 0.880757
C24   C     C_3   0.287384 0.983297 0.624319 -0.475288
C25   C     C_R   0.797537 0.730685 0.468472 0.024845
C26   C     C_R   0.811973 0.815189 0.498947 -0.085432
C27   C     C_R   0.759209 0.836149 0.530828 -0.238631
C28   C     C_R   0.694188 0.771945 0.531240 -0.016949
C29   C     C_R   0.683489 0.687073 0.500646 -0.134456
C30   C     C_R   0.736747 0.669749 0.470404 -0.003752
C31   C     C_3   0.757013 0.600794 0.432566 0.538612
C32   C     C_3   0.827460 0.670962 0.430913 -0.517877
C33   C     C_R   0.741932 0.920937 0.242953 0.105383
C34   C     C_R   0.879380 0.880016 0.499625 0.893842
C35   C     C_R   0.812090 0.999677 0.315234 -0.106091
C36   C     C_R   0.812320 0.078322 0.328925 -0.224526
C37   C     C_R   0.748524 0.078429 0.264196 -0.193284
C38   C     C_R   0.683626 0.999575 0.187542 -0.098227
C39   C     C_R   0.677553 0.920856 0.180088 0.118384
C40   C     C_3   0.669055 0.847686 0.107150 -0.474929
C41   C     C_3   0.740144 0.847761 0.176612 -0.420177
C42   C     C_R   0.501190 0.621228 0.620342 0.877130
C43   C     C_R   0.380180 0.380993 0.501606 0.859874
C44   C     C_R   0.500421 0.380481 0.380063 0.999319
C45   C     C_R   0.038845 0.992176 0.186293 -0.129795
C46   C     C_R   0.619357 0.619598 0.499487 0.920867
C47   C     C_R   0.500395 0.120042 0.120255 0.985764
C48   C     C_R   0.380234 0.000660 0.880010 0.862615
C49   C     C_R   0.499835 0.879797 0.879897 0.865358
C50   C     C_R   0.619604 0.999016 0.119504 0.885638
C51   C     C_R   0.423861 0.675524 0.684620 0.072427
C52   C     C_R   0.501709 0.686320 0.687546 -0.081335
C53   C     C_R   0.580908 0.755513 0.761621 -0.185352
C54   C     C_R   0.580853 0.819892 0.825902 -0.212701
C55   C     C_R   0.501512 0.812887 0.816799 -0.086735
C56   C     C_R   0.110427 0.055861 0.269301 -0.146800
C57   C     C_R   0.423809 0.737567 0.749386 0.139866
C58   C     C_3   0.343203 0.728601 0.685856 -0.493018
C59   C     C_3   0.343511 0.660138 0.614272 -0.447789
C60   C     C_R   0.426363 0.245822 0.242216 0.044801
C61   C     C_R   0.502630 0.316711 0.315012 -0.329122
C62   C     C_R   0.582230 0.322719 0.324338 0.580806
C63   C     C_R   0.582200 0.257833 0.259663 0.528031
C64   C     C_R   0.502544 0.186064 0.187332 -0.335995
C65   C     C_R   0.426287 0.182303 0.181934 0.052537
C66   C     C_3   0.329799 0.130145 0.128081 -0.430213
C67   C     C_R   0.100510 0.112113 0.331924 0.131337
C68   C     C_3   0.329863 0.202702 0.198051 -0.425054
C69   C     C_R   0.018368 0.104601 0.309991 -0.128222
C70   C     C_R   0.947216 0.041564 0.226462 -0.135770
H1    H     H_    0.902032 0.936110 0.100431 0.131318
H2    H     H_    0.485685 0.611835 0.801684 0.163793
H3    H     H_    0.366113 0.491698 0.653883 0.139697
H4    H     H_    0.115223 0.984113 0.756935 0.153457
H5    H     H_    0.229408 0.985168 0.871412 0.159258
H6    H     H_    0.425360 0.032817 0.713691 0.212766
H7    H     H_    0.348213 0.920937 0.686231 0.191873
H8    H     H_    0.312229 0.027609 0.600080 0.203071
H9    H     H_    0.234711 0.915683 0.572441 0.219592
H10   H     H_    0.768218 0.901605 0.554857 0.172027
H11   H     H_    0.046703 0.948692 0.138384 0.132352
H12   H     H_    0.782063 0.577507 0.477876 0.114765
H13   H     H_    0.894743 0.690962 0.477606 0.162441
H14   H     H_    0.814500 0.657990 0.363890 0.245632
H15   H     H_    0.864126 0.139760 0.387036 0.171282
H16   H     H_    0.750899 0.139614 0.272805 0.199615
H17   H     H_    0.604916 0.787556 0.072398 0.230908
H18   H     H_    0.688887 0.867920 0.063908 0.193450
H19   H     H_    0.716970 0.787710 0.182013 0.221073
H20   H     H_    0.173476 0.061299 0.284884 0.124385
H21   H     H_    0.801211 0.867780 0.173586 0.212821
H22   H     H_    0.642198 0.761900 0.767412 0.161053
H23   H     H_    0.641994 0.875563 0.881116 0.155720
H24   H     H_    0.287690 0.701330 0.696286 0.211107
H25   H     H_    0.354762 0.788704 0.680847 0.192392
H26   H     H_    0.288200 0.593322 0.583389 0.200128
H27   H     H_    0.355401 0.680604 0.567758 0.222417
H28   H     H_    0.305390 0.126872 0.063238 0.193854
H29   H     H_    0.009799 0.148275 0.357032 0.111781
H30   H     H_    0.303301 0.066493 0.126520 0.202818
H31   H     H_    0.304832 0.240931 0.173485 0.211546
H32   H     H_    0.304028 0.181113 0.237353 0.184318
H33   H     H_    0.884266 0.036676 0.209166 0.147449
H34   H     H_    0.238407 0.244270 0.361636 0.153206
H35   H     H_    0.260302 0.256913 0.639049 0.158798
H36   H     H_    0.439856 0.311320 0.706515 0.158927
H37   H     H_    0.559746 0.432354 0.853197 0.168596
O1    O     O_R   0.091630 0.948280 0.539910 -0.624152
O2    O     O_R   0.551690 0.591610 0.643360 -0.623027
O3    O     O_R   0.356650 0.408410 0.448330 -0.632163
O4    O     O_R   0.460080 0.408380 0.551740 -0.614575
O5    O     O_R   0.448280 0.408420 0.356720 -0.623871
O6    O     O_R   0.551710 0.408390 0.460130 -0.584765
O7    O     O_R   0.539890 0.591650 0.448340 -0.606331
O8    O     O_R   0.643320 0.591620 0.551750 -0.629069
O9    O     O_R   0.551740 0.143400 0.091610 -0.570552
O10   O     O_R   0.448290 0.040010 0.091660 -0.634085
O11   O     O_R   0.460120 0.051750 0.908410 -0.621397
O12   O     O_R   0.091590 0.051710 0.643320 -0.620842
O13   O     O_R   0.356670 0.948360 0.908460 -0.628534
O14   O     O_R   0.551710 0.960090 0.908440 -0.625170
O15   O     O_R   0.448260 0.856700 0.908490 -0.620144
O16   O     O_R   0.643330 0.051740 0.091640 -0.613405
O17   O     O_R   0.539880 0.948350 0.091690 -0.618267
O18   O     O_R   0.091640 0.039900 0.448300 -0.612485
O19   O     O_R   0.091600 0.143340 0.551710 -0.623403
O20   O     O_R   0.908410 0.948290 0.356680 -0.616427
O21   O     O_R   0.908370 0.051720 0.460090 -0.622334
O22   O     O_R   0.908400 0.856660 0.448290 -0.615507
O23   O     O_R   0.908360 0.960100 0.551700 -0.631826
O24   O     O_R   0.448260 0.591640 0.539950 -0.623060
Zn1   Zn    Zn3+2 0.000030 0.930940 0.430950 0.970499
Zn2   Zn    Zn3+2 0.999970 0.069060 0.569050 0.963662
Zn3   Zn    Zn3+2 0.430920 0.500040 0.430990 0.977748
Zn4   Zn    Zn3+2 0.569050 0.499990 0.569090 1.007571
Zn5   Zn    Zn3+2 0.569070 0.069080 0.000020 1.005169
Zn6   Zn    Zn3+2 0.430930 0.931020 0.000080 0.960520
F1    F     F_    0.596236 0.596142 0.917265 -0.676781
C71   C     C_1   0.641364 0.794767 0.564888 0.159515
N1    N     N_1   0.599035 0.812949 0.591869 -0.203648
F2    F     F_    0.689560 0.535168 0.349479 -0.606850
F3    F     F_    0.659067 0.391102 0.394566 -0.607136
F4    F     F_    0.658941 0.264002 0.268566 -0.619835

loop_
_geom_bond_atom_site_label_1
_geom_bond_atom_site_label_2
_ccdc_geom_bond_type
C3    H34   S    
C66   C68   S    
C16   C21   A    
O2    Zn4   S    
C41   H19   S    
C19   C20   A    
C22   H6    S    
O24   Zn3   S    
C7    C8    A    
C48   O13   A    
C53   C54   A    
C26   C27   A    
C33   C39   A    
C31   H12   S    
C46   O8    A    
C40   H17   S    
C36   C37   A    
C22   H7    S    
C42   O2    A    
C68   H32   S    
C5    C6    A    
C12   O19   A    
C18   C19   A    
C1    O12   A    
C66   H30   S    
O20   Zn1   S    
C54   H23   S    
C26   C34   S    
C62   C63   A    
C35   C36   A    
C34   O22   A    
C16   C17   A    
C42   O24   A    
C51   C57   A    
C43   O3    A    
C9    C10   A    
C61   C62   A    
O22   Zn1   S    
C25   C32   S    
C56   H20   S    
C18   H4    S    
C21   C22   S    
C10   H37   S    
C7    C12   S    
C28   C71   S    
C43   O4    A    
C37   C38   A    
C62   F3    S    
C2    C45   A    
C47   O9    A    
C32   H14   S    
C45   H11   S    
C6    H35   S    
C46   O7    A    
C51   C52   A    
C14   H3    S    
O17   Zn6   S    
C50   O17   A    
C68   H31   S    
C45   C56   A    
C27   H10   S    
C47   C64   S    
C70   H33   S    
C48   O11   A    
C12   O18   A    
C1    O1    A    
C58   C59   S    
C49   C55   S    
C60   C61   A    
C67   C69   A    
C31   F2    S    
C58   H25   S    
C29   C30   A    
C37   H16   S    
C24   H9    S    
C31   C32   S    
C30   C31   S    
C49   O14   A    
C53   H22   S    
C17   C18   A    
O7    Zn3   S    
O12   Zn2   S    
C60   C68   S    
C20   C48   S    
C38   C50   S    
C69   H29   S    
C24   H8    S    
C40   C41   S    
C41   H21   S    
C44   O6    A    
C3    C8    A    
C23   C35   S    
C55   C57   A    
C36   H15   S    
C22   C24   S    
O3    Zn3   S    
O23   Zn2   S    
C51   C59   S    
C59   H26   S    
C3    C4    A    
C44   O5    A    
C39   C40   S    
O11   Zn5   S    
C52   C53   A    
C9    H36   S    
C23   O20   A    
C25   C30   A    
C32   H13   S    
C54   C55   A    
C28   C29   A    
O1    Zn1   S    
C9    C15   A    
C11   F1    S    
O10   Zn6   S    
C50   O16   A    
O15   Zn6   S    
O5    Zn3   S    
C4    C5    A    
C60   C65   A    
C71   N1    T    
C6    C7    A    
O9    Zn5   S    
C13   H2    S    
C44   C61   S    
C56   C67   A    
C29   C46   S    
C1    C17   S    
O16   Zn5   S    
C33   C41   S    
C64   C65   A    
C66   H28   S    
C19   H5    S    
C25   C26   A    
C2    C70   A    
O21   Zn2   S    
C11   C13   A    
O18   Zn1   S    
O4    Zn4   S    
C57   C58   S    
C38   C39   A    
O8    Zn4   S    
C59   H27   S    
C49   O15   A    
C33   C35   A    
C4    C43   S    
O14   Zn5   S    
C58   H24   S    
C69   C70   A    
C5    C15   S    
C10   C11   A    
O19   Zn2   S    
C63   C64   A    
C47   O10   A    
C20   C21   A    
C34   O23   A    
C8    C67   S    
C16   C24   S    
C65   C66   S    
O6    Zn4   S    
C27   C28   A    
C63   F4    S    
C14   C15   A    
O13   Zn6   S    
C13   C14   A    
C40   H18   S    
C2    H1    S    
C42   C52   S    
C23   O21   A    
