data_mof_unit_10571.cif
_audit_creation_date              2012-10-26T18:59:54-0400
_audit_creation_method            fapswitch 2.2
_symmetry_space_group_name_H-M    P1
_symmetry_Int_Tables_number       1
_space_group_crystal_system       triclinic
_cell_length_a                    9.531663
_cell_length_b                    10.8641
_cell_length_c                    17.091505
_cell_angle_alpha                 89.125171
_cell_angle_beta                  93.109268
_cell_angle_gamma                 90.073816
_cell_volume                      1767.063988

loop_
_atom_site_label
_atom_site_type_symbol
_atom_type_description
_atom_site_fract_x
_atom_site_fract_y
_atom_site_fract_z
_atom_type_partial_charge
C1    C     C_R   0.499812 0.262662 0.500546 0.550815
C2    C     C_R   0.498074 0.130053 0.501757 0.005600
C3    C     C_R   0.370144 0.064400 0.495502 -0.164298
C4    C     C_R   0.516154 0.499941 0.650812 0.570276
C5    C     C_R   0.370432 0.935301 0.495653 -0.163793
C6    C     C_R   0.498647 0.869903 0.502254 0.000393
C7    C     C_R   0.621822 0.938116 0.510065 0.035992
C8    C     C_3   0.778693 0.930745 0.517501 0.011924
C9    C     C_3   0.777128 0.072857 0.517260 -0.223290
C10   C     C_R   0.070709 0.597070 0.468181 0.152748
C11   C     C_R   0.078118 0.411111 0.538872 -0.023510
C12   C     C_R   0.633262 0.439239 0.778329 -0.190430
C13   C     C_R   0.929175 0.411340 0.539087 -0.020364
C14   C     C_R   0.923168 0.596784 0.467869 0.157776
C15   C     C_3   0.909981 0.640333 0.384711 -0.276740
C16   C     C_R   0.500024 0.737329 0.500706 0.550438
C17   C     C_3   0.069007 0.641894 0.385392 -0.280941
C18   C     C_R   0.483774 0.502058 0.348941 0.550989
C19   C     C_R   0.521747 0.499276 0.736680 0.032938
C20   C     C_R   0.414311 0.554791 0.777815 0.102030
C21   C     C_R   0.420882 0.549238 0.859577 -0.080910
C22   C     C_R   0.531652 0.486807 0.900963 0.193669
C23   C     C_R   0.607615 0.521861 0.143178 0.028320
C24   C     C_R   0.636922 0.431800 0.859813 -0.130456
C25   C     C_3   0.980528 0.878717 0.605429 -0.314809
C26   C     C_3   0.749575 0.528783 0.107513 -0.235044
C27   C     C_3   0.811694 0.399833 0.098684 -0.291733
C28   C     C_3   0.953062 0.406244 0.061091 -0.455585
C29   C     C_3   0.170167 0.554424 0.732684 -0.283544
C30   C     C_R   0.605287 0.503500 0.224167 -0.145385
C31   C     C_R   0.478417 0.540551 0.099379 0.231270
C32   C     C_R   0.479365 0.509802 0.262839 -0.007056
C33   C     C_R   0.353141 0.531138 0.219054 -0.162801
C34   C     C_R   0.353209 0.547096 0.138102 -0.121662
C35   C     C_R   0.621281 0.062204 0.509279 -0.000300
Cu1   Cu    Cu3+1 0.640670 0.499980 0.500000 0.925172
Cu2   Cu    Cu3+1 0.359330 0.500020 0.500000 0.942947
H1    H     H_    0.703573 0.486864 0.257122 0.118821
H2    H     H_    0.110883 0.572939 0.345694 0.146688
H3    H     H_    0.113825 0.736004 0.380283 0.117814
H4    H     H_    0.722433 0.383381 0.891179 0.118230
H5    H     H_    0.715925 0.395470 0.747714 0.122944
H6    H     H_    0.254653 0.536789 0.247079 0.116732
H7    H     H_    0.337759 0.591927 0.890369 0.131442
H8    H     H_    0.254914 0.563855 0.104962 0.109134
H9    H     H_    0.270256 0.112024 0.489832 0.129200
H10   H     H_    0.786162 0.793182 0.604352 0.279552
H11   H     H_    0.009088 0.843357 0.665472 0.144779
H12   H     H_    0.270689 0.887497 0.489894 0.128010
H13   H     H_    0.022292 0.973792 0.600019 0.147956
H14   H     H_    0.029777 0.818906 0.562498 0.136497
H15   H     H_    0.940918 0.449859 0.001896 0.150963
H16   H     H_    0.028966 0.460216 0.098270 0.147739
H17   H     H_    0.995298 0.311830 0.055230 0.147778
H18   H     H_    0.826772 0.354275 0.157221 0.153817
H19   H     H_    0.738705 0.342429 0.061773 0.188632
H20   H     H_    0.742972 0.578351 0.050166 0.178461
H21   H     H_    0.822212 0.584250 0.146071 0.117804
H22   H     H_    0.290663 0.708296 0.758020 0.239160
H23   H     H_    0.825416 0.889257 0.465966 0.121213
H24   H     H_    0.127276 0.545061 0.791667 0.116823
H25   H     H_    0.184091 0.461413 0.708120 0.165111
H26   H     H_    0.093398 0.605953 0.693526 0.142443
H27   H     H_    0.813045 0.114624 0.573858 0.144600
H28   H     H_    0.821458 0.114999 0.464321 0.107598
H29   H     H_    0.136779 0.337930 0.569136 0.106667
H30   H     H_    0.876232 0.338672 0.569755 0.107507
H31   H     H_    0.862940 0.569972 0.345048 0.142604
H32   H     H_    0.862220 0.733193 0.377877 0.113777
N1    N     N_2   0.538977 0.475089 0.983672 -0.255077
N2    N     N_2   0.469488 0.553936 0.016909 -0.266527
N3    N     N_R   0.147870 0.500930 0.499500 -0.227500
N4    N     N_R   0.851960 0.500890 0.499500 -0.230336
N5    N     N_2   0.829320 0.877991 0.592250 -0.505877
N6    N     N_2   0.302390 0.620282 0.737529 -0.495575
O1    O     O_R   0.618810 0.319640 0.500000 -0.507493
O2    O     O_R   0.381230 0.319680 0.499990 -0.515939
O3    O     O_R   0.631790 0.498830 0.613930 -0.517706
O4    O     O_R   0.394210 0.498870 0.613920 -0.469641
O5    O     O_R   0.618770 0.680320 0.500010 -0.508466
O6    O     O_R   0.381190 0.680360 0.500000 -0.501260
O7    O     O_R   0.605790 0.501130 0.386080 -0.506426
O8    O     O_R   0.368210 0.501170 0.386070 -0.503319

loop_
_geom_bond_atom_site_label_1
_geom_bond_atom_site_label_2
_ccdc_geom_bond_type
C2    C35   A    
C29   H26   S    
C9    H27   S    
C28   H15   S    
C19   C20   A    
C5    H12   S    
C7    C8    S    
Cu2   O4    S    
C26   C27   S    
Cu1   Cu2   S    
C25   N5    S    
C5    C6    A    
C27   H18   S    
C10   C17   S    
C1    O2    A    
C30   H1    S    
C1    C2    S    
C17   H2    S    
C23   C26   S    
C25   H13   S    
C12   H5    S    
Cu1   O1    S    
C4    C19   S    
Cu1   O7    S    
C8    C9    S    
N1    N2    D    
C23   C30   A    
C11   H29   S    
C31   N2    S    
C21   C22   A    
C24   H4    S    
Cu2   O6    S    
C33   C34   A    
C15   H32   S    
C29   H24   S    
C33   H6    S    
C14   N4    A    
C4    O4    A    
Cu1   O5    S    
C28   H17   S    
C11   N3    A    
Cu2   O2    S    
C20   N6    S    
C16   O5    A    
C17   H3    S    
C23   C31   A    
C25   H14   S    
C4    O3    A    
C21   H7    S    
C8    N5    S    
C18   O8    A    
C31   C34   A    
C34   H8    S    
C26   H21   S    
C25   H11   S    
C13   N4    A    
C10   C14   A    
C22   C24   A    
C18   C32   S    
H22   N6    S    
C13   H30   S    
C15   C17   S    
C29   H25   S    
C27   H19   S    
C1    O1    A    
C7    C35   A    
H10   N5    S    
C3    C5    A    
C28   H16   S    
C6    C7    A    
C29   N6    S    
C12   C24   A    
C3    H9    S    
C32   C33   A    
C2    C3    A    
Cu1   O3    S    
C8    H23   S    
C30   C32   A    
C11   C13   A    
C15   H31   S    
C12   C19   A    
C16   O6    A    
C18   O7    A    
C26   H20   S    
C9    H28   S    
Cu1   N4    S    
C6    C16   S    
C20   C21   A    
Cu2   N3    S    
C27   C28   S    
C9    C35   S    
C14   C15   S    
Cu2   O8    S    
C22   N1    S    
C10   N3    A    
