data_mof_unit_48129.cif
_audit_creation_date              2012-10-26T20:38:28-0400
_audit_creation_method            fapswitch 2.2
_symmetry_space_group_name_H-M    P1
_symmetry_Int_Tables_number       1
_space_group_crystal_system       triclinic
_cell_length_a                    15.863531
_cell_length_b                    11.040652
_cell_length_c                    9.821952
_cell_angle_alpha                 111.135683
_cell_angle_beta                  97.798503
_cell_angle_gamma                 90.970785
_cell_volume                      1585.64715805

loop_
_atom_site_label
_atom_site_type_symbol
_atom_type_description
_atom_site_fract_x
_atom_site_fract_y
_atom_site_fract_z
_atom_type_partial_charge
C1    C     C_R   0.493905 0.254133 0.440677 0.558338
C2    C     C_3   0.032530 0.622229 0.528199 -0.101001
C3    C     C_3   0.017013 0.420032 0.368881 0.047362
C4    C     C_3   0.982987 0.579967 0.631115 0.047373
C5    C     C_1   0.250618 0.500511 0.504900 -0.038981
C6    C     C_1   0.749381 0.499489 0.495100 -0.038982
C7    C     C_3   0.034424 0.458305 0.606072 0.047740
C8    C     C_3   0.965575 0.541694 0.393924 0.047738
C9    C     C_3   0.083240 0.499530 0.502964 0.023304
C10   C     C_3   0.916760 0.500468 0.497032 0.023304
C11   C     C_1   0.175140 0.500368 0.505233 -0.077668
C12   C     C_R   0.506095 0.745867 0.559323 0.558338
C13   C     C_1   0.824860 0.499631 0.494765 -0.077669
C14   C     C_2   0.490579 0.114817 0.407268 -0.131918
C15   C     C_2   0.509421 0.885183 0.592732 -0.131918
C16   C     C_3   0.042098 0.324772 0.225572 -0.272001
C17   C     C_3   0.964500 0.254316 0.112617 -0.448257
C18   C     C_3   0.957905 0.675224 0.774426 -0.272002
C19   C     C_3   0.035506 0.745673 0.887377 -0.448261
C20   C     C_3   0.921782 0.594889 0.280594 -0.270340
C21   C     C_3   0.985494 0.637729 0.200815 -0.450532
C22   C     C_3   0.078214 0.405096 0.719394 -0.270344
C23   C     C_2   0.501566 0.069560 0.516594 -0.164448
C24   C     C_3   0.014506 0.362319 0.799224 -0.450527
C25   C     C_2   0.498434 0.930439 0.483406 -0.164448
C26   C     C_2   0.507306 0.510761 0.081129 -0.024240
C27   C     C_2   0.492694 0.489239 0.918871 -0.024240
C28   C     C_R   0.339968 0.500128 0.501608 0.552414
C29   C     C_R   0.660032 0.499872 0.498392 0.552414
C30   C     C_3   0.967470 0.377770 0.471797 -0.101016
Cu1   Cu    Cu3+1 0.514700 0.521810 0.644910 0.933301
Cu2   Cu    Cu3+1 0.485300 0.478190 0.355090 0.933302
H1    H     H_    0.939313 0.278316 0.448614 0.099405
H2    H     H_    0.928648 0.323334 0.072682 0.152206
H3    H     H_    0.985865 0.178760 0.016328 0.131993
H4    H     H_    0.082067 0.377536 0.177539 0.141834
H5    H     H_    0.081097 0.251378 0.252255 0.140216
H6    H     H_    0.071366 0.676645 0.927284 0.152210
H7    H     H_    0.078228 0.793976 0.838624 0.150640
H8    H     H_    0.014145 0.821212 0.983684 0.131995
H9    H     H_    0.918907 0.748621 0.747748 0.140215
H10   H     H_    0.917937 0.622458 0.822457 0.141842
H11   H     H_    0.032533 0.714437 0.281046 0.148801
H12   H     H_    0.060686 0.721683 0.551380 0.099410
H13   H     H_    0.019670 0.554160 0.137526 0.151209
H14   H     H_    0.950904 0.677922 0.122358 0.134734
H15   H     H_    0.874336 0.519827 0.199189 0.143471
H16   H     H_    0.886924 0.680099 0.338947 0.139408
H17   H     H_    0.980434 0.445955 0.862666 0.151194
H18   H     H_    0.967380 0.285737 0.719013 0.148828
H19   H     H_    0.049085 0.321983 0.877553 0.134740
H20   H     H_    0.113039 0.319853 0.661018 0.139403
H21   H     H_    0.125689 0.480132 0.800770 0.143468
H22   H     H_    0.487014 0.864669 0.368433 0.156198
H23   H     H_    0.520864 0.951247 0.707507 0.101833
H24   H     H_    0.512985 0.135331 0.631567 0.156198
H25   H     H_    0.479136 0.048753 0.292493 0.101833
H26   H     H_    0.443516 0.416447 0.846286 0.145115
H27   H     H_    0.556483 0.583553 0.153714 0.145116
H28   H     H_    0.583076 0.623080 0.934110 0.200308
H29   H     H_    0.416923 0.376920 0.065890 0.200307
H30   H     H_    0.921770 0.206032 0.161377 0.150643
N1    N     N_2   0.463210 0.445420 0.137360 -0.352021
N2    N     N_2   0.536790 0.554580 0.862640 -0.352021
O1    O     O_R   0.507840 0.332340 0.577400 -0.497154
O2    O     O_R   0.492160 0.667660 0.422600 -0.497154
O3    O     O_R   0.483020 0.295500 0.332650 -0.490375
O4    O     O_R   0.516980 0.704500 0.667350 -0.490374
O5    O     O_R   0.391490 0.518400 0.622350 -0.492989
O6    O     O_R   0.608510 0.481600 0.377650 -0.492988
O7    O     O_R   0.366660 0.481570 0.377600 -0.487917
O8    O     O_R   0.633340 0.518430 0.622400 -0.487917

loop_
_geom_bond_atom_site_label_1
_geom_bond_atom_site_label_2
_ccdc_geom_bond_type
C14   C23   D    
C3    C30   S    
C2    C4    S    
C26   N1    D    
C3    C9    S    
C19   H6    S    
C17   H30   S    
Cu2   O7    S    
C7    C22   S    
C9    C11   S    
C26   H27   S    
C10   C30   S    
C1    O1    A    
Cu1   Cu2   S    
C12   C15   S    
C29   O6    A    
C16   H5    S    
H28   N2    S    
C29   O8    A    
C4    C18   S    
C24   H19   S    
C23   C25   S    
C5    C28   S    
C23   H24   S    
C7    C30   S    
C20   H16   S    
C16   H4    S    
C6    C13   T    
C28   O5    A    
C12   O4    A    
C26   C27   S    
C8    C20   S    
C19   H7    S    
C25   H22   S    
Cu2   O3    S    
C22   H20   S    
Cu1   O8    S    
C1    O3    A    
C5    C11   T    
C22   H21   S    
C21   H13   S    
C19   H8    S    
C4    C7    S    
C3    C8    S    
C24   H18   S    
Cu1   O4    S    
C22   C24   S    
C15   C25   D    
C28   O7    A    
C17   H2    S    
C4    C10   S    
C20   H15   S    
C7    C9    S    
Cu1   O5    S    
C6    C29   S    
C20   C21   S    
Cu2   O2    S    
C21   H14   S    
C27   N2    D    
C18   H9    S    
C24   H17   S    
H29   N1    S    
C14   H25   S    
Cu1   O1    S    
C18   C19   S    
Cu2   O6    S    
C1    C14   S    
C17   H3    S    
C30   H1    S    
C21   H11   S    
C2    C9    S    
C12   O2    A    
Cu1   N2    S    
C27   H26   S    
C8    C10   S    
C2    C8    S    
C3    C16   S    
C18   H10   S    
Cu2   N1    S    
C2    H12   S    
C16   C17   S    
C10   C13   S    
C15   H23   S    
