data_mof_unit_33781.cif
_audit_creation_date              2012-12-11T16:35:24-0500
_audit_creation_method            fapswitch 2.2
_symmetry_space_group_name_H-M    P1
_symmetry_Int_Tables_number       1
_space_group_crystal_system       triclinic
_cell_length_a                    6.921222
_cell_length_b                    17.573002
_cell_length_c                    19.63264
_cell_angle_alpha                 109.138492
_cell_angle_beta                  90.215801
_cell_angle_gamma                 90.385096
_cell_volume                      2255.77690946

loop_
_atom_site_label
_atom_site_type_symbol
_atom_type_description
_atom_site_fract_x
_atom_site_fract_y
_atom_site_fract_z
_atom_type_partial_charge
O1    O     O_R   0.505700 0.440210 0.561730 -0.548923
O2    O     O_R   0.169350 0.406300 0.412660 -0.539295
O3    O     O_R   0.005650 0.559790 0.438270 -0.544993
C1    C     C_R   0.339231 0.382640 0.385587 0.687000
O4    O     O_R   0.175560 0.430650 0.559600 -0.508131
O5    O     O_R   0.011900 0.584320 0.586250 -0.536540
C2    C     C_R   0.344341 0.414621 0.580412 0.715639
O6    O     O_R   0.499450 0.415680 0.413750 -0.541011
O7    O     O_3   0.341370 0.550390 0.508570 -0.367893
V1    V     V_3+5 0.063940 0.490650 0.498410 1.458948
O8    O     O_R   0.682570 0.593700 0.587340 -0.543117
C3    C     C_R   0.852147 0.616757 0.614933 0.696486
O9    O     O_R   0.676370 0.569350 0.440400 -0.513645
C4    C     C_R   0.845083 0.585039 0.419233 0.715570
V2    V     V_3+5 0.564750 0.509350 0.501590 1.445638
O10   O     O_3   0.837190 0.449610 0.491430 -0.363862
C5    C     C_R   0.038367 0.679485 0.284099 -0.141137
H1    H     H_    0.170043 0.676028 0.253685 0.118192
C6    C     C_R   0.025232 0.634647 0.331132 -0.205695
H2    H     H_    0.147886 0.598611 0.335697 0.169826
C7    C     C_R   0.855743 0.634877 0.370626 -0.157218
C8    C     C_R   0.699518 0.683162 0.363113 0.411729
C9    C     C_R   0.713239 0.727152 0.314834 -0.244579
H3    H     H_    0.591156 0.762975 0.309476 0.110614
C10   C     C_R   0.882362 0.726184 0.274982 0.029925
C11   C     C_R   0.731463 0.784151 0.185487 -0.148198
H4    H     H_    0.594592 0.756202 0.190225 0.101776
C12   C     C_R   0.742107 0.830013 0.139215 -0.173613
H5    H     H_    0.612790 0.836798 0.110566 0.121590
C13   C     C_R   0.917488 0.865829 0.129422 -0.046787
C14   C     C_R   0.082076 0.854669 0.167222 -0.164749
H6    H     H_    0.219153 0.881980 0.161472 0.113915
C15   C     C_R   0.070931 0.809617 0.214262 -0.151995
H7    H     H_    0.199596 0.804298 0.243844 0.098231
C16   C     C_R   0.895315 0.773679 0.224189 0.117811
H8    H     H_    0.794949 0.631049 0.933797 0.116225
C17   C     C_R   0.958936 0.907707 0.746806 -0.142398
C18   C     C_R   0.973033 0.921827 0.681159 -0.117146
C19   C     C_R   0.951917 0.858531 0.616704 -0.138697
C20   C     C_R   0.917534 0.780535 0.617346 -0.136865
C21   C     C_R   0.902295 0.764334 0.683109 0.073675
C22   C     C_R   0.923058 0.829247 0.749207 0.066129
C23   C     C_R   0.865242 0.685150 0.683759 -0.185489
C24   C     C_R   0.846671 0.671035 0.750529 0.063810
C25   C     C_R   0.866806 0.735966 0.816633 0.068747
C26   C     C_R   0.906018 0.815024 0.815995 -0.182295
C27   C     C_R   0.808587 0.592728 0.752886 -0.136936
C28   C     C_R   0.789925 0.578828 0.818488 -0.116588
C29   C     C_R   0.809349 0.642196 0.882983 -0.120637
C30   C     C_R   0.847621 0.719960 0.882387 -0.131819
H9    H     H_    0.975906 0.958945 0.795501 0.092705
H10   H     H_    0.000154 0.982272 0.680340 0.109497
H11   H     H_    0.962593 0.869856 0.565861 0.104896
H12   H     H_    0.902084 0.733281 0.565828 0.085916
H13   H     H_    0.792599 0.541517 0.704163 0.102311
H14   H     H_    0.760347 0.518525 0.819245 0.117981
H15   H     H_    0.862294 0.767217 0.933943 0.091578
H16   H     H_    0.564443 0.488924 0.199055 0.131705
C31   C     C_R   0.292029 0.214769 0.375665 -0.154113
C32   C     C_R   0.280236 0.134800 0.373484 -0.118495
C33   C     C_R   0.313800 0.072691 0.309454 -0.118989
C34   C     C_R   0.358973 0.089960 0.246959 -0.139850
C35   C     C_R   0.370605 0.170508 0.247116 0.073245
C36   C     C_R   0.337132 0.234228 0.313098 0.069329
C37   C     C_R   0.412125 0.187954 0.182802 -0.153681
C38   C     C_R   0.418332 0.270152 0.185611 -0.027480
C39   C     C_R   0.415677 0.332650 0.253478 0.056854
C40   C     C_R   0.357563 0.315536 0.316111 -0.152912
C41   C     C_R   0.419496 0.293539 0.123039 0.072565
C42   C     C_R   0.480740 0.371038 0.126700 0.482717
C43   C     C_R   0.514566 0.428910 0.194355 -0.268621
C44   C     C_R   0.467924 0.411746 0.256593 -0.214094
H17   H     H_    0.267527 0.261037 0.426993 0.097737
H18   H     H_    0.246451 0.120845 0.421855 0.103231
H19   H     H_    0.305223 0.010689 0.308183 0.111182
H20   H     H_    0.384898 0.039380 0.198716 0.095773
H21   H     H_    0.476845 0.461040 0.306915 0.151878
C45   C     C_R   0.538092 0.315951 0.712078 -0.144517
H22   H     H_    0.670262 0.319680 0.742646 0.122738
C46   C     C_R   0.524476 0.362441 0.666594 -0.221588
H23   H     H_    0.647689 0.399191 0.662984 0.166685
C47   C     C_R   0.353961 0.363183 0.627596 -0.143537
C48   C     C_R   0.196295 0.313995 0.633584 0.424009
C49   C     C_R   0.212180 0.267199 0.679716 -0.246448
H24   H     H_    0.090267 0.230558 0.684330 0.096863
C50   C     C_R   0.382241 0.267611 0.719554 0.040564
C51   C     C_R   0.228742 0.202700 0.803801 -0.145050
H25   H     H_    0.089344 0.226254 0.796176 0.106333
C52   C     C_R   0.239400 0.156784 0.849833 -0.136800
H26   H     H_    0.107377 0.145028 0.874224 0.139356
C53   C     C_R   0.417754 0.128484 0.865821 -0.034857
C54   C     C_R   0.584574 0.144775 0.832162 -0.140949
H27   H     H_    0.723974 0.122716 0.842154 0.113459
C55   C     C_R   0.573149 0.188678 0.784164 -0.138929
H28   H     H_    0.704231 0.197814 0.757903 0.091265
C56   C     C_R   0.395083 0.219084 0.769663 0.111954
O11   O     O_R   0.273230 0.084330 0.086440 -0.525287
O12   O     O_R   0.596660 0.069390 0.940470 -0.540529
O13   O     O_R   0.760270 0.915710 0.913690 -0.539745
C57   C     C_R   0.428075 0.081737 0.916771 0.724230
O14   O     O_R   0.603330 0.093680 0.087390 -0.532037
O15   O     O_R   0.766990 0.940160 0.061660 -0.544470
C58   C     C_R   0.432807 0.119755 0.113238 0.745057
O16   O     O_R   0.266510 0.059870 0.938470 -0.534770
O17   O     O_3   0.431050 0.949630 0.991510 -0.376145
V3    V     V_3+5 0.708490 0.009340 0.001580 1.454506
O18   O     O_R   0.096270 0.930570 0.059390 -0.546229
C59   C     C_R   0.927618 0.915336 0.080865 0.679356
O19   O     O_R   0.089600 0.906290 0.912460 -0.541314
C60   C     C_R   0.919875 0.883367 0.884849 0.691019
V4    V     V_3+5 0.207670 0.990600 0.998190 1.442752
O20   O     O_3   0.935250 0.050360 0.008480 -0.350939
I1    I     I_    0.213868 0.243361 0.040305 -0.377179
O21   O     O_3   0.507484 0.387625 0.062882 -0.537809
C61   C     C_3   0.403950 0.456859 0.063271 0.112515
H29   H     H_    0.486337 0.512258 0.093452 0.109605
H30   H     H_    0.257446 0.458671 0.087284 0.126558
C62   C     C_3   0.378157 0.455865 0.985976 -0.661048
H31   H     H_    0.296156 0.401082 0.954176 0.240405
H32   H     H_    0.297244 0.509993 0.985349 0.165045
H33   H     H_    0.521435 0.455986 0.960699 0.218667
O22   O     O_3   0.023457 0.317222 0.598365 -0.550898
C63   C     C_3   0.957823 0.239324 0.557077 0.062459
H34   H     H_    0.872844 0.212435 0.591533 0.124841
H35   H     H_    0.079101 0.198557 0.531695 0.096022
C64   C     C_3   0.825823 0.245822 0.497060 -0.650002
H36   H     H_    0.905493 0.273405 0.461934 0.222133
H37   H     H_    0.774036 0.184956 0.463865 0.165110
H38   H     H_    0.699024 0.283649 0.520287 0.217852
O23   O     O_3   0.530058 0.684755 0.400749 -0.551777
C65   C     C_3   0.513412 0.760571 0.455015 0.079504
H39   H     H_    0.472160 0.807325 0.430913 0.114475
H40   H     H_    0.650651 0.779067 0.486266 0.099563
C66   C     C_3   0.356359 0.755866 0.507471 -0.657835
H41   H     H_    0.396173 0.711290 0.534065 0.231837
H42   H     H_    0.339806 0.815661 0.549529 0.169186
H43   H     H_    0.216602 0.737722 0.478479 0.210673

loop_
_geom_bond_atom_site_label_1
_geom_bond_atom_site_label_2
_ccdc_geom_bond_type
C51   H25   S    
C35   C37   A    
C64   H36   S    
C21   C22   A    
C6    H2    S    
C1    O6    A    
C65   C66   S    
C66   H43   S    
O21   C61   S    
C63   H34   S    
V3    O20   S    
C25   C26   A    
C33   H19   S    
C19   H11   S    
C41   I1    S    
C31   C36   A    
C17   C18   A    
C36   C40   A    
C4    C7    S    
C27   H13   S    
C12   H5    S    
C6    C7    A    
C49   C50   A    
C3    C23   S    
O19   V4    S    
O5    C3    A    
C13   C14   A    
C17   H9    S    
C45   C46   A    
H16   C43   S    
C63   H35   S    
C38   C41   A    
C18   H10   S    
C61   H29   S    
C57   O16   A    
C39   C44   A    
C22   C26   A    
C32   H18   S    
C17   C22   A    
C62   H31   S    
C5    C6    A    
O8    V2    S    
C27   C28   A    
C61   H30   S    
C9    H3    S    
C14   C15   A    
O15   C59   A    
C42   C43   A    
O1    V2    S    
C53   C57   S    
C52   C53   A    
O7    V1    S    
C31   H17   S    
C24   C27   A    
C45   C50   A    
C38   C39   A    
O17   V4    S    
C31   C32   A    
O14   C58   A    
O9    C4    A    
C8    O23   S    
C21   C23   A    
C34   H20   S    
C41   C42   A    
C11   C12   A    
C15   H7    S    
C39   C40   A    
C49   H24   S    
C46   C47   A    
C52   H26   S    
C19   C20   A    
O4    C2    A    
C45   H22   S    
C63   C64   S    
C66   H42   S    
C64   H38   S    
O13   C60   A    
C47   C48   A    
C42   O21   S    
C32   C33   A    
C62   H33   S    
O2    C1    A    
C23   C24   A    
C44   H21   S    
C48   C49   A    
O18   C59   A    
C61   C62   S    
C51   C56   A    
C34   C35   A    
C54   C55   A    
C5    H1    S    
C11   H4    S    
C55   H28   S    
C55   C56   A    
O11   C58   A    
O3    C4    A    
C50   C56   S    
C10   C16   S    
C28   C29   A    
C37   C38   A    
O6    V2    S    
C20   H12   S    
O9    V2    S    
C37   C58   S    
C65   H39   S    
O2    V1    S    
C53   C54   A    
C24   C25   A    
C1    C40   S    
O14   V3    S    
C28   H14   S    
O13   V3    S    
C20   C21   A    
C64   H37   S    
V4    O20   S    
C13   C59   S    
O1    C2    A    
C30   H15   S    
O18   V4    S    
C14   H6    S    
C46   H23   S    
C65   H40   S    
O5    V1    S    
O16   V4    S    
O8    C3    A    
C66   H41   S    
O17   V3    S    
O12   C57   A    
O12   V3    S    
C5    C10   A    
C26   C60   S    
O23   C65   S    
O7    V2    S    
O4    V1    S    
O3    V1    S    
V1    O10   S    
O19   C60   A    
C18   C19   A    
C25   C30   A    
O11   V4    S    
C12   C13   A    
C54   H27   S    
C15   C16   A    
O15   V3    S    
C9    C10   A    
C48   O22   S    
C33   C34   A    
C62   H32   S    
C35   C36   A    
C11   C16   A    
C43   C44   A    
C2    C47   S    
C29   C30   A    
C51   C52   A    
C8    C9    A    
O22   C63   S    
C7    C8    A    
H8    C29   S    
V2    O10   S    
