data_mof_unit_45288.cif
_audit_creation_date              2012-12-10T20:45:33-0500
_audit_creation_method            fapswitch 2.2
_symmetry_space_group_name_H-M    P1
_symmetry_Int_Tables_number       1
_space_group_crystal_system       triclinic
_cell_length_a                    10.798111
_cell_length_b                    10.632916
_cell_length_c                    9.883345
_cell_angle_alpha                 89.964989
_cell_angle_beta                  91.267592
_cell_angle_gamma                 90.147471
_cell_volume                      1134.47865249

loop_
_atom_site_label
_atom_site_type_symbol
_atom_type_description
_atom_site_fract_x
_atom_site_fract_y
_atom_site_fract_z
_atom_type_partial_charge
C1    C     C_R   0.499871 0.260316 0.499956 0.868598
C2    C     C_R   0.831087 0.536047 0.984605 -0.124770
C3    C     C_R   0.829572 0.410075 0.025620 -0.136636
C4    C     C_R   0.259923 0.501434 0.498169 0.897815
C5    C     C_R   0.858923 0.315098 0.934580 -0.150204
C6    C     C_R   0.890389 0.345651 0.802339 -0.163450
C7    C     C_R   0.893204 0.471824 0.760700 0.152033
C8    C     C_R   0.554679 0.064150 0.397167 0.133263
C9    C     C_R   0.493145 0.128394 0.497830 -0.113986
C10   C     C_R   0.418092 0.064856 0.589225 -0.180967
C11   C     C_R   0.417740 0.934818 0.589360 -0.143767
C12   C     C_R   0.186572 0.425176 0.977906 -0.186064
C13   C     C_R   0.491312 0.871389 0.496943 -0.084567
C14   C     C_R   0.552956 0.935744 0.396144 0.145259
C15   C     C_3   0.686506 0.927044 0.360821 -0.434980
C16   C     C_R   0.498816 0.739614 0.499744 0.905886
C17   C     C_3   0.689223 0.069399 0.364032 -0.496964
C18   C     C_R   0.538926 0.397627 0.072149 0.158295
C19   C     C_R   0.471204 0.605956 0.071153 -0.092564
C20   C     C_R   0.471135 0.605961 0.927361 -0.112284
C21   C     C_R   0.539152 0.397344 0.929987 0.134070
C22   C     C_3   0.487620 0.266481 0.924365 -0.229863
C23   C     C_R   0.930629 0.517164 0.380524 -0.189459
C24   C     C_3   0.488590 0.267502 0.078636 -0.456342
C25   C     C_R   0.740034 0.501209 0.501852 0.864519
C26   C     C_R   0.172951 0.550927 0.015477 -0.217037
C27   C     C_R   0.133749 0.582216 0.145686 0.484838
C28   C     C_R   0.107639 0.484643 0.238090 0.008408
C29   C     C_R   0.120128 0.358698 0.198100 -0.193263
C30   C     C_R   0.158863 0.329313 0.068420 -0.135051
C31   C     C_2   0.576929 0.173291 0.867229 0.442119
C32   C     C_R   0.872546 0.507688 0.504927 -0.108437
C33   C     C_R   0.942816 0.502706 0.626652 -0.006344
C34   C     C_R   0.069221 0.511447 0.619823 -0.260013
C35   C     C_R   0.127316 0.507955 0.495231 -0.100832
C36   C     C_R   0.057114 0.509329 0.373332 0.052593
C37   C     C_R   0.863908 0.567195 0.852581 -0.094007
H1    H     H_    0.219012 0.401523 0.878572 0.152605
H2    H     H_    0.706412 0.111797 0.263525 0.207355
H3    H     H_    0.445261 0.690446 0.124205 0.192364
H4    H     H_    0.193684 0.623660 0.942756 0.168452
H5    H     H_    0.445241 0.690489 0.873011 0.169801
H6    H     H_    0.393496 0.261092 0.877090 0.155254
H7    H     H_    0.395157 0.263762 0.122639 0.215319
H8    H     H_    0.556054 0.201977 0.126671 0.207288
H9    H     H_    0.098302 0.283145 0.267279 0.154883
H10   H     H_    0.168105 0.232011 0.038243 0.163229
H11   H     H_    0.877531 0.523134 0.286849 0.168067
H12   H     H_    0.803974 0.385190 0.127305 0.133449
H13   H     H_    0.122240 0.512766 0.713643 0.171294
H14   H     H_    0.868229 0.665036 0.822542 0.140494
H15   H     H_    0.807846 0.609482 0.055347 0.163521
H16   H     H_    0.648920 0.203994 0.799800 0.083792
H17   H     H_    0.147826 0.778812 0.405184 0.360765
H18   H     H_    0.857635 0.217779 0.966685 0.150417
H19   H     H_    0.915267 0.271365 0.733163 0.127061
H20   H     H_    0.363862 0.115295 0.662373 0.156376
H21   H     H_    0.363851 0.884306 0.663080 0.161905
H22   H     H_    0.744523 0.882794 0.442090 0.202420
H23   H     H_    0.698919 0.887462 0.257918 0.233300
H24   H     H_    0.747597 0.108272 0.448322 0.196515
N1    N     N_R   0.499160 0.499140 0.142800 -0.109626
N2    N     N_R   0.499160 0.499180 0.857150 -0.117270
O1    O     O_R   0.500020 0.316790 0.614690 -0.645724
O2    O     O_2   0.160376 0.826233 0.077802 -0.295605
O3    O     O_2   0.985371 0.770129 0.218848 -0.352509
O4    O     O_3   0.206486 0.772447 0.329878 -0.558453
O5    O     O_R   0.500000 0.316760 0.385350 -0.616620
O6    O     O_R   0.316770 0.500030 0.614670 -0.641919
O7    O     O_R   0.316750 0.499990 0.385330 -0.592111
O8    O     O_R   0.500000 0.683240 0.614650 -0.630799
O9    O     O_R   0.499980 0.683210 0.385310 -0.600151
O10   O     O_R   0.683250 0.500010 0.614670 -0.611426
O11   O     O_R   0.683230 0.499970 0.385330 -0.633673
O12   O     O_2   0.566147 0.061424 0.892268 -0.570176
S1    S     S_3+6 0.118818 0.742367 0.190638 -0.005264
Zn1   Zn    Zn3+2 0.500010 0.500020 0.653130 0.939155
Zn2   Zn    Zn3+2 0.499990 0.499980 0.346870 0.970400

loop_
_geom_bond_atom_site_label_1
_geom_bond_atom_site_label_2
_ccdc_geom_bond_type
O7    Zn2   S    
C18   C21   A    
C15   H23   S    
O6    Zn1   S    
C19   C20   A    
C16   O9    A    
C4    O7    A    
C3    H12   S    
C26   C27   A    
O2    S1    D    
C18   C24   S    
C24   H8    S    
C28   C29   A    
C34   C35   A    
C5    C6    A    
C37   H14   S    
C19   N1    A    
C1    O5    A    
C25   O11   A    
C17   H2    S    
O9    Zn2   S    
C17   H24   S    
C35   C36   A    
C8    C9    A    
C11   H21   S    
C9    C10   A    
C25   C32   S    
C4    C35   S    
C13   C14   A    
C7    C33   S    
C16   O8    A    
C4    O6    A    
N1    Zn2   S    
O5    Zn2   S    
C34   H13   S    
C22   C31   S    
C30   H10   S    
C10   H20   S    
C1    C9    S    
C19   H3    S    
C18   N1    A    
H17   O4    S    
C12   C26   A    
C29   C30   A    
C31   O12   D    
C22   H6    S    
O3    S1    D    
C33   C34   A    
C7    C37   A    
C31   H16   S    
C2    H15   S    
C24   H7    S    
C22   C24   S    
C27   S1    S    
C1    O1    A    
O8    Zn1   S    
N2    Zn1   S    
C15   C17   S    
C8    C14   A    
C23   H11   S    
C12   C30   A    
C15   H22   S    
C5    H18   S    
C6    H19   S    
C3    C5    A    
C20   H5    S    
C6    C7    A    
C8    C17   S    
C29   H9    S    
C23   C32   A    
C20   N2    A    
C2    C3    A    
C32   C33   A    
C11   C13   A    
C2    C37   A    
C25   O10   A    
C12   H1    S    
C21   N2    A    
C10   C11   A    
C28   C36   S    
C23   C36   A    
O11   Zn2   S    
C13   C16   S    
C27   C28   A    
O1    Zn1   S    
O10   Zn1   S    
C14   C15   S    
O4    S1    S    
C21   C22   S    
C26   H4    S    
