data_mof_unit_22538.cif
_audit_creation_date              2012-12-10T18:24:01-0500
_audit_creation_method            fapswitch 2.2
_symmetry_space_group_name_H-M    P1
_symmetry_Int_Tables_number       1
_space_group_crystal_system       triclinic
_cell_length_a                    22.754468
_cell_length_b                    22.174065
_cell_length_c                    14.668011
_cell_angle_alpha                 90.0011
_cell_angle_beta                  88.834903
_cell_angle_gamma                 89.999978
_cell_volume                      7399.34763976

loop_
_atom_site_label
_atom_site_type_symbol
_atom_type_description
_atom_site_fract_x
_atom_site_fract_y
_atom_site_fract_z
_atom_type_partial_charge
C1    C     C_R   0.419617 0.919977 0.500636 0.828323
C2    C     C_R   0.580383 0.080023 0.499364 0.828323
C3    C     C_R   0.580383 0.919977 0.499362 0.828320
C4    C     C_R   0.419617 0.080023 0.500637 0.828324
C5    C     C_R   0.919617 0.419977 0.500636 0.828323
C6    C     C_R   0.080383 0.580023 0.499364 0.828324
C7    C     C_R   0.080383 0.419977 0.499363 0.828323
C8    C     C_R   0.919617 0.580023 0.500637 0.828324
C9    C     C_1   0.335967 0.161043 0.504193 -0.069552
C10   C     C_1   0.664033 0.838957 0.495804 -0.069545
C11   C     C_1   0.664032 0.161043 0.495810 -0.069547
C12   C     C_1   0.335967 0.838958 0.504190 -0.069552
C13   C     C_1   0.835966 0.661041 0.504196 -0.069553
C14   C     C_1   0.164034 0.338959 0.495805 -0.069545
C15   C     C_1   0.164032 0.661044 0.495810 -0.069557
C16   C     C_1   0.835966 0.338958 0.504190 -0.069552
C17   C     C_1   0.499971 0.999999 0.194606 0.058764
C18   C     C_1   0.500029 0.000000 0.805394 0.058761
C19   C     C_1   0.999970 0.500001 0.194606 0.058767
C20   C     C_1   0.000029 0.500000 0.805394 0.058764
C21   C     C_3   0.527967 0.049229 0.968448 -0.023758
C22   C     C_3   0.472033 0.950768 0.031552 -0.023761
C23   C     C_3   0.472024 0.049222 0.031560 -0.023738
C24   C     C_3   0.527976 0.950775 0.968440 -0.023740
C25   C     C_3   0.027971 0.549228 0.968445 -0.023749
C26   C     C_3   0.972027 0.450776 0.031555 -0.023747
C27   C     C_3   0.972028 0.549229 0.031556 -0.023754
C28   C     C_3   0.027970 0.450774 0.968444 -0.023753
C29   C     C_3   0.702048 0.732772 0.544054 0.294610
C30   C     C_3   0.297954 0.267230 0.455950 0.294610
C31   C     C_3   0.297950 0.732770 0.455948 0.294603
C32   C     C_3   0.702046 0.267233 0.544047 0.294609
C33   C     C_3   0.202048 0.232772 0.544048 0.294610
C34   C     C_3   0.797951 0.767226 0.455947 0.294610
C35   C     C_3   0.797952 0.232769 0.455953 0.294609
C36   C     C_3   0.202048 0.767232 0.544052 0.294602
C37   C     C_3   0.229221 0.198587 0.461578 -0.295149
C38   C     C_3   0.770780 0.801415 0.538415 -0.295150
C39   C     C_3   0.770778 0.198588 0.538424 -0.295151
C40   C     C_3   0.229220 0.801415 0.461582 -0.295146
C41   C     C_3   0.729218 0.698582 0.461587 -0.295150
C42   C     C_3   0.270781 0.301416 0.538419 -0.295154
C43   C     C_3   0.270778 0.698587 0.538419 -0.295142
C44   C     C_3   0.729220 0.301413 0.461575 -0.295148
C45   C     C_1   0.374179 0.123944 0.502412 -0.194693
C46   C     C_1   0.625821 0.876056 0.497587 -0.194689
C47   C     C_1   0.625820 0.123944 0.497591 -0.194684
C48   C     C_1   0.374180 0.876056 0.502409 -0.194690
C49   C     C_1   0.874179 0.623943 0.502413 -0.194690
C50   C     C_1   0.125821 0.376057 0.497587 -0.194680
C51   C     C_1   0.125820 0.623945 0.497592 -0.194702
C52   C     C_1   0.874179 0.376056 0.502409 -0.194691
C53   C     C_3   0.262360 0.239978 0.588103 -0.000397
C54   C     C_3   0.737639 0.760018 0.411896 -0.000400
C55   C     C_3   0.737641 0.239973 0.411896 -0.000397
C56   C     C_3   0.262360 0.760026 0.588104 -0.000397
C57   C     C_3   0.762360 0.739980 0.588106 -0.000396
C58   C     C_3   0.237642 0.260025 0.411894 -0.000398
C59   C     C_3   0.237638 0.739977 0.411896 -0.000395
C60   C     C_3   0.762357 0.260028 0.588104 -0.000398
C61   C     C_3   0.290195 0.206706 0.505288 0.034858
C62   C     C_3   0.709805 0.793294 0.494709 0.034852
C63   C     C_3   0.709805 0.206706 0.494713 0.034852
C64   C     C_3   0.290194 0.793296 0.505288 0.034853
C65   C     C_3   0.790193 0.706704 0.505292 0.034857
C66   C     C_3   0.209807 0.293296 0.494710 0.034849
C67   C     C_3   0.209804 0.706707 0.494712 0.034862
C68   C     C_3   0.790194 0.293296 0.505287 0.034857
C69   C     C_3   0.555546 0.000003 0.029556 -0.017662
C70   C     C_3   0.444454 0.999993 0.970444 -0.017662
C71   C     C_3   0.055544 0.500002 0.029556 -0.017658
C72   C     C_3   0.944453 0.500002 0.970444 -0.017658
C73   C     C_3   0.499803 0.999996 0.092783 -0.058600
C74   C     C_3   0.500197 0.000000 0.907217 -0.058598
C75   C     C_3   0.999802 0.500003 0.092783 -0.058600
C76   C     C_3   0.000196 0.500001 0.907217 -0.058599
Cu1   Cu    Cu3+1 0.500000 1.000000 0.590220 0.952484
Cu2   Cu    Cu3+1 0.500000 0.000000 0.409780 0.952488
Cu3   Cu    Cu3+1 0.000000 0.500000 0.590220 0.952487
Cu4   Cu    Cu3+1 0.000000 0.500000 0.409780 0.952487
H1    H     H_    0.211839 0.156304 0.431868 0.146486
H2    H     H_    0.788163 0.843699 0.568121 0.146492
H3    H     H_    0.788159 0.156307 0.568139 0.146491
H4    H     H_    0.211838 0.843698 0.431871 0.146497
H5    H     H_    0.711836 0.656298 0.431881 0.146488
H6    H     H_    0.288162 0.343699 0.568131 0.146491
H7    H     H_    0.288160 0.656304 0.568129 0.146492
H8    H     H_    0.711839 0.343695 0.431861 0.146488
N1    N     N_1   0.499980 1.000000 0.274190 -0.169865
N2    N     N_1   0.500020 0.000000 0.725810 -0.169866
N3    N     N_1   0.999980 0.500000 0.274190 -0.169865
N4    N     N_1   0.000020 0.500000 0.725810 -0.169864
O1    O     O_R   0.439540 0.939530 0.576170 -0.574827
O2    O     O_R   0.560460 0.060470 0.423830 -0.574821
O3    O     O_R   0.560460 0.939530 0.423830 -0.574835
O4    O     O_R   0.439540 0.060470 0.576170 -0.574834
O5    O     O_R   0.939540 0.439530 0.576170 -0.574829
O6    O     O_R   0.060460 0.560470 0.423830 -0.574839
O7    O     O_R   0.060460 0.439530 0.423830 -0.574820
O8    O     O_R   0.939540 0.560470 0.576170 -0.574829
O9    O     O_R   0.439530 0.939530 0.423800 -0.574055
O10   O     O_R   0.560470 0.060470 0.576200 -0.574054
O11   O     O_R   0.560470 0.939530 0.576200 -0.574051
O12   O     O_R   0.439530 0.060470 0.423800 -0.574049
O13   O     O_R   0.939530 0.439530 0.423800 -0.574052
O14   O     O_R   0.060470 0.560470 0.576200 -0.574050
O15   O     O_R   0.060470 0.439530 0.576200 -0.574055
O16   O     O_R   0.939530 0.560470 0.423800 -0.574054
C77   C     C_R   0.379604 0.999989 0.949226 0.108945
C78   C     C_R   0.338401 0.999964 0.021984 -0.121052
C79   C     C_R   0.278156 0.999957 0.005317 -0.145663
C80   C     C_R   0.258358 0.999978 0.915854 -0.109703
C81   C     C_R   0.298809 0.000007 0.843010 -0.166495
C82   C     C_R   0.359136 0.000013 0.859403 -0.188056
H9    H     H_    0.353010 0.999948 0.091812 0.124364
H10   H     H_    0.246822 0.999936 0.061823 0.123875
H11   H     H_    0.211696 0.999974 0.902962 0.123624
H12   H     H_    0.283426 0.000026 0.773658 0.132974
H13   H     H_    0.388870 0.000038 0.801476 0.152046
C83   C     C_R   0.620396 0.000006 0.050773 0.108949
C84   C     C_R   0.661599 0.000037 0.978014 -0.121053
C85   C     C_R   0.721843 0.000043 0.994681 -0.145661
C86   C     C_R   0.741643 0.000014 0.084145 -0.109713
C87   C     C_R   0.701192 0.999979 0.156990 -0.166527
C88   C     C_R   0.640865 0.999974 0.140597 -0.188051
H14   H     H_    0.646989 0.000058 0.908187 0.124365
H15   H     H_    0.753177 0.000069 0.938174 0.123875
H16   H     H_    0.788304 0.000018 0.097036 0.123627
H17   H     H_    0.716575 0.999954 0.226342 0.132974
H18   H     H_    0.611131 0.999942 0.198525 0.152048
C89   C     C_R   0.879603 0.500004 0.949225 0.108949
C90   C     C_R   0.838399 0.500003 0.021983 -0.121048
C91   C     C_R   0.778155 0.500006 0.005315 -0.145666
C92   C     C_R   0.758357 0.500011 0.915852 -0.109707
C93   C     C_R   0.798809 0.500013 0.843009 -0.166498
C94   C     C_R   0.859135 0.500010 0.859402 -0.188052
H19   H     H_    0.853009 0.499999 0.091810 0.124362
H20   H     H_    0.746821 0.500005 0.061821 0.123873
H21   H     H_    0.711695 0.500014 0.902960 0.123624
H22   H     H_    0.783426 0.500017 0.773657 0.132974
H23   H     H_    0.888869 0.500012 0.801475 0.152046
C95   C     C_R   0.120394 0.500005 0.050773 0.108950
C96   C     C_R   0.161598 0.499984 0.978014 -0.121051
C97   C     C_R   0.221842 0.499988 0.994680 -0.145662
C98   C     C_R   0.241641 0.500015 0.084144 -0.109702
C99   C     C_R   0.201190 0.500038 0.156989 -0.166497
C100  C     C_R   0.140864 0.500034 0.140597 -0.188053
H24   H     H_    0.146988 0.499965 0.908187 0.124361
H25   H     H_    0.253176 0.499970 0.938173 0.123874
H26   H     H_    0.288303 0.500018 0.097035 0.123623
H27   H     H_    0.216574 0.500061 0.226341 0.132973
H28   H     H_    0.111130 0.500057 0.198526 0.152045
N5    N     N_2   0.648114 0.715621 0.591511 -0.429133
H29   H     H_    0.611047 0.726744 0.555919 0.252268
C101  C     C_3   0.646368 0.654488 0.625661 -0.706426
H30   H     H_    0.605083 0.647529 0.665921 0.225818
H31   H     H_    0.683839 0.645768 0.670926 0.244584
H32   H     H_    0.647557 0.621895 0.568139 0.217136
N6    N     N_2   0.351889 0.284383 0.408498 -0.429123
H33   H     H_    0.388955 0.273254 0.444088 0.252270
C102  C     C_3   0.353639 0.345519 0.374363 -0.706422
H34   H     H_    0.394925 0.352480 0.334105 0.225822
H35   H     H_    0.352451 0.378106 0.431893 0.217134
H36   H     H_    0.316169 0.354246 0.329099 0.244579
N7    N     N_2   0.351883 0.715614 0.408493 -0.429138
H37   H     H_    0.388951 0.726734 0.444086 0.252267
C103  C     C_3   0.353624 0.654480 0.374341 -0.706419
H38   H     H_    0.394908 0.647517 0.334080 0.225816
H39   H     H_    0.316151 0.645763 0.329076 0.244588
H40   H     H_    0.352432 0.621888 0.431862 0.217137
N8    N     N_2   0.648111 0.284389 0.591496 -0.429129
H41   H     H_    0.611045 0.273262 0.555905 0.252268
C104  C     C_3   0.646365 0.345526 0.625633 -0.706415
H42   H     H_    0.605080 0.352490 0.665891 0.225819
H43   H     H_    0.647554 0.378112 0.568103 0.217133
H44   H     H_    0.683836 0.354252 0.670896 0.244584
N9    N     N_2   0.148114 0.215619 0.591499 -0.429131
H45   H     H_    0.111047 0.226744 0.555907 0.252269
C105  C     C_3   0.146367 0.154484 0.625642 -0.706423
H46   H     H_    0.105082 0.147523 0.665900 0.225819
H47   H     H_    0.183838 0.145761 0.670907 0.244584
H48   H     H_    0.147557 0.121894 0.568116 0.217135
N10   N     N_2   0.851885 0.784377 0.408491 -0.429128
H49   H     H_    0.888952 0.773252 0.444082 0.252269
C106  C     C_3   0.853632 0.845510 0.374343 -0.706426
H50   H     H_    0.894916 0.852469 0.334081 0.225820
H51   H     H_    0.852444 0.878102 0.431866 0.217135
H52   H     H_    0.816159 0.854232 0.329080 0.244581
N11   N     N_2   0.851887 0.215613 0.408504 -0.429123
H53   H     H_    0.888953 0.226741 0.444095 0.252269
C107  C     C_3   0.853635 0.154475 0.374369 -0.706417
H54   H     H_    0.894921 0.147511 0.334113 0.225821
H55   H     H_    0.816165 0.145748 0.329104 0.244581
H56   H     H_    0.852445 0.121890 0.431899 0.217133
N12   N     N_2   0.148114 0.784388 0.591507 -0.429129
H57   H     H_    0.111047 0.773264 0.555916 0.252269
C108  C     C_3   0.146370 0.845523 0.625652 -0.706416
H58   H     H_    0.105086 0.852486 0.665912 0.225819
H59   H     H_    0.147561 0.878112 0.568127 0.217135
H60   H     H_    0.183842 0.854244 0.670916 0.244585
C109  C     C_R   0.728679 0.767815 0.311179 0.136569
C110  C     C_R   0.749834 0.723252 0.250913 -0.125203
C111  C     C_R   0.744331 0.730358 0.156908 -0.159969
C112  C     C_R   0.718835 0.782557 0.122167 -0.132609
C113  C     C_R   0.697506 0.827114 0.181456 -0.136039
C114  C     C_R   0.702308 0.819877 0.275720 -0.172733
H61   H     H_    0.770888 0.683086 0.276690 0.125994
H62   H     H_    0.760438 0.695594 0.111097 0.136533
H63   H     H_    0.715615 0.788474 0.049341 0.129660
H64   H     H_    0.677605 0.867433 0.154280 0.154227
H65   H     H_    0.686870 0.855644 0.320017 0.140896
C115  C     C_R   0.271318 0.232177 0.688820 0.136547
C116  C     C_R   0.250154 0.276731 0.749089 -0.125189
C117  C     C_R   0.255656 0.269622 0.843094 -0.159975
C118  C     C_R   0.281162 0.217430 0.877831 -0.132611
C119  C     C_R   0.302501 0.172882 0.818538 -0.136028
C120  C     C_R   0.297698 0.180122 0.724274 -0.172735
H66   H     H_    0.229092 0.316891 0.723315 0.126004
H67   H     H_    0.239542 0.304380 0.888907 0.136529
H68   H     H_    0.284383 0.211511 0.950657 0.129667
H69   H     H_    0.322410 0.132568 0.845711 0.154226
H70   H     H_    0.313146 0.144363 0.679975 0.140908
C121  C     C_R   0.271323 0.767831 0.688820 0.136534
C122  C     C_R   0.250157 0.723281 0.749092 -0.125189
C123  C     C_R   0.255664 0.730393 0.843096 -0.159986
C124  C     C_R   0.281177 0.782584 0.877829 -0.132609
C125  C     C_R   0.302517 0.827127 0.818533 -0.136018
C126  C     C_R   0.297710 0.819884 0.724270 -0.172729
H71   H     H_    0.229090 0.683122 0.723321 0.126005
H72   H     H_    0.239549 0.695639 0.888911 0.136536
H73   H     H_    0.284403 0.788505 0.950654 0.129669
H74   H     H_    0.322432 0.867439 0.845703 0.154237
H75   H     H_    0.313159 0.855639 0.679969 0.140920
C127  C     C_R   0.728680 0.232163 0.311180 0.136549
C128  C     C_R   0.749831 0.276719 0.250906 -0.125202
C129  C     C_R   0.744324 0.269603 0.156903 -0.159983
C130  C     C_R   0.718827 0.217403 0.122172 -0.132617
C131  C     C_R   0.697503 0.172854 0.181471 -0.136020
C132  C     C_R   0.702310 0.180100 0.275733 -0.172723
H76   H     H_    0.770885 0.316885 0.276674 0.125997
H77   H     H_    0.760427 0.304362 0.111085 0.136521
H78   H     H_    0.715603 0.211480 0.049348 0.129673
H79   H     H_    0.677601 0.132535 0.154303 0.154252
H80   H     H_    0.686874 0.144341 0.320036 0.140911
C133  C     C_R   0.228680 0.267831 0.311179 0.136560
C134  C     C_R   0.249818 0.223268 0.250905 -0.125213
C135  C     C_R   0.244311 0.230382 0.156902 -0.159974
C136  C     C_R   0.218827 0.282588 0.122171 -0.132628
C137  C     C_R   0.197515 0.327145 0.181469 -0.136026
C138  C     C_R   0.202322 0.319901 0.275732 -0.172715
H81   H     H_    0.270863 0.183096 0.276673 0.125990
H82   H     H_    0.260405 0.195617 0.111084 0.136526
H83   H     H_    0.215604 0.288510 0.049347 0.129671
H84   H     H_    0.177623 0.367469 0.154301 0.154245
H85   H     H_    0.186897 0.355666 0.320035 0.140903
C139  C     C_R   0.771322 0.732181 0.688822 0.136538
C140  C     C_R   0.750160 0.776737 0.749090 -0.125189
C141  C     C_R   0.755666 0.769630 0.843094 -0.159973
C142  C     C_R   0.781173 0.717439 0.877833 -0.132626
C143  C     C_R   0.802509 0.672890 0.818542 -0.136022
C144  C     C_R   0.797704 0.680127 0.724278 -0.172730
H86   H     H_    0.729097 0.816896 0.723315 0.126008
H87   H     H_    0.739554 0.804389 0.888907 0.136541
H88   H     H_    0.784396 0.711522 0.950659 0.129671
H89   H     H_    0.822420 0.632577 0.845716 0.154233
H90   H     H_    0.813150 0.644368 0.679980 0.140912
C145  C     C_R   0.771315 0.267836 0.688820 0.136542
C146  C     C_R   0.750147 0.223287 0.749092 -0.125184
C147  C     C_R   0.755650 0.230401 0.843096 -0.159983
C148  C     C_R   0.781160 0.282593 0.877830 -0.132604
C149  C     C_R   0.802501 0.327136 0.818534 -0.136022
C150  C     C_R   0.797698 0.319891 0.724271 -0.172733
H91   H     H_    0.729083 0.183126 0.723321 0.126007
H92   H     H_    0.739535 0.195647 0.888912 0.136523
H93   H     H_    0.784381 0.288515 0.950655 0.129670
H94   H     H_    0.822413 0.367450 0.845704 0.154236
H95   H     H_    0.813148 0.355647 0.679970 0.140914
C151  C     C_R   0.228680 0.732177 0.311179 0.136522
C152  C     C_R   0.249869 0.776720 0.250912 -0.125166
C153  C     C_R   0.244364 0.769614 0.156907 -0.159984
C154  C     C_R   0.218829 0.717436 0.122167 -0.132588
C155  C     C_R   0.197466 0.672900 0.181457 -0.136017
C156  C     C_R   0.202271 0.680137 0.275721 -0.172748
H96   H     H_    0.270951 0.816869 0.276689 0.126021
H97   H     H_    0.260496 0.804363 0.111096 0.136536
H98   H     H_    0.215605 0.711520 0.049341 0.129665
H99   H     H_    0.177535 0.632598 0.154282 0.154220
H100  H     H_    0.186802 0.644387 0.320018 0.140923
C157  C     C_R   0.440140 0.107108 0.056847 0.100179
C158  C     C_R   0.427449 0.148804 0.987737 -0.111890
C159  C     C_R   0.403539 0.205134 0.009540 -0.157223
C160  C     C_R   0.389893 0.219616 0.100107 -0.124383
C161  C     C_R   0.399844 0.177596 0.168953 -0.131683
C162  C     C_R   0.424854 0.121608 0.147630 -0.171217
H101  H     H_    0.437803 0.138404 0.917072 0.133188
H102  H     H_    0.395823 0.237688 0.956156 0.142464
H103  H     H_    0.371228 0.263223 0.116875 0.144534
H104  H     H_    0.388580 0.188587 0.239078 0.153390
H105  H     H_    0.431861 0.090397 0.202503 0.149231
C163  C     C_R   0.559858 0.892887 0.943154 0.100184
C164  C     C_R   0.572554 0.851195 0.012267 -0.111880
C165  C     C_R   0.596457 0.794862 0.990467 -0.157218
C166  C     C_R   0.610090 0.780371 0.899899 -0.124392
C167  C     C_R   0.600133 0.822387 0.831049 -0.131699
C168  C     C_R   0.575131 0.878378 0.852369 -0.171224
H106  H     H_    0.562209 0.861601 0.082933 0.133185
H107  H     H_    0.604176 0.762311 0.043854 0.142466
H108  H     H_    0.628750 0.736761 0.883133 0.144526
H109  H     H_    0.611387 0.811389 0.760923 0.153393
H110  H     H_    0.568117 0.909585 0.797493 0.149236
C169  C     C_R   0.559839 0.107123 0.943172 0.100156
C170  C     C_R   0.572532 0.148812 0.012294 -0.111879
C171  C     C_R   0.596435 0.205147 0.990505 -0.157211
C172  C     C_R   0.610068 0.219643 0.899940 -0.124403
C173  C     C_R   0.600112 0.177631 0.831080 -0.131695
C174  C     C_R   0.575110 0.121638 0.852389 -0.171255
H111  H     H_    0.562187 0.138401 0.082958 0.133195
H112  H     H_    0.604154 0.237694 0.043899 0.142468
H113  H     H_    0.628729 0.263254 0.883183 0.144514
H114  H     H_    0.611365 0.188634 0.760956 0.153385
H115  H     H_    0.568096 0.090435 0.797507 0.149234
C175  C     C_R   0.440163 0.892872 0.056830 0.100168
C176  C     C_R   0.427469 0.851184 0.987709 -0.111881
C177  C     C_R   0.403571 0.794847 0.009499 -0.157211
C178  C     C_R   0.389944 0.780349 0.100066 -0.124405
C179  C     C_R   0.399902 0.822360 0.168925 -0.131708
C180  C     C_R   0.424898 0.878355 0.147614 -0.171253
H116  H     H_    0.437809 0.861596 0.917045 0.133185
H117  H     H_    0.395851 0.762300 0.956106 0.142466
H118  H     H_    0.371288 0.736736 0.116824 0.144509
H119  H     H_    0.388654 0.811356 0.239050 0.153387
H120  H     H_    0.431914 0.909558 0.202496 0.149235
C181  C     C_R   0.940149 0.607120 0.056842 0.100171
C182  C     C_R   0.927459 0.648814 0.987730 -0.111892
C183  C     C_R   0.903553 0.705146 0.009531 -0.157226
C184  C     C_R   0.889910 0.719632 0.100098 -0.124381
C185  C     C_R   0.899862 0.677613 0.168947 -0.131691
C186  C     C_R   0.924868 0.621624 0.147626 -0.171242
H121  H     H_    0.937810 0.638411 0.917065 0.133191
H122  H     H_    0.895837 0.737698 0.956145 0.142465
H123  H     H_    0.871247 0.763240 0.116864 0.144527
H124  H     H_    0.888601 0.688608 0.239072 0.153395
H125  H     H_    0.931876 0.590414 0.202500 0.149230
C187  C     C_R   0.059846 0.392882 0.943163 0.100156
C188  C     C_R   0.072539 0.351192 0.012279 -0.111875
C189  C     C_R   0.096442 0.294858 0.990484 -0.157213
C190  C     C_R   0.110077 0.280365 0.899917 -0.124398
C191  C     C_R   0.100123 0.322379 0.831063 -0.131695
C192  C     C_R   0.075120 0.378371 0.852379 -0.171251
H126  H     H_    0.062193 0.361601 0.082944 0.133199
H127  H     H_    0.104161 0.262309 0.043873 0.142468
H128  H     H_    0.128738 0.236754 0.883155 0.144521
H129  H     H_    0.111378 0.311379 0.760939 0.153391
H130  H     H_    0.068109 0.409576 0.797501 0.149234
C193  C     C_R   0.059849 0.607118 0.943161 0.100182
C194  C     C_R   0.072536 0.648815 0.012272 -0.111907
C195  C     C_R   0.096441 0.705147 0.990471 -0.157222
C196  C     C_R   0.110084 0.719631 0.899905 -0.124398
C197  C     C_R   0.100136 0.677609 0.831057 -0.131697
C198  C     C_R   0.075133 0.621619 0.852378 -0.171216
H131  H     H_    0.062184 0.638415 0.082936 0.133181
H132  H     H_    0.104155 0.737702 0.043856 0.142461
H133  H     H_    0.128746 0.763239 0.883139 0.144525
H134  H     H_    0.111398 0.688601 0.760933 0.153383
H135  H     H_    0.068127 0.590407 0.797505 0.149228
C199  C     C_R   0.940147 0.392886 0.056836 0.100168
C200  C     C_R   0.927455 0.351193 0.987721 -0.111886
C201  C     C_R   0.903547 0.294862 0.009516 -0.157216
C202  C     C_R   0.889906 0.280374 0.100082 -0.124396
C203  C     C_R   0.899859 0.322392 0.168935 -0.131686
C204  C     C_R   0.924867 0.378381 0.147619 -0.171232
H136  H     H_    0.937805 0.361597 0.917057 0.133190
H137  H     H_    0.895829 0.262311 0.956128 0.142465
H138  H     H_    0.871241 0.236766 0.116844 0.144526
H139  H     H_    0.888599 0.311396 0.239058 0.153385
H140  H     H_    0.931877 0.409589 0.202496 0.149231

loop_
_geom_bond_atom_site_label_1
_geom_bond_atom_site_label_2
_ccdc_geom_bond_type
C133  C138  A    
C195  C196  A    
C159  C160  A    
C185  C186  A    
C171  H112  S    
C5    O13   A    
C181  C182  A    
C20   N4    T    
C155  C156  A    
C7    O7    A    
C130  H78   S    
C24   C69   S    
C198  H135  S    
C24   C163  S    
C96   C97   A    
C168  H110  S    
C31   C59   S    
C108  H59   S    
C78   C79   A    
C202  H138  S    
C4    O4    A    
C182  H121  S    
C121  C122  A    
C177  C178  A    
C70   C74   S    
C109  C114  A    
N6    C102  S    
C179  C180  A    
C42   H6    S    
C15   C51   T    
C134  H81   S    
C133  C134  A    
C101  H32   S    
C37   H1    S    
C160  H103  S    
C149  H94   S    
C27   C75   S    
C201  C202  A    
C102  H35   S    
C98   C99   A    
Cu2   N1    S    
C110  C111  A    
C176  C177  A    
C17   N1    T    
C83   C88   A    
C184  C185  A    
C172  C173  A    
C164  C165  A    
C33   N9    S    
C118  C119  A    
C94   H23   S    
C38   C57   S    
N8    C104  S    
C145  C150  A    
C166  C167  A    
C6    O14   A    
N8    H41   S    
C34   C54   S    
Cu1   O11   S    
C28   C71   S    
C60   C145  S    
C1    O9    A    
C163  C164  A    
C99   C100  A    
C3    O11   A    
C154  H98   S    
C187  C192  A    
C156  H100  S    
C182  C183  A    
Cu3   O5    S    
C58   C133  S    
C97   C98   A    
C28   C187  S    
C1    C48   S    
C2    C47   S    
C26   C199  S    
C3    C46   S    
C123  H72   S    
C25   C76   S    
C57   C139  S    
C96   H24   S    
C107  H56   S    
C144  H90   S    
C122  H71   S    
C44   C55   S    
C80   H11   S    
Cu2   O2    S    
C39   C60   S    
C4    O12   A    
C191  C192  A    
C183  C184  A    
C115  C116  A    
C1    O1    A    
C204  H140  S    
C30   C61   S    
C101  H30   S    
C3    O3    A    
C118  H68   S    
C199  C204  A    
C149  C150  A    
C38   C62   S    
C163  C168  A    
C128  H76   S    
C85   H15   S    
C79   C80   A    
C203  C204  A    
C106  H50   S    
C86   C87   A    
C103  H39   S    
C14   C50   T    
C117  C118  A    
C137  C138  A    
C97   H25   S    
C31   C43   S    
C147  H92   S    
C9    C61   S    
C164  H106  S    
C11   C63   S    
C42   C53   S    
C12   C64   S    
C106  H51   S    
C2    O10   A    
C186  H125  S    
C129  C130  A    
C140  C141  A    
C188  H126  S    
N11   C107  S    
C22   C73   S    
C59   C67   S    
C190  H128  S    
C153  H97   S    
C53   C61   S    
C31   N7    S    
C27   C181  S    
C55   C63   S    
C56   C64   S    
C197  H134  S    
C25   C71   S    
C98   H26   S    
C199  C200  A    
C155  H99   S    
N7    C103  S    
C130  C131  A    
C17   C73   S    
C23   C70   S    
C178  C179  A    
C33   C66   S    
C157  C158  A    
C4    C45   S    
C104  H43   S    
C32   C44   S    
C30   N6    S    
Cu2   O12   S    
C2    O2    A    
C153  C154  A    
C89   C94   A    
C92   H21   S    
C136  H83   S    
C177  H117  S    
C131  H79   S    
N12   H57   S    
Cu3   O14   S    
C21   C69   S    
C129  H77   S    
C161  C162  A    
C152  C153  A    
C15   C67   S    
C26   C75   S    
C34   N10   S    
C126  H75   S    
C200  H136  S    
C77   C82   A    
C5    O5    A    
C151  C156  A    
Cu4   O7    S    
C7    O15   A    
C59   C151  S    
C55   C127  S    
C197  C198  A    
C83   C84   A    
C172  H113  S    
C193  C194  A    
C134  C135  A    
C22   C175  S    
C29   C41   S    
C148  C149  A    
C148  H93   S    
C135  H82   S    
C7    C50   S    
C143  C144  A    
C23   C157  S    
C56   C121  S    
C145  C146  A    
C166  H108  S    
C54   C109  S    
C111  H62   S    
Cu4   O16   S    
Cu1   O4    S    
C110  H61   S    
C141  C142  A    
C8    O8    A    
C162  H105  S    
C113  H64   S    
C53   C115  S    
C78   H9    S    
C108  H58   S    
C99   H27   S    
C137  H84   S    
C187  C188  A    
C43   C67   S    
C124  C125  A    
C151  C152  A    
C139  C144  A    
C192  H130  S    
C22   C70   S    
N12   C108  S    
C9    C45   T    
C101  H31   S    
C26   C72   S    
C40   H4    S    
C11   C47   T    
C12   C48   T    
C122  C123  A    
C102  H34   S    
C93   C94   A    
C10   C62   S    
C116  C117  A    
C150  H95   S    
C6    O6    A    
C183  H122  S    
C115  C120  A    
C138  H85   S    
C158  C159  A    
C119  H69   S    
C165  C166  A    
N5    H29   S    
C141  H87   S    
C112  H63   S    
C128  C129  A    
C69   C73   S    
C79   H10   S    
N5    C101  S    
C203  H139  S    
C105  H48   S    
C175  C176  A    
C91   H20   S    
C35   N11   S    
C147  C148  A    
C38   H2    S    
Cu1   O10   S    
C167  H109  S    
C95   C100  A    
C93   H22   S    
Cu1   N2    S    
C140  H86   S    
C18   N2    T    
Cu3   O8    S    
C189  H127  S    
C142  H88   S    
C190  C191  A    
C54   C62   S    
C113  C114  A    
C165  H107  S    
C33   C37   S    
C107  H54   S    
C108  H60   S    
C35   C39   S    
C107  H55   S    
C36   C56   S    
N6    H33   S    
Cu2   O3    S    
C116  H66   S    
C173  H114  S    
Cu3   O15   S    
C178  H118  S    
C152  H96   S    
C84   C85   A    
C92   C93   A    
C32   N8    S    
C29   C57   S    
C174  H115  S    
C21   C23   S    
C91   C92   A    
C22   C24   S    
C127  C128  A    
C32   C60   S    
C89   C90   A    
C28   C76   S    
C103  H38   S    
C102  H36   S    
C41   H5    S    
C136  C137  A    
C72   C89   S    
C81   C82   A    
C120  H70   S    
C131  C132  A    
Cu4   O6    S    
C16   C52   T    
C57   C65   S    
C69   C83   S    
C157  C162  A    
Cu4   N3    S    
C159  H102  S    
C90   H19   S    
C39   H3    S    
C77   C78   A    
C171  C172  A    
C201  H137  S    
C181  C186  A    
Cu1   O1    S    
C87   H17   S    
N11   H53   S    
C19   N3    T    
C105  H46   S    
C146  C147  A    
C60   C68   S    
N9    H45   S    
C21   C169  S    
C95   C96   A    
C30   C42   S    
C143  H89   S    
C8    C49   S    
C27   C72   S    
C169  C170  A    
N7    H37   S    
C109  C110  A    
C200  C201  A    
C72   C76   S    
C86   H16   S    
C36   C67   S    
C13   C65   S    
C104  H42   S    
C170  C171  A    
C160  C161  A    
C117  H67   S    
N10   C106  S    
C180  H120  S    
C124  H73   S    
C161  H104  S    
C20   C76   S    
C176  H116  S    
C114  H65   S    
C58   C66   S    
Cu2   O9    S    
C125  C126  A    
C90   C91   A    
C146  H91   S    
C10   C46   T    
C5    C52   S    
C132  H80   S    
C16   C68   S    
C6    C51   S    
C37   C58   S    
Cu4   O13   S    
Cu1   Cu2   S    
C125  H74   S    
C18   C74   S    
C40   C59   S    
C169  C174  A    
C23   C73   S    
C8    O16   A    
C34   C65   S    
C80   C81   A    
C191  H129  S    
C103  H40   S    
C33   C53   S    
C35   C55   S    
C158  H101  S    
C36   C40   S    
C119  C120  A    
C121  C126  A    
C106  H52   S    
C41   C65   S    
N9    C105  S    
C154  C155  A    
C185  H124  S    
C21   C74   S    
C81   H12   S    
N10   H49   S    
C184  H123  S    
C70   C77   S    
C175  C180  A    
C139  C140  A    
C123  C124  A    
C14   C66   S    
C196  H133  S    
C112  C113  A    
Cu3   N4    S    
C71   C95   S    
C13   C49   T    
C167  C168  A    
C44   C68   S    
C142  C143  A    
C29   N5    S    
C202  C203  A    
C104  H44   S    
C195  H132  S    
C29   C62   S    
C34   C38   S    
C31   C64   S    
C25   C193  S    
C82   H13   S    
C32   C63   S    
C37   C61   S    
C135  C136  A    
C25   C27   S    
C39   C63   S    
C26   C28   S    
C40   C64   S    
C43   H7    S    
C19   C75   S    
C100  H28   S    
C85   C86   A    
C36   N12   S    
C173  C174  A    
C84   H14   S    
C71   C75   S    
C24   C74   S    
C189  C190  A    
C35   C68   S    
C194  H131  S    
C30   C58   S    
C194  C195  A    
C193  C198  A    
C127  C132  A    
C196  C197  A    
C41   C54   S    
C88   H18   S    
Cu3   Cu4   S    
C43   C56   S    
C179  H119  S    
C42   C66   S    
C170  H111  S    
C111  C112  A    
C188  C189  A    
C44   H8    S    
C87   C88   A    
C105  H47   S    
