data_mof_unit_21424.cif
_audit_creation_date              2012-12-10T16:58:26-0500
_audit_creation_method            fapswitch 2.2
_symmetry_space_group_name_H-M    P1
_symmetry_Int_Tables_number       1
_space_group_crystal_system       triclinic
_cell_length_a                    7.758312
_cell_length_b                    8.547081
_cell_length_c                    23.357587
_cell_angle_alpha                 91.023914
_cell_angle_beta                  85.684259
_cell_angle_gamma                 94.156147
_cell_volume                      1540.28967347

loop_
_atom_site_label
_atom_site_type_symbol
_atom_type_description
_atom_site_fract_x
_atom_site_fract_y
_atom_site_fract_z
_atom_type_partial_charge
C1    C     C_R   0.546176 0.794868 0.498509 0.968871
C2    C     C_R   0.453825 0.205133 0.501519 0.969297
C3    C     C_R   0.638591 0.457286 0.760203 0.560747
C4    C     C_R   0.627356 0.543441 0.231485 0.591461
C5    C     C_R   0.636988 0.446735 0.700257 -0.331942
C6    C     C_R   0.635762 0.543824 0.291615 -0.348094
C7    C     C_R   0.507484 0.514904 0.672507 -0.092648
C8    C     C_R   0.490120 0.494444 0.327459 -0.081337
C9    C     C_R   0.380846 0.595690 0.704250 -0.231709
C10   C     C_R   0.335463 0.442412 0.304118 -0.219521
C11   C     C_R   0.380666 0.604939 0.763406 -0.219159
C12   C     C_R   0.324555 0.443746 0.245415 -0.204855
C13   C     C_R   0.506352 0.533303 0.791218 0.237656
C14   C     C_R   0.466541 0.498837 0.209025 0.196804
C15   C     C_2   0.570297 0.958705 0.497674 -0.374257
C16   C     C_2   0.429707 0.041298 0.502405 -0.374670
C17   C     C_R   0.502301 0.502391 0.610549 0.897893
C18   C     C_R   0.497603 0.498736 0.389449 0.898310
C19   C     C_R   0.383067 0.382534 0.118638 0.527047
C20   C     C_R   0.567003 0.656019 0.881407 0.541315
C21   C     C_R   0.495839 0.649661 0.121811 0.593363
C22   C     C_R   0.401649 0.408965 0.879186 0.559307
C23   C     C_R   0.510754 0.655698 0.062119 -0.067448
C24   C     C_R   0.383083 0.405344 0.938984 -0.049332
C25   C     C_R   0.444416 0.526414 0.030546 -0.090353
C26   C     C_R   0.457954 0.531225 0.970376 -0.084684
C27   C     C_R   0.367855 0.391358 0.059184 -0.093509
C28   C     C_R   0.549784 0.659995 0.941673 -0.114890
C29   C     C_R   0.597641 0.784974 0.033818 -0.269648
C30   C     C_R   0.292041 0.278453 0.967546 -0.355111
C31   C     C_R   0.620927 0.787441 0.973892 0.470585
C32   C     C_R   0.285870 0.267288 0.027814 0.503769
H1    H     H_    0.280969 0.650378 0.683389 0.171808
H2    H     H_    0.222554 0.401139 0.331296 0.164563
H3    H     H_    0.280163 0.664183 0.787969 0.157001
H4    H     H_    0.204385 0.402691 0.228091 0.169705
H5    H     H_    0.013597 0.382547 0.456808 0.189163
H6    H     H_    0.986413 0.617468 0.543187 0.191224
N1    N     N_R   0.446501 0.510787 0.148645 -0.353264
N2    N     N_R   0.493512 0.531941 0.852161 -0.344020
N3    N     N_2   0.950330 0.457950 0.484560 -0.175113
N4    N     N_2   0.049670 0.542050 0.515440 -0.175371
O1    O     O_R   0.389250 0.738570 0.503790 -0.612235
O2    O     O_R   0.610750 0.261430 0.496210 -0.611819
O3    O     O_R   0.678390 0.711620 0.493890 -0.629696
O4    O     O_R   0.321610 0.288380 0.506110 -0.630026
O5    O     O_R   0.355400 0.513520 0.588790 -0.621528
O6    O     O_R   0.644600 0.486480 0.411210 -0.618921
O7    O     O_R   0.644550 0.486570 0.578900 -0.627898
O8    O     O_R   0.355450 0.513430 0.421100 -0.627843
O9    O     O_2   0.341435 0.245578 0.145893 -0.492557
O10   O     O_2   0.654502 0.774719 0.851879 -0.514341
O11   O     O_2   0.533274 0.780790 0.152924 -0.524607
O12   O     O_2   0.330016 0.290144 0.848000 -0.572997
Zn1   Zn    Zn3+2 0.306930 0.518000 0.506610 0.941720
Zn2   Zn    Zn3+2 0.693070 0.482000 0.493390 0.942896
H7    H     H_    0.657115 0.880631 0.058192 0.202949
H8    H     H_    0.227383 0.187832 0.942455 0.180160
O13   O     O_3   0.732763 0.902903 0.947668 -0.579489
C33   C     C_3   0.653400 0.046556 0.949574 0.092118
H9    H     H_    0.624285 0.087145 0.994578 0.128173
H10   H     H_    0.531924 0.035368 0.926798 0.167555
C34   C     C_3   0.776833 0.170768 0.919518 -0.664568
H11   H     H_    0.717628 0.285159 0.920911 0.208344
H12   H     H_    0.899461 0.184706 0.941269 0.227766
H13   H     H_    0.805858 0.135872 0.873999 0.289732
O14   O     O_3   0.187026 0.148033 0.058005 -0.563530
C35   C     C_3   0.179386 0.002324 0.028312 0.106423
H14   H     H_    0.307807 0.976429 0.007326 0.108365
H15   H     H_    0.081288 0.000868 0.995958 0.169728
C36   C     C_3   0.122925 0.872236 0.070712 -0.725094
H16   H     H_    0.991412 0.890331 0.090815 0.264155
H17   H     H_    0.119765 0.756770 0.048078 0.200435
H18   H     H_    0.215479 0.871946 0.104709 0.274261
O15   O     O_3   0.753580 0.378857 0.789970 -0.623937
C37   C     C_3   0.928235 0.423528 0.771719 0.076071
H19   H     H_    0.994281 0.469994 0.809708 0.187502
H20   H     H_    0.946201 0.517807 0.738892 0.121685
C38   C     C_3   0.018248 0.280025 0.748952 -0.740015
H21   H     H_    0.955476 0.229890 0.710917 0.232019
H22   H     H_    0.011033 0.189450 0.782708 0.277966
H23   H     H_    0.156584 0.313289 0.736274 0.237880
O16   O     O_3   0.764256 0.597112 0.192859 -0.599479
C39   C     C_3   0.931222 0.581973 0.211370 0.077523
H24   H     H_    0.014555 0.545130 0.173479 0.175253
H25   H     H_    0.935551 0.489258 0.243912 0.117499
C40   C     C_3   0.008772 0.740302 0.232087 -0.781101
H26   H     H_    0.142415 0.728537 0.244560 0.228760
H27   H     H_    0.929836 0.784947 0.269579 0.245216
H28   H     H_    0.013904 0.827239 0.197183 0.277629
H29   H     H_    0.732453 0.381680 0.675670 0.170034
H30   H     H_    0.752120 0.586501 0.311239 0.164298
H31   H     H_    0.702717 0.010724 0.493171 0.179311
H32   H     H_    0.297288 0.989279 0.506914 0.179298

loop_
_geom_bond_atom_site_label_1
_geom_bond_atom_site_label_2
_ccdc_geom_bond_type
C30   C32   A    
C40   H26   S    
C34   H12   S    
N3    N4    D    
C39   C40   S    
C22   O12   S    
C2    O4    A    
C33   C34   S    
C19   N1    A    
O5    Zn1   S    
C37   H20   S    
H6    N4    S    
H5    N3    S    
C20   N2    A    
C15   C16   D    
C33   H10   S    
C31   O13   S    
C13   N2    S    
C14   N1    S    
C1    O1    A    
O3    Zn2   S    
C2    O2    A    
C35   H14   S    
C7    C17   S    
O4    Zn1   S    
C37   C38   S    
C1    C15   S    
C12   H4    S    
C3    O15   S    
C3    C13   A    
C34   H13   S    
O13   C33   S    
C9    H1    S    
C19   C27   A    
C29   H7    S    
O14   C35   S    
C37   H19   S    
C4    C6    A    
C17   O7    A    
C38   H22   S    
C6    C8    A    
C20   C28   A    
C25   C26   A    
C8    C18   S    
C38   H21   S    
C33   H9    S    
O15   C37   S    
N3    Zn2   S    
C19   O9    S    
N4    Zn1   S    
C38   H23   S    
O2    Zn2   S    
O16   C39   S    
C21   N1    A    
C22   N2    A    
C10   H2    S    
C39   H24   S    
C9    C11   A    
C5    H29   S    
C10   C12   A    
C32   O14   S    
O1    Zn1   S    
C12   C14   A    
C40   H27   S    
C22   C24   A    
C8    C10   A    
C23   C29   A    
C2    C16   S    
C18   O8    A    
C5    C7    A    
O6    Zn2   S    
C27   C32   A    
C26   C28   A    
C28   C31   A    
C17   O5    A    
C24   C26   A    
C3    C5    A    
C18   O6    A    
C15   H31   S    
C36   H18   S    
C25   C27   A    
O7    Zn2   S    
C16   H32   S    
O8    Zn1   S    
C21   C23   A    
C36   H16   S    
C20   O10   S    
C21   O11   S    
C11   C13   A    
C1    O3    A    
C4    O16   S    
C35   C36   S    
C6    H30   S    
C30   H8    S    
C11   H3    S    
C23   C25   A    
C4    C14   A    
C24   C30   A    
C34   H11   S    
C7    C9    A    
C29   C31   A    
C40   H28   S    
C36   H17   S    
C35   H15   S    
C39   H25   S    
