data_mof_unit_63743.cif
_audit_creation_date              2012-12-10T18:16:12-0500
_audit_creation_method            fapswitch 2.2
_symmetry_space_group_name_H-M    P1
_symmetry_Int_Tables_number       1
_space_group_crystal_system       triclinic
_cell_length_a                    42.37972
_cell_length_b                    29.208828
_cell_length_c                    29.202607
_cell_angle_alpha                 90.000079
_cell_angle_beta                  133.833167
_cell_angle_gamma                 90.002798
_cell_volume                      26076.2753989

loop_
_atom_site_label
_atom_site_type_symbol
_atom_type_description
_atom_site_fract_x
_atom_site_fract_y
_atom_site_fract_z
_atom_type_partial_charge
C1    C     C_R   0.499977 0.586678 0.499997 0.908672
C2    C     C_1   0.834633 0.000176 0.336045 -0.050717
C3    C     C_3   0.760694 0.961886 0.242732 0.010622
C4    C     C_1   0.372628 0.500043 0.373369 -0.187529
C5    C     C_1   0.872628 0.000083 0.373370 -0.187530
C6    C     C_1   0.121171 0.500020 0.122333 -0.197439
C7    C     C_1   0.621171 0.000027 0.122339 -0.197427
C8    C     C_3   0.261818 0.503176 0.307625 -0.169224
C9    C     C_3   0.761820 0.001787 0.307718 -0.169228
C10   C     C_3   0.289099 0.500114 0.291039 0.083695
C11   C     C_3   0.789099 0.000219 0.291048 0.083696
C12   C     C_1   0.277181 0.575541 0.229429 0.159012
C13   C     C_1   0.159165 0.500071 0.161549 -0.055621
C14   C     C_1   0.277253 0.418353 0.240779 0.168433
C15   C     C_1   0.777190 0.077287 0.232039 0.158953
C16   C     C_1   0.777238 0.919807 0.238017 0.168490
C17   C     C_3   0.244098 0.491171 0.120983 -0.757928
C18   C     C_3   0.744091 0.995527 0.120757 -0.757955
C19   C     C_1   0.659165 0.000101 0.161560 -0.055626
C20   C     C_1   0.499960 0.637262 0.499953 -0.217246
C21   C     C_1   0.499960 0.362738 0.499954 -0.217112
C22   C     C_1   0.999959 0.137262 0.499953 -0.217186
C23   C     C_1   0.999961 0.862738 0.499954 -0.217161
C24   C     C_1   0.499949 0.679400 0.499936 0.008233
C25   C     C_1   0.499951 0.320600 0.499937 0.008445
C26   C     C_1   0.999948 0.179400 0.499935 0.008316
C27   C     C_R   0.499976 0.413322 0.499997 0.908497
C28   C     C_1   0.999951 0.820600 0.499938 0.008368
C29   C     C_1   0.499942 0.729136 0.499931 0.010166
C30   C     C_1   0.499946 0.270863 0.499935 0.010378
C31   C     C_1   0.999941 0.229136 0.499930 0.010233
C32   C     C_1   0.999947 0.770864 0.499935 0.010314
C33   C     C_1   0.499940 0.771273 0.499936 0.009301
C34   C     C_1   0.499946 0.228726 0.499942 0.009450
C35   C     C_1   0.999940 0.271274 0.499936 0.009345
C36   C     C_1   0.999947 0.728726 0.499942 0.009406
C37   C     C_1   0.499943 0.821010 0.499949 0.006900
C38   C     C_R   0.999977 0.086678 0.499997 0.908755
C39   C     C_1   0.499950 0.178990 0.499956 0.006987
C40   C     C_1   0.999942 0.321010 0.499949 0.006927
C41   C     C_1   0.999950 0.678990 0.499957 0.006958
C42   C     C_1   0.499947 0.863148 0.499963 -0.211522
C43   C     C_1   0.499954 0.136852 0.499970 -0.211476
C44   C     C_1   0.999947 0.363148 0.499963 -0.211506
C45   C     C_1   0.999954 0.636852 0.499970 -0.211496
C46   C     C_R   0.417136 0.499978 0.417347 0.953065
C47   C     C_R   0.917136 0.999963 0.417347 0.953074
C48   C     C_1   0.635844 0.499999 0.635482 -0.219502
C49   C     C_R   0.999977 0.913322 0.499997 0.908425
C50   C     C_1   0.135844 0.999999 0.635482 -0.219502
C51   C     C_1   0.677114 0.499998 0.676728 0.018106
C52   C     C_1   0.177114 0.999998 0.676728 0.018105
C53   C     C_1   0.726261 0.499997 0.725940 0.004686
C54   C     C_1   0.226261 0.999997 0.725940 0.004685
C55   C     C_1   0.767532 0.499997 0.767295 0.004707
C56   C     C_1   0.267532 0.999997 0.767295 0.004705
C57   C     C_1   0.816679 0.499996 0.816557 0.018196
C58   C     C_1   0.316679 0.999996 0.816557 0.018194
C59   C     C_1   0.857949 0.499996 0.857923 -0.219858
C60   C     C_3   0.204657 0.500143 0.207479 0.116239
C61   C     C_1   0.357949 0.999996 0.857923 -0.219862
C62   C     C_R   0.994869 0.500000 0.081686 0.909549
C63   C     C_R   0.494868 0.000000 0.081686 0.909553
C64   C     C_R   0.076672 0.500003 0.076220 0.951203
C65   C     C_R   0.576672 0.000003 0.076218 0.951264
C66   C     C_R   0.992983 0.500000 0.906353 0.906198
C67   C     C_R   0.492982 1.000000 0.906353 0.906251
C68   C     C_R   0.907985 0.499998 0.908064 0.890252
C69   C     C_R   0.407985 0.999998 0.908064 0.890254
C70   C     C_R   0.585810 0.500000 0.585694 0.889334
C71   C     C_3   0.704657 0.000208 0.207495 0.116221
C72   C     C_R   0.085810 1.000000 0.585694 0.889334
C73   C     C_R   0.499074 0.000000 0.412887 0.897111
C74   C     C_R   0.999074 0.500000 0.412887 0.897115
C75   C     C_R   0.499956 0.913732 0.499982 0.896817
C76   C     C_R   0.499958 0.086268 0.499984 0.896791
C77   C     C_R   0.999956 0.413732 0.499982 0.896820
C78   C     C_R   0.999958 0.586268 0.499985 0.896790
C79   C     C_R   0.500772 0.000000 0.587058 0.896607
C80   C     C_R   0.000772 0.500000 0.587058 0.896605
C81   C     C_1   0.995621 0.500000 0.133011 -0.220108
C82   C     C_3   0.232288 0.497174 0.191959 0.181248
C83   C     C_1   0.495621 0.000000 0.133011 -0.220121
C84   C     C_1   0.996261 0.500000 0.175783 0.006066
C85   C     C_1   0.496261 0.000000 0.175783 0.006058
C86   C     C_1   0.997008 0.500000 0.226255 0.008693
C87   C     C_1   0.497008 0.000000 0.226255 0.008687
C88   C     C_1   0.497616 0.000000 0.268995 0.008345
C89   C     C_1   0.997616 0.500000 0.268995 0.008351
C90   C     C_1   0.498273 0.000000 0.319377 0.006274
C91   C     C_1   0.998273 0.500000 0.319378 0.006279
C92   C     C_1   0.498732 0.000000 0.361971 -0.211803
C93   C     C_3   0.732285 0.998710 0.191894 0.181245
C94   C     C_1   0.998732 0.500000 0.361971 -0.211800
C95   C     C_1   0.994045 0.500000 0.856818 -0.219178
C96   C     C_1   0.494045 0.000000 0.856818 -0.219119
C97   C     C_3   0.232616 0.539532 0.254356 -0.221010
C98   C     C_3   0.232670 0.463811 0.259695 -0.212089
C99   C     C_3   0.732618 0.038936 0.255699 -0.220975
C100  C     C_3   0.732671 0.963079 0.258460 -0.212126
C101  C     C_1   0.995278 0.500000 0.815917 0.006570
C102  C     C_1   0.495278 0.000000 0.815917 0.006625
C103  C     C_1   0.996908 0.500000 0.767817 0.008740
C104  C     C_1   0.334633 0.500094 0.336040 -0.050710
C105  C     C_1   0.496908 0.000000 0.767817 0.008776
C106  C     C_1   0.498277 0.000000 0.727059 0.008336
C107  C     C_1   0.998277 0.500000 0.727059 0.008314
C108  C     C_1   0.499718 0.000000 0.678763 0.006514
C109  C     C_1   0.999718 0.500000 0.678763 0.006499
C110  C     C_1   0.500571 0.000000 0.637471 -0.212084
C111  C     C_1   0.000572 0.500000 0.637471 -0.212095
C112  C     C_3   0.260660 0.536134 0.238780 -0.012131
C113  C     C_3   0.260699 0.461129 0.244039 0.010675
C114  C     C_3   0.760662 0.037024 0.240030 -0.012049
H1    H     H_    0.219512 0.571318 0.256892 0.154751
H2    H     H_    0.262884 0.523518 0.136610 0.240551
H3    H     H_    0.689233 0.021533 0.098416 0.229650
H4    H     H_    0.726022 0.990683 0.069979 0.242765
H5    H     H_    0.767006 0.966402 0.147916 0.253335
H6    H     H_    0.762869 0.027971 0.137470 0.240563
H7    H     H_    0.219603 0.434499 0.266540 0.153487
H8    H     H_    0.719515 0.070171 0.259307 0.154722
H9    H     H_    0.719604 0.933106 0.264300 0.153516
H10   H     H_    0.275593 0.505629 0.356560 0.154375
H11   H     H_    0.775599 0.003046 0.356717 0.154378
H12   H     H_    0.189241 0.518282 0.097737 0.229584
H13   H     H_    0.226029 0.485232 0.070387 0.242764
H14   H     H_    0.267004 0.462195 0.149119 0.253326
N1    N     N_1   0.290222 0.606600 0.222082 -0.200977
N2    N     N_1   0.290321 0.384641 0.238243 -0.198984
N3    N     N_1   0.790236 0.109019 0.225764 -0.201031
N4    N     N_1   0.790298 0.886644 0.234336 -0.198932
N5    N     N_2   0.213302 0.494186 0.127481 -0.305476
N6    N     N_2   0.713297 0.997265 0.127340 -0.305540
O1    O     O_R   0.500400 0.563130 0.536080 -0.597368
O2    O     O_R   0.963990 0.500000 0.400890 -0.592831
O3    O     O_R   0.534410 0.000000 0.471310 -0.593885
O4    O     O_R   0.034410 0.500000 0.471310 -0.593883
O5    O     O_R   0.464750 0.936830 0.464780 -0.593088
O6    O     O_R   0.464750 0.063170 0.464780 -0.592936
O7    O     O_R   0.964750 0.436830 0.464780 -0.593065
O8    O     O_R   0.964750 0.563170 0.464780 -0.592959
O9    O     O_R   0.535170 0.936820 0.535200 -0.593594
O10   O     O_R   0.535170 0.063180 0.535200 -0.593696
O11   O     O_R   0.035170 0.436820 0.535200 -0.593607
O12   O     O_R   0.500400 0.436870 0.536080 -0.597316
O13   O     O_R   0.035170 0.563180 0.535200 -0.593686
O14   O     O_R   0.465520 0.000000 0.528690 -0.593278
O15   O     O_R   0.965520 0.500000 0.528690 -0.593277
O16   O     O_R   0.535930 0.000000 0.599110 -0.593271
O17   O     O_R   0.035930 0.500000 0.599110 -0.593278
O18   O     O_R   0.499540 0.563080 0.463930 -0.595701
O19   O     O_R   0.499540 0.436920 0.463930 -0.595951
O20   O     O_R   0.999540 0.063080 0.463930 -0.595729
O21   O     O_R   0.999540 0.936920 0.463930 -0.595914
O22   O     O_R   0.438030 0.500000 0.473700 -0.615181
O23   O     O_R   0.000400 0.063130 0.536080 -0.597322
O24   O     O_R   0.938030 0.000000 0.473700 -0.615180
O25   O     O_R   0.437170 0.500000 0.401550 -0.610679
O26   O     O_R   0.937170 0.000000 0.401550 -0.610692
O27   O     O_R   0.562760 0.500000 0.598450 -0.591726
O28   O     O_R   0.062760 0.000000 0.598450 -0.591727
O29   O     O_R   0.561900 0.500000 0.526300 -0.591907
O30   O     O_R   0.061900 0.000000 0.526300 -0.591906
O31   O     O_R   0.994600 0.535610 0.057840 -0.596525
O32   O     O_R   0.994600 0.464390 0.057840 -0.596479
O33   O     O_R   0.494600 0.035610 0.057840 -0.596523
O34   O     O_R   0.000400 0.936870 0.536080 -0.597370
O35   O     O_R   0.494600 0.964390 0.057840 -0.596487
O36   O     O_R   0.056200 0.535620 0.056290 -0.615167
O37   O     O_R   0.056200 0.464380 0.056290 -0.611157
O38   O     O_R   0.556200 0.035620 0.056290 -0.615188
O39   O     O_R   0.556200 0.964380 0.056290 -0.611214
O40   O     O_R   0.993060 0.535640 0.930020 -0.597597
O41   O     O_R   0.993060 0.464360 0.930020 -0.596198
O42   O     O_R   0.493060 0.035640 0.930020 -0.597604
O43   O     O_R   0.493060 0.964360 0.930020 -0.596198
O44   O     O_R   0.931470 0.535630 0.931560 -0.591455
O45   O     O_R   0.931470 0.464370 0.931560 -0.591525
O46   O     O_R   0.431470 0.035630 0.931560 -0.591455
O47   O     O_R   0.431470 0.964370 0.931560 -0.591527
O48   O     O_R   0.463990 0.000000 0.400890 -0.592831
Zn1   Zn    Zn3+2 0.500540 0.500000 0.548170 0.972239
Zn2   Zn    Zn3+2 0.952950 0.500000 0.452980 0.973671
Zn3   Zn    Zn3+2 0.546980 0.000000 0.547020 0.971561
Zn4   Zn    Zn3+2 0.046980 0.500000 0.547020 0.971552
Zn5   Zn    Zn3+2 0.000540 0.000000 0.548170 0.972231
Zn6   Zn    Zn3+2 0.499390 0.500000 0.451830 0.977013
Zn7   Zn    Zn3+2 0.999390 0.000000 0.451830 0.977011
Zn8   Zn    Zn3+2 0.993830 0.547580 0.993940 0.971182
Zn9   Zn    Zn3+2 0.993830 0.452420 0.993940 0.974508
Zn10  Zn    Zn3+2 0.493830 0.047580 0.993940 0.971176
Zn11  Zn    Zn3+2 0.493830 0.952420 0.993940 0.974435
Zn12  Zn    Zn3+2 0.452950 0.000000 0.452980 0.973675

loop_
_geom_bond_atom_site_label_1
_geom_bond_atom_site_label_2
_ccdc_geom_bond_type
C27   O19   A    
O17   Zn4   S    
O8    Zn2   S    
C87   C88   T    
C96   C102  T    
C98   H7    S    
O9    Zn3   S    
C74   C94   S    
C53   C55   T    
C19   C71   S    
O1    Zn1   S    
O18   Zn6   S    
C70   O29   A    
O16   Zn3   S    
C13   C60   S    
C4    C46   S    
O38   Zn10  S    
O33   Zn10  S    
C74   O4    A    
C42   C75   S    
O43   Zn11  S    
O12   Zn1   S    
C1    O18   A    
C32   C36   T    
C44   C77   S    
O4    Zn4   S    
C84   C86   S    
O26   Zn7   S    
C60   C98   S    
C78   O8    A    
C69   O46   A    
O41   Zn9   S    
O28   Zn5   S    
O44   Zn8   S    
C63   O35   A    
H3    N6    S    
C22   C38   S    
C29   C33   T    
C43   C76   S    
C102  C105  S    
O32   Zn9   S    
C6    C64   S    
C37   C42   T    
C11   C114  S    
C8    C98   S    
C24   C29   S    
C50   C72   S    
O21   Zn7   S    
C109  C111  T    
C60   C82   S    
C3    C100  S    
C48   C51   T    
C20   C24   T    
H12   N5    S    
C56   C58   S    
C100  H9    S    
C74   O2    A    
O15   Zn2   S    
C50   C52   T    
C10   C112  S    
C45   C78   S    
O48   Zn12  S    
C89   C91   S    
O47   Zn11  S    
C18   H4    S    
O5    Zn12  S    
O10   Zn3   S    
C65   O39   A    
C106  C108  S    
C58   C61   T    
C63   O33   A    
C21   C27   S    
C26   C31   S    
C101  C103  S    
O34   Zn5   S    
O24   Zn5   S    
C107  C109  S    
C36   C41   S    
C99   C114  S    
C2    C11   S    
O22   Zn1   S    
C52   C54   S    
O3    Zn3   S    
C47   O26   A    
C85   C87   S    
O13   Zn4   S    
C80   O15   A    
C54   C56   T    
C12   N1    T    
C30   C34   T    
C65   O38   A    
C34   C39   S    
C28   C32   S    
C3    C11   S    
C73   C92   S    
C49   O34   A    
C60   C97   S    
O46   Zn10  S    
C97   C112  S    
C8    H10   S    
C98   C113  S    
O35   Zn11  S    
C71   C99   S    
C9    H11   S    
C63   C83   S    
O29   Zn6   S    
C51   C53   S    
C82   C112  S    
O25   Zn6   S    
O27   Zn1   S    
C8    C97   S    
C59   C68   S    
C7    C65   S    
C5    C47   S    
C90   C92   T    
C40   C44   T    
C67   O42   A    
O2    Zn2   S    
O31   Zn8   S    
C72   O30   A    
C15   C114  S    
O37   Zn9   S    
C3    C93   S    
C55   C57   S    
C23   C28   T    
C9    C11   S    
C10   C113  S    
C75   O9    A    
C78   O13   A    
O40   Zn8   S    
C79   O16   A    
C76   O10   A    
O14   Zn12  S    
C83   C85   T    
O20   Zn7   S    
C88   C90   S    
C93   N6    S    
C9    C100  S    
C7    C19   T    
C99   H8    S    
C17   N5    S    
C67   C96   S    
C31   C35   T    
C66   O41   A    
C2    C5    T    
C97   H1    S    
C38   O20   A    
C76   O6    A    
O30   Zn7   S    
C14   C113  S    
C70   O27   A    
C18   H6    S    
C12   C112  S    
C81   C84   T    
C14   N2    T    
C80   O17   A    
C61   C69   S    
C25   C30   S    
C21   C25   T    
C1    C20   S    
C41   C45   T    
C79   C110  S    
C62   O32   A    
O45   Zn9   S    
C49   O21   A    
C8    C10   S    
C17   H13   S    
O23   Zn5   S    
C82   C113  S    
C48   C70   S    
C86   C89   T    
C39   C43   T    
C17   H14   S    
C79   O14   A    
C71   C93   S    
O19   Zn6   S    
C23   C49   S    
C46   O22   A    
C71   C100  S    
O36   Zn8   S    
C68   O45   A    
C62   C81   S    
O11   Zn4   S    
O7    Zn2   S    
C67   O43   A    
C38   O23   A    
C82   N5    S    
C10   C104  S    
C35   C40   S    
C75   O5    A    
C6    C13   T    
O39   Zn11  S    
C73   O48   A    
C77   O11   A    
C73   O3    A    
C64   O37   A    
C27   O12   A    
C46   O25   A    
C4    C104  T    
C80   C111  S    
C68   O44   A    
C108  C110  T    
C18   N6    S    
C93   C114  S    
C64   O36   A    
C16   N4    T    
C33   C37   S    
C57   C59   T    
O42   Zn10  S    
C105  C106  T    
C62   O31   A    
C15   N3    T    
C77   O7    A    
C9    C99   S    
C22   C26   T    
C72   O28   A    
C66   O40   A    
C103  C107  T    
C1    O1    A    
O6    Zn12  S    
C18   H5    S    
C3    C16   S    
C95   C101  T    
C17   H2    S    
C69   O47   A    
C66   C95   S    
C91   C94   T    
C47   O24   A    
