data_mof_unit_15975.cif
_audit_creation_date              2013-03-05T16:09:45-0500
_audit_creation_method            fapswitch 2.2
_symmetry_space_group_name_H-M    P1
_symmetry_Int_Tables_number       1
_space_group_crystal_system       triclinic
_cell_length_a                    13.034395
_cell_length_b                    10.717139
_cell_length_c                    10.004236
_cell_angle_alpha                 93.167955
_cell_angle_beta                  97.957105
_cell_angle_gamma                 95.015075
_cell_volume                      1375.53442894

loop_
_atom_site_label
_atom_site_type_symbol
_atom_site_description
_atom_site_fract_x
_atom_site_fract_y
_atom_site_fract_z
_atom_type_partial_charge
O1    O     O_R   0.499990 0.316750 0.614620 -0.559172
O2    O     O_R   0.500010 0.683250 0.385380 -0.559441
O3    O     O_R   0.499990 0.316780 0.385290 -0.614704
O4    O     O_R   0.500010 0.683220 0.614710 -0.614528
C1    C     C_R   0.507971 0.260920 0.497614 0.931318
C2    C     C_R   0.492122 0.739112 0.502405 0.931395
O5    O     O_R   0.346360 0.499970 0.595710 -0.609855
O6    O     O_R   0.653640 0.500030 0.404290 -0.609665
O7    O     O_R   0.346360 0.499990 0.366380 -0.532317
O8    O     O_R   0.653640 0.500010 0.633620 -0.532511
C3    C     C_R   0.298404 0.504622 0.473091 0.941702
C4    C     C_R   0.701533 0.495087 0.526870 0.941841
Zn1   Zn    Zn3+2 0.500000 0.499980 0.653120 1.117234
Zn2   Zn    Zn3+2 0.500000 0.500020 0.346880 1.117169
C5    C     C_R   0.813624 0.481964 0.541930 -0.252728
C6    C     C_R   0.186064 0.516309 0.457860 -0.253211
C7    C     C_R   0.018079 0.523976 0.321594 0.206585
C8    C     C_R   0.981349 0.472231 0.677921 0.205592
C9    C     C_R   0.124577 0.511361 0.329442 0.239209
C10   C     C_R   0.875126 0.486384 0.670239 0.240023
C11   C     C_R   0.137321 0.529885 0.574891 -0.050049
C12   C     C_R   0.862133 0.467180 0.424871 -0.051123
C13   C     C_R   0.030117 0.498711 0.563904 -0.065920
C14   C     C_R   0.969441 0.497466 0.435672 -0.066257
C15   C     C_R   0.481616 0.051480 0.373611 -0.175619
C16   C     C_R   0.518806 0.948606 0.626427 -0.175519
C17   C     C_R   0.451265 0.925456 0.384323 0.307604
C18   C     C_R   0.549195 0.074654 0.615712 0.307762
C19   C     C_R   0.480737 0.872479 0.507614 -0.250828
C20   C     C_R   0.519616 0.127620 0.492425 -0.250866
C21   C     C_R   0.559657 0.589699 0.089431 0.246970
C22   C     C_R   0.440431 0.410219 0.910530 0.246852
C23   C     C_R   0.566029 0.585204 0.947651 0.187995
C24   C     C_R   0.434056 0.414638 0.052330 0.187678
N1    N     N_R   0.499970 0.499970 0.857200 -0.208120
N2    N     N_R   0.500030 0.500030 0.142800 -0.207906
C25   C     C_1   0.805727 0.409113 0.297675 0.364077
N3    N     N_1   0.761037 0.362758 0.196536 -0.089801
C26   C     C_1   0.193212 0.588390 0.702182 0.364814
N4    N     N_1   0.237486 0.635094 0.803397 -0.089364
N5    N     N_R   0.835340 0.520955 0.791526 0.260593
O9    O     O_R   0.876997 0.623534 0.860569 -0.234229
O10   O     O_R   0.780358 0.438294 0.849329 -0.257789
N6    N     N_R   0.165093 0.479100 0.208014 0.259998
O11   O     O_R   0.124105 0.377215 0.137116 -0.232793
O12   O     O_R   0.219467 0.563491 0.151672 -0.259047
N7    N     N_R   0.963654 0.579781 0.207415 0.238446
O13   O     O_R   0.004283 0.590910 0.096725 -0.207433
O14   O     O_R   0.889478 0.649443 0.226575 -0.267909
N8    N     N_R   0.035168 0.415575 0.791985 0.239898
O15   O     O_R   0.992051 0.399568 0.900125 -0.207369
O16   O     O_R   0.111376 0.348887 0.773786 -0.268434
C27   C     C_1   0.486673 0.096738 0.240999 0.460639
N9    N     N_1   0.492823 0.131207 0.134592 -0.057301
C28   C     C_1   0.513589 0.903346 0.759005 0.461461
N10   N     N_1   0.507314 0.868855 0.865377 -0.057094
N11   N     N_R   0.379901 0.853875 0.278340 0.241671
O17   O     O_R   0.302783 0.781977 0.310825 -0.353013
O18   O     O_R   0.383849 0.868879 0.150942 -0.309183
N12   N     N_R   0.620510 0.146329 0.721727 0.241950
O19   O     O_R   0.697140 0.219040 0.689217 -0.354406
O20   O     O_R   0.617199 0.130488 0.849099 -0.308813
N13   N     N_R   0.608363 0.696742 0.174423 0.266582
O21   O     O_R   0.587260 0.808717 0.142932 -0.332385
O22   O     O_R   0.687982 0.685778 0.264903 -0.287762
N14   N     N_R   0.392077 0.303046 0.825491 0.266948
O23   O     O_R   0.413770 0.191199 0.856686 -0.332728
O24   O     O_R   0.312504 0.313686 0.734825 -0.288102
N15   N     N_R   0.651679 0.662206 0.906651 0.252682
O25   O     O_R   0.652007 0.694556 0.784380 -0.338396
O26   O     O_R   0.732969 0.701673 0.994183 -0.207931
N16   N     N_R   0.348707 0.337052 0.093374 0.251960
O27   O     O_R   0.348021 0.305841 0.215972 -0.338428
O28   O     O_R   0.267965 0.295981 0.005642 -0.208597

loop_
_geom_bond_atom_site_label_1
_geom_bond_atom_site_label_2
_geom_bond_distance
_ccdc_geom_bond_type
O5    Zn1   2.005446 S    
N14   O24   1.297359 A    
C13   C14   1.409516 A    
N13   O22   1.297362 A    
C6    C11   1.413817 A    
C17   N11   1.445761 S    
C24   N16   1.449167 S    
O6    C4    1.302831 A    
C17   C19   1.405566 A    
N5    O10   1.301217 A    
C3    C6    1.468143 S    
C16   C18   1.388328 A    
N7    O13   1.298784 A    
C11   C26   1.456213 S    
C4    C5    1.467798 S    
C23   N15   1.448696 S    
O7    Zn2   2.038760 S    
C16   C28   1.445485 S    
C28   N10   1.156749 T    
C18   C20   1.405737 A    
C10   N5    1.427099 S    
N12   O19   1.300978 A    
N7    O14   1.300222 A    
C27   N9    1.156727 T    
N6    O11   1.299344 A    
N12   O20   1.300873 A    
O5    C3    1.303051 A    
O7    C3    1.310415 A    
N11   O17   1.300939 A    
O2    C2    1.306240 A    
O3    Zn2   2.021775 S    
O8    C4    1.310387 A    
C16   C19   1.408348 A    
C6    C9    1.412665 A    
O1    C1    1.306222 A    
N16   O28   1.300867 A    
C23   N1    1.396442 A    
C25   N3    1.157827 T    
N6    O12   1.301117 A    
Zn1   N1    2.041725 S    
C24   N2    1.396978 A    
C18   N12   1.446082 S    
C11   C13   1.395730 A    
Zn2   N2    2.041724 S    
N15   O25   1.290179 A    
O2    Zn2   1.980106 S    
C12   C14   1.395816 A    
N11   O18   1.300879 A    
O4    C2    1.298022 A    
O1    Zn1   1.980106 S    
C21   C23   1.430682 A    
C7    C9    1.398280 A    
C8    C13   1.410915 A    
C7    C14   1.410595 A    
C22   N1    1.361228 A    
C21   N13   1.434387 S    
C26   N4    1.157831 T    
C2    C19   1.448674 S    
N14   O23   1.300136 A    
C9    N6    1.427328 S    
C8    N8    1.446499 S    
C8    C10   1.398017 A    
C22   N14   1.434305 S    
C1    C20   1.448621 S    
N5    O9    1.299373 A    
N8    O16   1.300172 A    
N15   O26   1.300863 A    
C21   N2    1.361487 A    
C15   C20   1.408263 A    
O6    Zn2   2.005444 S    
O4    Zn1   2.021775 S    
N8    O15   1.299107 A    
C12   C25   1.456197 S    
C15   C17   1.387980 A    
C5    C10   1.412201 A    
C5    C12   1.413633 A    
N13   O21   1.300205 A    
C7    N7    1.446047 S    
C15   C27   1.445478 S    
N16   O27   1.290005 A    
O3    C1    1.298011 A    
O8    Zn1   2.038759 S    
C22   C24   1.430900 A    
