data_mof_unit_9260.cif
_audit_creation_date              2012-12-11T14:12:23-0500
_audit_creation_method            fapswitch 2.2
_symmetry_space_group_name_H-M    P1
_symmetry_Int_Tables_number       1
_space_group_crystal_system       triclinic
_cell_length_a                    14.630892
_cell_length_b                    16.241406
_cell_length_c                    6.949529
_cell_angle_alpha                 89.559656
_cell_angle_beta                  97.767197
_cell_angle_gamma                 89.834037
_cell_volume                      1636.17845203

loop_
_atom_site_label
_atom_site_type_symbol
_atom_type_description
_atom_site_fract_x
_atom_site_fract_y
_atom_site_fract_z
_atom_type_partial_charge
O1    O     O_R   0.584460 0.414130 0.534110 -0.549791
O2    O     O_R   0.584460 0.585870 0.534110 -0.547262
O3    O     O_R   0.595580 0.585780 0.208030 -0.517415
O4    O     O_R   0.595580 0.414220 0.208030 -0.521664
O5    O     O_R   0.415540 0.585790 0.977250 -0.527996
O6    O     O_R   0.415540 0.414210 0.977250 -0.519514
C1    C     C_R   0.619656 0.611822 0.383804 0.663975
C2    C     C_R   0.614215 0.384075 0.382161 0.646629
O7    O     O_3   0.440930 0.500000 0.319360 -0.364141
V1    V     V_3+5 0.510960 0.500000 0.068030 1.552536
O8    O     O_R   0.404420 0.414140 0.643900 -0.554763
O9    O     O_R   0.404420 0.585860 0.643900 -0.545206
C3    C     C_R   0.382344 0.386299 0.809123 0.688268
C4    C     C_R   0.381888 0.614023 0.807319 0.645022
V2    V     V_3+5 0.489040 0.500000 0.560660 1.456133
O10   O     O_3   0.559070 0.500000 0.859200 -0.360584
C5    C     C_2   0.312389 0.682899 0.804033 0.071795
C6    C     C_2   0.317113 0.315672 0.810456 0.105094
C7    C     C_2   0.328662 0.749208 0.924605 0.288529
C8    C     C_2   0.256183 0.311341 0.941999 0.318389
C9    C     C_2   0.215357 0.830975 0.098151 -0.143194
C10   C     C_2   0.192678 0.185547 0.091137 -0.140205
C11   C     C_2   0.256702 0.816380 0.933748 0.140180
C12   C     C_2   0.187878 0.241606 0.938407 0.041195
C13   C     C_2   0.790668 0.788354 0.330800 -0.191525
C14   C     C_2   0.794554 0.215479 0.332309 -0.210623
C15   C     C_2   0.809830 0.830426 0.498283 0.235272
C16   C     C_2   0.833128 0.188753 0.508998 0.234561
H1    H     H_    0.830759 0.799280 0.212509 0.099124
H2    H     H_    0.809265 0.184002 0.202507 0.096504
C17   C     C_2   0.711286 0.730408 0.291917 0.351946
C18   C     C_2   0.738950 0.292629 0.303257 0.349893
C19   C     C_2   0.698303 0.669832 0.420357 0.232122
C20   C     C_2   0.669653 0.307459 0.409408 0.234244
O11   O     O_R   0.925070 0.912130 0.373190 -0.543990
O12   O     O_R   0.925070 0.087870 0.373190 -0.550850
O13   O     O_R   0.914170 0.083600 0.699490 -0.542984
O14   O     O_R   0.914170 0.916400 0.699490 -0.536529
O15   O     O_R   0.094290 0.084740 0.929940 -0.544391
O16   O     O_R   0.094290 0.915260 0.929940 -0.532198
C21   C     C_R   0.894012 0.115194 0.527231 0.633187
C22   C     C_R   0.888568 0.889149 0.525155 0.653934
O17   O     O_3   0.068710 1.000000 0.587750 -0.377158
V3    V     V_3+5 0.998820 1.000000 0.839270 1.404352
O18   O     O_R   0.105520 0.913050 0.263180 -0.544813
O19   O     O_R   0.105520 0.086950 0.263180 -0.551328
C23   C     C_R   0.133527 0.889904 0.098708 0.716414
C24   C     C_R   0.124778 0.116357 0.096084 0.694779
V4    V     V_3+5 0.020980 1.000000 0.346670 1.381764
O20   O     O_3   0.950820 1.000000 0.048230 -0.366434
C25   C     C_3   0.253834 0.881050 0.774781 -0.335285
C26   C     C_3   0.290975 0.965157 0.851184 -0.320055
C27   C     C_3   0.300000 0.026628 0.687694 -0.741251
H3    H     H_    0.240657 0.022708 0.570787 0.244898
H4    H     H_    0.302984 0.090031 0.746101 0.241813
H5    H     H_    0.364837 0.015016 0.626024 0.212724
H6    H     H_    0.245160 0.992322 0.947951 0.191202
H7    H     H_    0.360224 0.957065 0.936720 0.188475
H8    H     H_    0.300250 0.860285 0.675915 0.181441
H9    H     H_    0.185005 0.885390 0.687255 0.206999
C28   C     C_3   0.108695 0.240216 0.769424 -0.308161
C29   C     C_3   0.102935 0.316457 0.634134 -0.334485
C30   C     C_3   0.017509 0.314877 0.482224 -0.772721
H10   H     H_    0.014100 0.256209 0.400480 0.219708
H11   H     H_    0.954711 0.322627 0.553401 0.260572
H12   H     H_    0.020311 0.366622 0.377835 0.225119
H13   H     H_    0.101032 0.373591 0.720620 0.209139
H14   H     H_    0.163811 0.318528 0.554894 0.222226
H15   H     H_    0.116868 0.185206 0.679094 0.204409
H16   H     H_    0.042370 0.235644 0.830249 0.154245
O21   O     O_3   0.416027 0.764110 0.021382 -0.660403
H17   H     H_    0.463432 0.735670 0.957037 0.296417
O22   O     O_3   0.250859 0.375829 0.069025 -0.658909
H18   H     H_    0.198613 0.365152 0.142956 0.279060
C31   C     C_3   0.266684 0.800807 0.289588 -0.328245
C32   C     C_3   0.355377 0.852908 0.341671 -0.287268
C33   C     C_3   0.433912 0.805414 0.462826 -0.641713
H19   H     H_    0.413965 0.783327 0.601382 0.195344
H20   H     H_    0.454623 0.751072 0.383031 0.251210
H21   H     H_    0.494704 0.846222 0.495378 0.215796
H22   H     H_    0.382761 0.876631 0.211651 0.230418
H23   H     H_    0.338601 0.909949 0.414491 0.160884
H24   H     H_    0.221846 0.805428 0.405147 0.183216
H25   H     H_    0.283609 0.734316 0.279761 0.207097
C34   C     C_3   0.273394 0.186911 0.253114 -0.362263
C35   C     C_3   0.356610 0.140998 0.192129 -0.322694
C36   C     C_3   0.444166 0.155757 0.332973 -0.735302
H26   H     H_    0.461781 0.222244 0.335075 0.216009
H27   H     H_    0.434973 0.134880 0.481505 0.235701
H28   H     H_    0.502271 0.120697 0.285303 0.231436
H29   H     H_    0.342088 0.073920 0.187265 0.177436
H30   H     H_    0.369306 0.161673 0.045381 0.223133
H31   H     H_    0.292104 0.251137 0.293470 0.214744
H32   H     H_    0.254019 0.157216 0.386030 0.211315
O23   O     O_3   0.229363 0.678691 0.683532 -0.658120
H33   H     H_    0.228429 0.626510 0.610225 0.291673
O24   O     O_3   0.320809 0.251589 0.682780 -0.689322
H34   H     H_    0.374699 0.260666 0.613201 0.277411
O25   O     O_3   0.751400 0.822017 0.638424 -0.622403
H35   H     H_    0.770431 0.860335 0.746369 0.291006
O26   O     O_3   0.821621 0.235088 0.670931 -0.622606
H36   H     H_    0.860176 0.212072 0.786957 0.284567
O27   O     O_3   0.652239 0.736906 0.119438 -0.655212
H37   H     H_    0.671929 0.784495 0.044973 0.299339
O28   O     O_3   0.757532 0.349029 0.163651 -0.650159
H38   H     H_    0.810656 0.328359 0.102965 0.294641
O29   O     O_3   0.762027 0.660026 0.585604 -0.624637
H39   H     H_    0.746631 0.609920 0.656700 0.298271
O30   O     O_3   0.646589 0.247438 0.537122 -0.630047
H40   H     H_    0.591840 0.265840 0.595257 0.280887

loop_
_geom_bond_atom_site_label_1
_geom_bond_atom_site_label_2
_ccdc_geom_bond_type
C28   H16   S    
C13   C17   S    
O16   C23   A    
C10   C24   S    
C36   H26   S    
C30   H11   S    
C14   C18   S    
O26   H36   S    
O1    C2    A    
O8    C3    A    
O22   H18   S    
C7    O21   S    
O2    C1    A    
C19   O29   S    
O4    C2    A    
O24   H34   S    
C33   H19   S    
O19   V4    S    
C15   O25   S    
C12   C28   S    
C3    C6    S    
O14   C22   A    
O3    C1    A    
C35   H29   S    
C31   H25   S    
C10   C34   S    
V3    O20   S    
V2    O10   S    
C16   C21   S    
O18   C23   A    
O11   C22   A    
O8    V2    S    
C16   O26   S    
C8    C12   S    
O11   V4    S    
O29   H39   S    
C17   C19   D    
C5    O23   S    
C6    O24   S    
O7    V1    S    
C33   H20   S    
C30   H12   S    
C1    C19   S    
C4    C5    S    
O12   C21   A    
C34   H31   S    
C27   H4    S    
C13   H1    S    
O19   C24   A    
C25   C26   S    
C32   C33   S    
C32   H23   S    
C35   C36   S    
O17   V4    S    
C34   C35   S    
C18   C20   D    
C7    C11   S    
C31   C32   S    
O14   V3    S    
C29   C30   S    
C34   H32   S    
C11   C25   S    
O25   H35   S    
O9    V2    S    
O18   V4    S    
C2    C20   S    
O2    V2    S    
O5    C4    A    
C26   H7    S    
O1    V2    S    
C29   H13   S    
O9    C4    A    
C14   H2    S    
C18   O28   S    
C36   H27   S    
O17   V3    S    
C10   C12   D    
C25   H8    S    
O4    V1    S    
C26   C27   S    
C27   H5    S    
C28   H15   S    
C32   H22   S    
O6    V1    S    
C27   H3    S    
O15   V3    S    
C13   C15   D    
O28   H38   S    
C9    C31   S    
C14   C16   D    
C29   H14   S    
O13   V3    S    
C9    C11   D    
O7    V2    S    
O5    V1    S    
O3    V1    S    
V1    O10   S    
O30   H40   S    
O6    C3    A    
C33   H21   S    
C15   C22   S    
C31   H24   S    
C5    C7    D    
C8    O22   S    
C6    C8    D    
O13   C21   A    
C28   C29   S    
C26   H6    S    
C30   H10   S    
O16   V3    S    
O21   H17   S    
V4    O20   S    
C36   H28   S    
O27   H37   S    
C20   O30   S    
C35   H30   S    
C25   H9    S    
O23   H33   S    
O12   V4    S    
C17   O27   S    
O15   C24   A    
C9    C23   S    
