data_mof_unit_35260.cif
_audit_creation_date              2013-03-05T16:01:27-0500
_audit_creation_method            fapswitch 2.2
_symmetry_space_group_name_H-M    P1
_symmetry_Int_Tables_number       1
_space_group_crystal_system       triclinic
_cell_length_a                    14.654698
_cell_length_b                    14.70605
_cell_length_c                    19.338335
_cell_angle_alpha                 76.90212
_cell_angle_beta                  102.754998
_cell_angle_gamma                 115.344938
_cell_volume                      3632.06977965

loop_
_atom_site_label
_atom_site_type_symbol
_atom_site_description
_atom_site_fract_x
_atom_site_fract_y
_atom_site_fract_z
_atom_type_partial_charge
O1    O     O_R   0.977910 0.338110 0.524620 -0.588214
O2    O     O_R   0.022090 0.661890 0.475380 -0.593111
O3    O     O_R   0.839850 0.379180 0.493080 -0.589790
O4    O     O_R   0.160150 0.620820 0.506920 -0.590033
C1    C     C_R   0.879902 0.312147 0.513945 0.800023
C2    C     C_R   0.119989 0.688049 0.489862 0.812367
O5    O     O_R   0.069040 0.479450 0.615630 -0.585536
O6    O     O_R   0.930960 0.520550 0.384370 -0.587759
O7    O     O_R   0.930990 0.520520 0.584090 -0.592918
O8    O     O_R   0.069010 0.479480 0.415910 -0.579593
C3    C     C_R   0.999712 0.500339 0.631998 0.836158
C4    C     C_R   0.000671 0.500080 0.368070 0.833157
Cu1   Cu    Cu3+1 0.081740 0.475680 0.518680 0.917395
Cu2   Cu    Cu3+1 0.918260 0.524320 0.481320 0.913674
C5    C     C_R   0.965375 0.407937 0.754257 0.119416
C6    C     C_R   0.035192 0.588118 0.245174 0.119550
C7    C     C_R   0.967887 0.409425 0.826570 -0.255897
C8    C     C_R   0.035135 0.583897 0.173768 -0.263987
H1    H     H_    0.945750 0.337994 0.862765 0.178318
H2    H     H_    0.064781 0.654707 0.137864 0.179449
C9    C     C_R   0.996864 0.500819 0.852566 -0.118217
C10   C     C_R   0.997220 0.490676 0.148050 -0.110847
C11   C     C_R   0.020474 0.593226 0.804045 0.456379
C12   C     C_R   0.956674 0.398907 0.195435 0.431996
C13   C     C_R   0.028867 0.594317 0.732524 0.024209
C14   C     C_R   0.964267 0.401446 0.269104 0.006262
C15   C     C_R   0.998572 0.500930 0.707345 -0.123734
C16   C     C_R   0.000266 0.496532 0.293139 -0.126831
N1    N     N_R   0.052033 0.583103 0.961337 -0.192470
N2    N     N_R   0.953009 0.405912 0.041033 -0.198457
N3    N     N_R   0.051580 0.580415 0.030456 -0.258121
N4    N     N_R   0.952691 0.408637 0.971812 -0.260757
C17   C     C_R   0.000950 0.491912 0.071698 0.439981
C18   C     C_R   0.001041 0.497600 0.930251 0.424371
C19   C     C_R   0.812244 0.205101 0.532431 -0.097344
C20   C     C_R   0.186743 0.795703 0.493821 -0.097030
C21   C     C_R   0.785801 0.036480 0.599218 0.144848
C22   C     C_R   0.211013 0.964599 0.510238 0.144513
C23   C     C_R   0.851325 0.134913 0.573064 -0.185206
C24   C     C_R   0.146605 0.865397 0.496673 -0.191070
C25   C     C_R   0.707178 0.177344 0.518998 -0.261794
C26   C     C_R   0.291823 0.824794 0.505861 -0.257261
C27   C     C_R   0.639302 0.078668 0.542538 0.046388
C28   C     C_R   0.358676 0.923558 0.518923 0.048835
C29   C     C_R   0.679162 0.003317 0.573565 0.059491
C30   C     C_R   0.318140 0.998549 0.510096 0.055516
C31   C     C_R   0.532528 0.052752 0.532278 0.029308
C32   C     C_R   0.465197 0.949599 0.537688 0.030841
C33   C     C_R   0.505849 0.874831 0.562225 -0.209916
C34   C     C_R   0.491599 0.127432 0.516877 -0.207513
C35   C     C_R   0.610898 0.899463 0.575770 0.126514
C36   C     C_R   0.386458 0.102736 0.500989 0.118792
H3    H     H_    0.320454 0.769683 0.502513 0.154721
H4    H     H_    0.679277 0.233135 0.487365 0.158384
H5    H     H_    0.064866 0.840507 0.492981 0.160050
H6    H     H_    0.932919 0.158974 0.588659 0.154804
H7    H     H_    0.456672 0.795226 0.572093 0.151959
H8    H     H_    0.540705 0.206744 0.517659 0.147813
N5    N     N_R   0.795420 0.560800 0.453240 -0.174690
N6    N     N_R   0.204580 0.439200 0.546760 -0.174185
C37   C     C_R   0.709561 0.658377 0.374546 -0.307065
C38   C     C_R   0.284868 0.333843 0.621570 -0.317985
C39   C     C_R   0.796248 0.637309 0.398502 0.082542
C40   C     C_R   0.201855 0.361240 0.600715 0.091773
C41   C     C_R   0.712534 0.506326 0.488069 -0.006122
C42   C     C_R   0.285025 0.488318 0.509073 -0.011465
C43   C     C_R   0.626982 0.532514 0.471992 -0.041481
C44   C     C_R   0.366842 0.456585 0.522734 -0.022089
C45   C     C_R   0.623411 0.603560 0.409726 0.119315
C46   C     C_R   0.369369 0.384447 0.584452 0.114614
C47   C     C_R   0.543357 0.487706 0.512745 -0.013044
C48   C     C_R   0.449109 0.498400 0.480914 -0.008070
C49   C     C_R   0.442067 0.551214 0.409246 0.125190
C50   C     C_R   0.549731 0.434318 0.584299 0.135421
C51   C     C_R   0.532079 0.613760 0.379998 -0.195468
C52   C     C_R   0.459292 0.370739 0.612672 -0.210363
H9    H     H_    0.529063 0.663635 0.329624 0.148362
H10   H     H_    0.461862 0.319943 0.662652 0.149613
H11   H     H_    0.285232 0.553361 0.469800 0.121529
H12   H     H_    0.713333 0.441249 0.527021 0.124111
H13   H     H_    0.136350 0.322495 0.629113 0.112456
H14   H     H_    0.862729 0.678811 0.371295 0.117736
H15   H     H_    0.708933 0.715105 0.327800 0.134519
H16   H     H_    0.284413 0.276012 0.667754 0.138104
C53   C     C_3   0.923680 0.305736 0.728533 -0.402166
C54   C     C_3   0.812337 0.276315 0.694699 -0.836341
H17   H     H_    0.766261 0.276658 0.733120 0.254139
H18   H     H_    0.805682 0.330086 0.645289 0.248743
H19   H     H_    0.780873 0.198687 0.680352 0.255727
H20   H     H_    0.969641 0.306489 0.689675 0.202062
H21   H     H_    0.927998 0.245523 0.774161 0.200547
C55   C     C_3   0.075860 0.691553 0.269051 -0.397052
C56   C     C_3   0.185265 0.721231 0.307267 -0.837503
H22   H     H_    0.213281 0.797883 0.322848 0.241550
H23   H     H_    0.189460 0.666458 0.356534 0.247086
H24   H     H_    0.235675 0.723391 0.271095 0.256799
H25   H     H_    0.074898 0.751098 0.222083 0.199812
H26   H     H_    0.026335 0.692328 0.304669 0.199878
C57   C     C_3   0.341375 0.536118 0.359890 -0.421430
C58   C     C_3   0.340231 0.514941 0.285627 -0.811549
H27   H     H_    0.387458 0.584846 0.252666 0.243110
H28   H     H_    0.368630 0.454614 0.290375 0.251437
H29   H     H_    0.260885 0.489042 0.257046 0.252255
H30   H     H_    0.277842 0.468913 0.382248 0.212612
H31   H     H_    0.325228 0.605054 0.353067 0.200482
C59   C     C_3   0.649229 0.452074 0.635615 -0.420305
C60   C     C_3   0.646460 0.477426 0.707498 -0.827898
H32   H     H_    0.622641 0.541951 0.698523 0.262095
H33   H     H_    0.593922 0.410754 0.739662 0.244533
H34   H     H_    0.723749 0.499352 0.739227 0.244080
H35   H     H_    0.666242 0.383195 0.645617 0.199171
H36   H     H_    0.713658 0.518734 0.613902 0.214729
O9    O     O_3   0.040390 0.684007 0.826378 -0.603471
C61   C     C_3   0.948000 0.686433 0.835499 0.079899
H37   H     H_    0.967589 0.742114 0.872367 0.181241
H38   H     H_    0.895174 0.612226 0.861473 0.128504
C62   C     C_3   0.892864 0.720959 0.764306 -0.405824
H39   H     H_    0.942816 0.798365 0.740933 0.224249
H40   H     H_    0.874367 0.667788 0.725780 0.216394
C63   C     C_3   0.793896 0.722867 0.775365 -0.927115
H41   H     H_    0.745551 0.648375 0.803487 0.259505
H42   H     H_    0.750806 0.737841 0.722513 0.248156
H43   H     H_    0.810507 0.783591 0.807228 0.261784
O10   O     O_3   0.913909 0.306004 0.170914 -0.595513
C64   C     C_3   0.807821 0.279734 0.150616 0.053270
H44   H     H_    0.792805 0.337318 0.106540 0.150593
H45   H     H_    0.770633 0.274481 0.196613 0.117699
C65   C     C_3   0.759622 0.176501 0.124428 -0.296772
H46   H     H_    0.795700 0.180916 0.078195 0.239312
H47   H     H_    0.773425 0.118250 0.168229 0.214513
C66   C     C_3   0.644987 0.144136 0.101331 -0.933148
H48   H     H_    0.607067 0.137534 0.147115 0.255355
H49   H     H_    0.612428 0.068962 0.082687 0.259098
H50   H     H_    0.629502 0.200460 0.056645 0.259951
C67   C     C_3   0.074106 0.695562 0.684603 -0.402198
C68   C     C_3   0.186331 0.723095 0.681843 -0.793894
H51   H     H_    0.194906 0.667146 0.656520 0.255645
H52   H     H_    0.219535 0.799587 0.650020 0.248033
H53   H     H_    0.229541 0.724934 0.736842 0.262551
H54   H     H_    0.031121 0.693736 0.629614 0.199071
H55   H     H_    0.069462 0.758251 0.704438 0.237334
C69   C     C_3   0.936473 0.302405 0.321555 -0.358677
C70   C     C_3   0.028178 0.273590 0.347523 -0.768894
H56   H     H_    0.053569 0.261503 0.301571 0.259943
H57   H     H_    0.092500 0.334256 0.374533 0.256798
H58   H     H_    0.006713 0.202018 0.386354 0.223508
H59   H     H_    0.907941 0.307821 0.368394 0.179344
H60   H     H_    0.873421 0.238762 0.296729 0.212449
C71   C     C_3   0.644840 0.813164 0.581966 -0.448862
C72   C     C_3   0.599131 0.756398 0.517343 -0.796923
H61   H     H_    0.515685 0.712210 0.515921 0.242383
H62   H     H_    0.614729 0.810463 0.466688 0.254487
H63   H     H_    0.635058 0.702308 0.521597 0.250647
H64   H     H_    0.728108 0.840673 0.583623 0.208504
H65   H     H_    0.621757 0.758594 0.631329 0.201245
C73   C     C_3   0.352154 0.188913 0.465573 -0.428551
C74   C     C_3   0.408748 0.256021 0.402618 -0.808811
H66   H     H_    0.489064 0.303975 0.421433 0.245180
H67   H     H_    0.406770 0.208421 0.364712 0.255130
H68   H     H_    0.371045 0.307847 0.373649 0.244486
H69   H     H_    0.270595 0.159011 0.442411 0.207299
H70   H     H_    0.363926 0.237166 0.505937 0.212360
C75   C     C_3   0.830247 0.976428 0.661465 -0.437233
C76   C     C_3   0.887056 0.035727 0.724305 -0.842973
H71   H     H_    0.956158 0.103083 0.709394 0.239825
H72   H     H_    0.835957 0.060380 0.742915 0.258513
H73   H     H_    0.911867 0.985784 0.769523 0.245244
H74   H     H_    0.768941 0.907454 0.684274 0.215463
H75   H     H_    0.883015 0.953996 0.642694 0.201979
C77   C     C_3   0.164188 0.024620 0.534711 -0.429256
C78   C     C_3   0.108023 0.966384 0.599489 -0.853918
H76   H     H_    0.039494 0.898042 0.585513 0.240425
H77   H     H_    0.159819 0.943216 0.644004 0.262185
H78   H     H_    0.082379 0.016378 0.618384 0.240479
H79   H     H_    0.223167 0.095858 0.552757 0.210372
H80   H     H_    0.110336 0.043834 0.489762 0.199693

loop_
_geom_bond_atom_site_label_1
_geom_bond_atom_site_label_2
_geom_bond_distance
_ccdc_geom_bond_type
C6    C16   1.410528 A    
C70   H58   1.110543 S    
C42   C44   1.417193 A    
C78   H76   1.109439 S    
C56   H22   1.110462 S    
C60   H33   1.108952 S    
C20   C26   1.389750 A    
C75   C76   1.530468 S    
C71   H64   1.104412 S    
C66   H50   1.110969 S    
C65   H46   1.111802 S    
C61   H37   1.110956 S    
C53   H21   1.111695 S    
C55   H26   1.110267 S    
C67   C68   1.526584 S    
Cu1   N6    2.021503 S    
C77   H80   1.111261 S    
C53   C54   1.526504 S    
O5    C3    1.296175 A    
C42   H11   1.077517 S    
C78   H77   1.110512 S    
C74   H66   1.109779 S    
C50   C52   1.399826 A    
C4    C16   1.460365 S    
O1    C1    1.298686 A    
C73   C74   1.531199 S    
C12   C14   1.412059 A    
C62   H40   1.110560 S    
C26   H3    1.078884 S    
C54   H18   1.109153 S    
C11   O9    1.387828 S    
C59   C60   1.531586 S    
C29   C35   1.420018 A    
C70   H56   1.110844 S    
C30   C36   1.422395 A    
C12   O10   1.383318 S    
C33   H7    1.078631 S    
C38   C46   1.401409 A    
C70   H57   1.109551 S    
O4    Cu1   1.929644 S    
C37   C39   1.391586 A    
C55   C56   1.526797 S    
C38   C40   1.390788 A    
C66   H49   1.110352 S    
C57   C58   1.532101 S    
C63   H42   1.106327 S    
C33   C35   1.399039 A    
C72   H63   1.107452 S    
C64   C65   1.527307 S    
C34   C36   1.401018 A    
C60   H32   1.111118 S    
N3    C17   1.358179 A    
N2    N4    1.329138 A    
C43   C47   1.434187 A    
C63   H43   1.110606 S    
C44   C48   1.433904 A    
C77   H79   1.106197 S    
C57   H30   1.107629 S    
O2    Cu2   1.938504 S    
C73   H70   1.108777 S    
C56   H23   1.108610 S    
C41   H12   1.078160 S    
Cu1   Cu2   2.691072 S    
N1    N3    1.329650 A    
C25   C27   1.402581 A    
O2    C2    1.297549 A    
C26   C28   1.404260 A    
C68   H53   1.110825 S    
C75   H75   1.111388 S    
C28   C30   1.424431 A    
C55   H25   1.111944 S    
C22   C77   1.524877 S    
C31   C34   1.411187 A    
C59   H35   1.109835 S    
C67   H54   1.109514 S    
C57   H31   1.109999 S    
C78   H78   1.110955 S    
C69   C70   1.526731 S    
C39   H14   1.081775 S    
C34   H8    1.078479 S    
C69   H60   1.107981 S    
C20   C24   1.398417 A    
C68   H52   1.109388 S    
C37   H15   1.083677 S    
C62   C63   1.524645 S    
C54   H17   1.110935 S    
C68   H51   1.109466 S    
C59   H36   1.106734 S    
C9    C18   1.480720 S    
C41   C43   1.415562 A    
N1    C18   1.356709 A    
C54   H19   1.108719 S    
C58   H29   1.111354 S    
C7    C9    1.401025 A    
C5    C53   1.515968 S    
C43   C45   1.411760 A    
N4    C18   1.356807 A    
C19   C23   1.396670 A    
O7    Cu2   1.944879 S    
Cu2   N5    2.021505 S    
C72   H62   1.110975 S    
C50   C59   1.526961 S    
C27   C29   1.423798 A    
C5    C15   1.411696 A    
C31   C32   1.406392 A    
C3    C15   1.462901 S    
O6    C4    1.296977 A    
C24   H5    1.082898 S    
C58   H28   1.109511 S    
C23   H6    1.082977 S    
C25   H4    1.078809 S    
C51   H9    1.083412 S    
O3    Cu2   1.929643 S    
O8    C4    1.293922 A    
O4    C2    1.302807 A    
C32   C33   1.410169 A    
C73   H69   1.106994 S    
C6    C55   1.517529 S    
C56   H24   1.110889 S    
O7    C3    1.296122 A    
C46   C52   1.391068 A    
C64   H44   1.114286 S    
C60   H34   1.110615 S    
C10   C12   1.416847 A    
C36   C73   1.525754 S    
C49   C51   1.400311 A    
C21   C29   1.428630 A    
C66   H48   1.110970 S    
C65   C66   1.526021 S    
C63   H41   1.110603 S    
O9    C61   1.419580 S    
C37   C45   1.402128 A    
C49   C57   1.526884 S    
C10   C17   1.485271 S    
C38   H16   1.083743 S    
C76   H71   1.109294 S    
O6    Cu2   1.939795 S    
N2    C17   1.356478 A    
C8    C10   1.403689 A    
C14   C16   1.415794 A    
C69   H59   1.109098 S    
C76   H73   1.110612 S    
C52   H10   1.083701 S    
C48   C49   1.432585 A    
O3    C1    1.299858 A    
O8    Cu1   1.944879 S    
C65   H47   1.111773 S    
C47   C50   1.432890 A    
C61   H38   1.114679 S    
C53   H20   1.109865 S    
C5    C7    1.395641 A    
C74   H68   1.109203 S    
C13   C15   1.416296 A    
N5    C39   1.356755 A    
C21   C75   1.522379 S    
N6    C40   1.357096 A    
C6    C8    1.396058 A    
C9    C11   1.417659 A    
C75   H74   1.105719 S    
C71   H65   1.110266 S    
C47   C48   1.441526 A    
C21   C23   1.402095 A    
C14   C69   1.523515 S    
C62   H39   1.111513 S    
N5    C41   1.361789 A    
C22   C24   1.404714 A    
C1    C19   1.467721 S    
C76   H72   1.110086 S    
C58   H27   1.109418 S    
C7    H1    1.083472 S    
C67   H55   1.107787 S    
C2    C20   1.471463 S    
C45   C51   1.391927 A    
C8    H2    1.083230 S    
C11   C13   1.411275 A    
C19   C25   1.392189 A    
C40   H13   1.081875 S    
C22   C30   1.429743 A    
C61   C62   1.532753 S    
N6    C42   1.361788 A    
O5    Cu1   1.939795 S    
O1    Cu1   1.938503 S    
C35   C71   1.522366 S    
C74   H67   1.110860 S    
C77   C78   1.531575 S    
C13   C67   1.521851 S    
C64   H45   1.114023 S    
C44   C46   1.411223 A    
C72   H61   1.109679 S    
C71   C72   1.527022 S    
C27   C31   1.421141 A    
C28   C32   1.419931 A    
O10   C64   1.416135 S    
