data_mof_unit_31159.cif
_audit_creation_date              2012-12-11T14:29:34-0500
_audit_creation_method            fapswitch 2.2
_symmetry_space_group_name_H-M    P1
_symmetry_Int_Tables_number       1
_space_group_crystal_system       triclinic
_cell_length_a                    6.940394
_cell_length_b                    14.737837
_cell_length_c                    16.239124
_cell_angle_alpha                 90.460048
_cell_angle_beta                  90.004371
_cell_angle_gamma                 89.991198
_cell_volume                      1660.98789176

loop_
_atom_site_label
_atom_site_type_symbol
_atom_type_description
_atom_site_fract_x
_atom_site_fract_y
_atom_site_fract_z
_atom_type_partial_charge
O1    O     O_R   0.494400 0.416610 0.413880 -0.542828
O2    O     O_R   0.823920 0.406790 0.585520 -0.540454
O3    O     O_R   0.994250 0.583390 0.586120 -0.536543
C1    C     C_R   0.654694 0.385136 0.613589 0.745251
O4    O     O_R   0.824110 0.405730 0.414490 -0.541267
O5    O     O_R   0.994440 0.582310 0.413870 -0.540295
C2    C     C_R   0.654874 0.383697 0.386325 0.742937
O6    O     O_R   0.494210 0.417690 0.586130 -0.545855
O7    O     O_3   0.660810 0.557940 0.500000 -0.370142
V1    V     V_3+5 0.935650 0.489250 0.500000 1.409181
O8    O     O_R   0.324160 0.593210 0.414480 -0.544630
C3    C     C_R   0.155429 0.614999 0.386357 0.736472
O9    O     O_R   0.323970 0.594270 0.585510 -0.538768
C4    C     C_R   0.155113 0.616178 0.613888 0.694985
V2    V     V_3+5 0.435660 0.510750 0.500000 1.408437
O10   O     O_3   0.160630 0.442060 0.500000 -0.373979
H1    H     H_    0.832050 0.893198 0.519890 0.114536
C5    C     C_R   0.312395 0.578650 0.775515 -0.141855
C6    C     C_R   0.388192 0.558031 0.852545 -0.123945
C7    C     C_R   0.375530 0.620539 0.916774 -0.119738
C8    C     C_R   0.287123 0.704196 0.904467 -0.131196
C9    C     C_R   0.211144 0.727785 0.826582 0.069652
C10   C     C_R   0.223920 0.663571 0.760646 0.070041
C11   C     C_R   0.119703 0.812791 0.814357 -0.185771
C12   C     C_R   0.040889 0.833373 0.736007 0.069500
C13   C     C_R   0.053599 0.769145 0.670075 0.069274
C14   C     C_R   0.144990 0.684117 0.682306 -0.185981
C15   C     C_R   0.952643 0.918350 0.721128 -0.142097
C16   C     C_R   0.877020 0.939018 0.644079 -0.125024
C17   C     C_R   0.889528 0.876480 0.579860 -0.121203
C18   C     C_R   0.977673 0.792757 0.592187 -0.131454
H2    H     H_    0.322820 0.526783 0.728271 0.110712
H3    H     H_    0.455680 0.492814 0.862606 0.116037
H4    H     H_    0.433112 0.603848 0.976732 0.113092
H5    H     H_    0.277628 0.749483 0.957026 0.107290
H6    H     H_    0.942315 0.970230 0.768369 0.111125
H7    H     H_    0.809787 0.004293 0.634004 0.119445
H8    H     H_    0.987058 0.747447 0.539638 0.108502
C19   C     C_2   0.985372 0.709777 0.283022 -0.133950
C20   C     C_2   0.150296 0.682743 0.319501 -0.312721
H9    H     H_    0.849401 0.681750 0.303999 0.136665
H10   H     H_    0.287889 0.710200 0.300633 0.128349
C21   C     C_2   0.973081 0.777241 0.215031 -0.134197
C22   C     C_2   0.126270 0.814488 0.177104 -0.311177
H11   H     H_    0.829118 0.796236 0.195397 0.134420
H12   H     H_    0.271355 0.796124 0.194905 0.128818
C23   C     C_2   0.779288 0.207651 0.781089 -0.138603
C24   C     C_2   0.614160 0.179540 0.816564 -0.312437
H13   H     H_    0.915317 0.179458 0.801859 0.135337
H14   H     H_    0.476185 0.206084 0.797186 0.127628
C25   C     C_2   0.791333 0.276061 0.714051 -0.134109
C26   C     C_2   0.638242 0.317743 0.680105 -0.313151
H15   H     H_    0.934884 0.292250 0.691964 0.134923
H16   H     H_    0.493457 0.302906 0.700732 0.127096
C27   C     C_2   0.779175 0.208994 0.213951 -0.130547
C28   C     C_2   0.614063 0.181858 0.177388 -0.311109
H17   H     H_    0.914998 0.180312 0.193090 0.137163
H18   H     H_    0.476557 0.209859 0.196101 0.127257
C29   C     C_2   0.791645 0.277483 0.281886 -0.136261
C30   C     C_2   0.638297 0.315446 0.319544 -0.308753
H19   H     H_    0.935594 0.296598 0.301709 0.135072
H20   H     H_    0.493205 0.296990 0.301621 0.129018
O11   O     O_R   0.770210 0.079270 0.910680 -0.541404
O12   O     O_R   0.440150 0.091160 0.082270 -0.545586
O13   O     O_R   0.269970 0.914530 0.082860 -0.544507
C31   C     C_R   0.608814 0.113254 0.110490 0.743772
O14   O     O_R   0.440480 0.090100 0.911240 -0.545037
O15   O     O_R   0.270310 0.913460 0.910610 -0.536720
C32   C     C_R   0.609151 0.111706 0.883089 0.745330
O16   O     O_R   0.769870 0.080340 0.082930 -0.538607
O17   O     O_3   0.603660 0.938980 0.996790 -0.369980
V3    V     V_3+5 0.328750 0.007610 0.996740 1.402305
O18   O     O_R   0.940600 0.902510 0.911180 -0.539030
C33   C     C_R   0.109485 0.880687 0.882791 0.694363
O19   O     O_R   0.940270 0.903570 0.082200 -0.540202
C34   C     C_R   0.109549 0.881871 0.110350 0.736274
V4    V     V_3+5 0.828770 0.986010 0.996670 1.414915
O20   O     O_3   0.103730 0.054750 0.996710 -0.374058

loop_
_geom_bond_atom_site_label_1
_geom_bond_atom_site_label_2
_ccdc_geom_bond_type
C27   C28   D    
C27   C29   S    
O18   C33   A    
C6    C7    A    
C24   C32   S    
C1    O6    A    
C23   H13   S    
V4    O20   S    
C12   C15   A    
C13   C14   A    
O13   C34   A    
C1    C26   S    
C15   C16   A    
C5    C6    A    
O5    C3    A    
C17   C18   A    
O15   C33   A    
V2    O10   S    
C30   H20   S    
O14   V3    S    
C22   C34   S    
V3    O20   S    
O8    V2    S    
O11   C32   A    
C26   H16   S    
O1    V2    S    
C10   C14   A    
C4    C14   S    
O7    V1    S    
C7    H4    S    
C24   H14   S    
C29   C30   D    
O9    C4    A    
O16   V4    S    
H1    C17   S    
C22   H12   S    
C29   H19   S    
C5    C10   A    
C11   C12   A    
C19   H9    S    
C6    H3    S    
C19   C20   D    
O4    C2    A    
C23   C25   S    
C12   C13   A    
C25   C26   D    
C25   H15   S    
O12   C31   A    
C3    C20   S    
O2    C1    A    
O19   C34   A    
C16   C17   A    
C21   H11   S    
C23   C24   D    
O15   V3    S    
O19   V4    S    
O3    C4    A    
O6    V2    S    
C27   H17   S    
C21   C22   D    
C9    C11   A    
C5    H2    S    
O2    V1    S    
C2    C30   S    
O17   V4    S    
O11   V4    S    
O1    C2    A    
C13   C18   A    
O5    V1    S    
C19   C21   S    
O8    C3    A    
C8    H5    S    
O13   V3    S    
C18   H8    S    
O9    V2    S    
O7    V2    S    
O17   V3    S    
O3    V1    S    
V1    O10   S    
C11   C33   S    
C31   O16   A    
C28   C31   S    
C20   H10   S    
C28   H18   S    
O12   V3    S    
O4    V1    S    
C7    C8    A    
C15   H6    S    
C16   H7    S    
O18   V4    S    
C9    C10   A    
O14   C32   A    
C8    C9    A    
