data_mof_unit_57212.cif
_audit_creation_date              2013-03-05T16:15:04-0500
_audit_creation_method            fapswitch 2.2
_symmetry_space_group_name_H-M    P1
_symmetry_Int_Tables_number       1
_space_group_crystal_system       triclinic
_cell_length_a                    8.169808
_cell_length_b                    17.348272
_cell_length_c                    18.807425
_cell_angle_alpha                 102.333896
_cell_angle_beta                  90.836535
_cell_angle_gamma                 98.45722
_cell_volume                      2572.85166045

loop_
_atom_site_label
_atom_site_type_symbol
_atom_site_description
_atom_site_fract_x
_atom_site_fract_y
_atom_site_fract_z
_atom_type_partial_charge
P1    P     P_3+3 0.038810 0.422920 0.331160 0.455477
O1    O     O_2   0.871520 0.445720 0.321500 -0.373598
O2    O     O_3   0.121030 0.451930 0.411150 -0.403325
O3    O     O_3   0.662190 0.593100 0.375060 -0.383939
O4    O     O_2   0.786902 0.542599 0.250236 -0.361033
O5    O     O_3   0.004628 0.318548 0.305570 -0.574596
O6    O     O_3   0.709848 0.686701 0.273315 -0.531600
H1    H     H_    0.664453 0.741593 0.378160 0.126318
C1    C     C_3   0.653193 0.820399 0.305320 -0.909945
H2    H     H_    0.787158 0.844870 0.314316 0.266596
H3    H     H_    0.613980 0.817953 0.248000 0.276727
P2    P     P_3+3 0.678260 0.686080 0.568600 0.470620
P3    P     P_3+3 0.129670 0.739181 0.427454 0.458848
O7    O     O_2   0.853880 0.696450 0.547730 -0.374448
O8    O     O_3   0.085100 0.636210 0.413950 -0.391418
O9    O     O_2   0.966851 0.772424 0.447795 -0.394318
O10   O     O_3   0.690155 0.712532 0.663980 -0.557423
O11   O     O_3   0.176980 0.764815 0.343921 -0.543512
C2    C     C_3   0.136045 0.696792 0.287404 0.486352
H4    H     H_    0.003734 0.671700 0.287663 0.184253
H5    H     H_    0.212858 0.650675 0.293026 0.043207
C3    C     C_3   0.168052 0.719309 0.214486 -0.985082
H6    H     H_    0.129849 0.666322 0.169535 0.246272
H7    H     H_    0.095793 0.767052 0.208122 0.271106
C4    C     C_3   0.258841 0.716417 0.645095 0.395959
H8    H     H_    0.366242 0.687461 0.625472 0.113177
H9    H     H_    0.168170 0.711881 0.599414 0.103581
C5    C     C_3   0.319920 0.803897 0.679618 -0.913835
H10   H     H_    0.402507 0.808462 0.728272 0.272965
H11   H     H_    0.390936 0.833889 0.640847 0.224408
H12   H     H_    0.212912 0.835198 0.696433 0.265984
Ba1   Ba    Ba6+2 0.853800 0.535410 0.467450 1.553853
C6    C     C_3   0.952967 0.286227 0.364685 0.425011
H13   H     H_    0.833586 0.304799 0.380998 0.087917
H14   H     H_    0.045288 0.305762 0.411216 0.125869
C7    C     C_3   0.931234 0.195623 0.341115 -0.978361
H15   H     H_    0.833858 0.174314 0.296553 0.271087
H16   H     H_    0.894472 0.167746 0.387402 0.209319
H17   H     H_    0.049763 0.176671 0.321514 0.270857
C8    C     C_3   0.726017 0.648055 0.691977 0.441202
H18   H     H_    0.847315 0.632903 0.673700 0.094244
H19   H     H_    0.629001 0.595064 0.674495 0.131701
C9    C     C_3   0.733200 0.672022 0.774783 -0.975260
H20   H     H_    0.833386 0.723364 0.794016 0.271521
H21   H     H_    0.758260 0.621533 0.798606 0.223201
H22   H     H_    0.612945 0.689175 0.793920 0.258169
P4    P     P_3+3 0.150900 0.577150 0.668860 0.456643
O12   O     O_2   0.318180 0.554310 0.678550 -0.375361
O13   O     O_3   0.068680 0.548140 0.588860 -0.397258
O14   O     O_3   0.527520 0.406960 0.624950 -0.315876
O15   O     O_3   0.181214 0.681070 0.697923 -0.576165
P5    P     P_3+3 0.072870 0.261846 0.582646 0.581030
O16   O     O_3   0.608500 0.402060 0.457050 -0.399194
O17   O     O_3   0.104610 0.363860 0.586060 -0.400904
O18   O     O_2   0.212060 0.224845 0.539315 -0.285414
O19   O     O_3   0.103194 0.247333 0.670784 -0.440400
Ba2   Ba    Ba6+2 0.336030 0.464660 0.532560 1.582572
P6    P     P_3+3 0.647393 0.588588 0.282503 0.440015
C10   C     C_3   0.621422 0.737302 0.321126 0.439591
H23   H     H_    0.486252 0.715786 0.314418 0.047306
H24   H     H_    0.581416 0.860535 0.342038 0.223912
O20   O     O_3   0.581210 0.598010 0.542960 -0.407168
C11   C     C_3   0.463832 0.337205 0.305145 0.441975
H25   H     H_    0.340766 0.350236 0.323799 0.096967
H26   H     H_    0.557531 0.391731 0.322016 0.122510
C12   C     C_3   0.454713 0.313521 0.222344 -0.999186
H27   H     H_    0.359071 0.260116 0.203473 0.272174
H28   H     H_    0.421707 0.363158 0.199119 0.219740
H29   H     H_    0.576698 0.299746 0.202380 0.261808
P7    P     P_3+3 0.519129 0.301497 0.428392 0.448409
O21   O     O_2   0.335820 0.303580 0.452320 -0.366825
O22   O     O_3   0.508133 0.273954 0.333090 -0.575644
H30   H     H_    0.301948 0.740913 0.211081 0.264464
C13   C     C_3   0.024157 0.302194 0.718871 0.512752
H31   H     H_    0.097636 0.362919 0.727202 0.111556
H32   H     H_    0.896927 0.303278 0.697847 0.001404
C14   C     C_3   0.012022 0.278192 0.792035 -0.961924
H33   H     H_    0.137674 0.282259 0.816977 0.270854
H34   H     H_    0.942900 0.318671 0.829614 0.218040
H35   H     H_    0.945924 0.216118 0.784704 0.282384
P8    P     P_3+3 0.545144 0.415034 0.719904 0.479360
C15   C     C_3   0.532905 0.272281 0.748411 0.916991
H36   H     H_    0.665462 0.297632 0.759083 -0.131749
O23   O     O_2   0.444653 0.480848 0.754024 -0.392665
O24   O     O_3   0.432223 0.330920 0.744745 -0.547121
H37   H     H_    0.566793 0.190978 0.819286 0.250018
C16   C     C_3   0.481284 0.233267 0.812143 -0.981424
H38   H     H_    0.353129 0.200183 0.801882 0.280602
H39   H     H_    0.485878 0.278938 0.863612 0.214591
C17   C     C_R   0.995563 0.458630 0.044915 0.089600
C18   C     C_R   0.905662 0.414601 0.090496 -0.131098
C19   C     C_R   0.764082 0.432628 0.950613 -0.179185
C20   C     C_R   0.930701 0.462214 0.974618 0.060212
C21   C     C_R   0.705678 0.433622 0.880785 -0.192084
C22   C     C_R   0.811689 0.461123 0.830570 -0.013515
C23   C     C_R   0.974137 0.498611 0.855235 0.009013
C24   C     C_R   0.032773 0.500299 0.927743 0.034301
C25   C     C_R   0.760271 0.453414 0.756764 0.127242
C26   C     C_R   0.870595 0.483057 0.709074 -0.521273
C27   C     C_R   0.025091 0.527613 0.733957 0.253969
C28   C     C_R   0.076208 0.536786 0.808273 -0.040529
C29   C     C_R   0.157262 0.498490 0.069928 0.030779
C30   C     C_R   0.220374 0.499340 0.142055 0.022077
C31   C     C_R   0.117306 0.461328 0.189396 -0.023077
C32   C     C_R   0.964787 0.416204 0.160711 -0.060792
H40   H     H_    0.830546 0.476664 0.652758 0.181276
H41   H     H_    0.576168 0.412223 0.866679 0.165512
H42   H     H_    0.887912 0.381113 0.192075 0.156665
C33   C     C_R   0.224376 0.584731 0.837857 -0.048727
C34   C     C_R   0.280987 0.587073 0.908284 -0.194048
C35   C     C_R   0.192490 0.540989 0.953025 0.052887
C36   C     C_R   0.256189 0.537459 0.023016 0.042752
C37   C     C_R   0.420167 0.569159 0.045810 -0.234805
C38   C     C_R   0.385355 0.537933 0.166304 -0.089764
C39   C     C_R   0.484936 0.571225 0.114965 -0.102116
C40   C     C_R   0.439075 0.541089 0.239977 0.147977
C41   C     C_R   0.328820 0.508898 0.286854 -0.512389
C42   C     C_R   0.169662 0.468646 0.263520 0.244069
H43   H     H_    0.299598 0.621418 0.807294 0.165363
H44   H     H_    0.369507 0.513469 0.342798 0.177943
H45   H     H_    0.673997 0.410187 0.985493 0.135517
H46   H     H_    0.788008 0.377613 0.073111 0.110813
H47   H     H_    0.393919 0.627621 0.926467 0.132647
H48   H     H_    0.505496 0.590992 0.008772 0.133086
C43   C     C_2   0.427412 0.723437 0.492368 -0.511618
C44   C     C_3   0.299820 0.779467 0.497477 0.205782
C45   C     C_2   0.380125 0.860954 0.490257 -0.201193
C46   C     C_2   0.545304 0.883517 0.503826 0.080783
C47   C     C_2   0.646377 0.825517 0.524213 -0.231831
C48   C     C_1   0.576261 0.751516 0.523753 0.303083
C49   C     C_R   0.798320 0.138384 0.538424 0.259450
C50   C     C_R   0.867352 0.217742 0.539823 0.066243
C51   C     C_R   0.623983 0.236256 0.473201 0.339078
C52   C     C_R   0.557108 0.156385 0.468535 -0.199365
C53   C     C_R   0.640857 0.107557 0.502541 -0.010073
C54   C     C_2   0.630163 0.962699 0.496512 -0.142643
C55   C     C_2   0.553472 0.027296 0.504312 -0.053298
C56   C     C_R   0.776533 0.266892 0.510477 -0.471263
H49   H     H_    0.421930 0.022726 0.513234 0.172129
H50   H     H_    0.776494 0.844901 0.540438 0.184681
H51   H     H_    0.761332 0.968000 0.486449 0.166843
H52   H     H_    0.301980 0.900195 0.474040 0.152592
H53   H     H_    0.437661 0.132956 0.440370 0.149456
H54   H     H_    0.395664 0.660879 0.465548 0.180752
H55   H     H_    0.827363 0.328941 0.514385 0.162726
N1    N     N_R   0.512983 0.213011 0.679625 0.238864
O25   O     O_R   0.518404 0.237377 0.619098 -0.389162
O26   O     O_R   0.481883 0.136682 0.677397 -0.355502
C57   C     C_2   0.658841 0.610013 0.125983 1.104609
O27   O     O_2   0.769781 0.569446 0.119863 -0.644998
O28   O     O_R   0.695632 0.692435 0.131529 -0.788331
H56   H     H_    0.819201 0.712027 0.134328 0.329441
N2    N     N_R   0.880170 0.092624 0.578937 0.236715
O29   O     O_R   0.024767 0.073972 0.560904 -0.374223
O30   O     O_R   0.810657 0.069994 0.634423 -0.347529

loop_
_geom_bond_atom_site_label_1
_geom_bond_atom_site_label_2
_geom_bond_distance
_ccdc_geom_bond_type
C12   H28   1.109307 S    
C16   H38   1.110360 S    
C11   H26   1.110473 S    
C44   C45   1.503032 S    
C20   C24   1.420353 A    
C18   C32   1.392734 A    
C29   C36   1.415485 A    
C22   C23   1.413783 A    
C46   C47   1.497088 S    
C38   C39   1.432026 A    
C22   C25   1.417135 A    
O12   Ba2   2.869328 S    
P4    O13   1.586143 S    
C14   H33   1.108760 S    
C4    C5    1.523338 S    
C55   H49   1.084083 S    
C7    H17   1.110866 S    
P2    C48   1.833382 S    
O4    P6    1.544250 D    
C1    H24   1.109984 S    
C19   C20   1.413435 A    
C5    H10   1.110920 S    
C2    H5    1.107693 S    
O11   C2    1.404249 S    
C49   C53   1.419318 A    
C57   O28   1.398111 S    
H1    C10   1.107673 S    
C24   C35   1.412303 A    
C12   H29   1.110832 S    
P8    C25   1.853619 S    
C43   H54   1.085836 S    
C28   C33   1.397580 A    
C15   C16   1.532987 S    
C6    C7    1.522034 S    
O13   Ba2   2.886542 S    
C40   C41   1.409283 A    
O1    Ba1   2.868780 S    
P1    O1    1.496618 D    
C34   C35   1.416004 A    
C36   C37   1.395246 A    
C52   H53   1.083677 S    
C43   C48   1.321553 D    
C8    C9    1.521580 S    
C17   C29   1.420862 A    
C2    H4    1.104823 S    
C18   H46   1.078120 S    
P2    O10   1.751590 S    
P7    C51   1.843011 S    
O28   H56   1.013573 S    
P7    O21   1.573300 D    
N2    O30   1.300926 A    
C1    H2    1.110840 S    
O6    P6    1.749320 S    
N1    O26   1.302601 A    
P5    O18   1.545185 D    
C8    H19   1.109220 S    
C12   H27   1.110575 S    
C11   C12   1.521102 S    
C51   C56   1.395606 A    
C23   C28   1.422338 A    
P2    Ba1   3.400875 S    
P6    C40   1.865853 S    
O2    Ba1   2.885723 S    
C19   H45   1.078187 S    
Ba1   Ba2   4.522284 S    
O16   P7    1.754799 S    
O6    C10   1.403334 S    
C31   C32   1.403403 A    
C15   N1    1.460729 S    
P5    O17   1.737646 S    
C31   C42   1.426032 A    
C14   H34   1.108074 S    
C32   H42   1.079238 S    
C21   H41   1.077921 S    
O19   C13   1.403842 S    
C13   H31   1.111506 S    
P1    O5    1.750207 S    
P5    C50   1.836476 S    
Ba2   O20   2.799030 S    
C2    C3    1.520189 S    
C41   H44   1.081766 S    
O16   Ba2   2.880264 S    
H37   C16   1.111046 S    
P4    O15   1.747580 S    
C4    H8    1.103800 S    
C13   C14   1.520940 S    
P1    Ba1   3.392205 S    
P4    C27   1.876261 S    
P1    O2    1.585981 S    
C45   H52   1.083939 S    
C9    H20   1.110582 S    
C4    O15   1.389130 S    
C54   H51   1.084906 S    
C34   H47   1.077102 S    
P4    Ba2   3.392853 S    
P2    O20   1.585340 S    
P4    O12   1.496928 D    
C49   N2    1.434428 S    
C23   C24   1.431683 A    
C39   C57   1.471383 S    
C19   C21   1.395164 A    
C6    H13   1.099148 S    
C21   C22   1.401605 A    
Ba2   O21   2.878072 S    
C1    H3    1.110399 S    
C37   H48   1.078834 S    
O3    Ba1   2.756055 S    
C13   H32   1.110891 S    
P3    C44   1.850067 S    
P3    O11   1.755271 S    
C8    H18   1.103304 S    
P2    O7    1.488528 D    
C15   H36   1.105603 S    
P3    O8    1.732149 S    
C51   C52   1.396468 A    
C3    H7    1.110381 S    
C45   C46   1.353270 D    
O2    Ba2   2.810943 S    
Ba1   O16   2.799613 S    
P8    O23   1.538685 D    
C33   H43   1.079221 S    
C17   C20   1.434224 A    
N1    O25   1.295397 A    
C30   C38   1.434969 A    
C14   H35   1.110695 S    
C53   C55   1.475692 S    
C26   H40   1.081740 S    
C7    H15   1.110683 S    
C35   C36   1.425206 A    
O14   Ba2   2.755557 S    
C5    H12   1.110638 S    
O7    Ba1   2.877873 S    
C54   C55   1.344967 D    
C49   C50   1.403515 A    
O8    Ba1   2.734323 S    
C38   C40   1.434673 A    
O5    C6    1.392497 S    
C52   C53   1.408505 A    
C4    H9    1.108348 S    
C15   O24   1.410892 S    
C41   C42   1.398683 A    
C26   C27   1.396737 A    
C46   C54   1.479836 S    
C47   C48   1.324815 D    
Ba1   O20   2.881082 S    
C5    H11   1.106658 S    
C9    H21   1.107987 S    
C57   O27   1.219054 D    
C17   C18   1.410990 A    
C43   C44   1.517145 S    
C47   H50   1.085253 S    
C7    H16   1.107579 S    
C27   C28   1.421844 A    
C6    H14   1.108340 S    
P1    C42   1.900479 S    
C29   C30   1.440493 A    
C9    H22   1.110809 S    
Ba1   O13   2.810354 S    
C11   H25   1.108302 S    
C10   H23   1.108748 S    
C11   O22   1.403169 S    
C25   C26   1.402027 A    
P3    O9    1.547460 D    
O3    P6    1.727381 S    
C30   C31   1.430393 A    
C16   H39   1.108476 S    
C3    H6    1.110418 S    
P7    O22   1.750953 S    
C56   H55   1.081865 S    
C3    H30   1.110359 S    
C1    C10   1.519584 S    
N2    O29   1.300973 A    
C33   C34   1.386933 A    
C50   C56   1.399049 A    
O10   C8    1.399213 S    
P8    O24   1.762565 S    
P5    O19   1.748488 S    
O14   P8    1.763308 S    
C37   C39   1.388291 A    
O17   Ba2   2.734913 S    
