data_mof_unit_39449.cif
_audit_creation_date              2012-12-11T14:56:24-0500
_audit_creation_method            fapswitch 2.2
_symmetry_space_group_name_H-M    P1
_symmetry_Int_Tables_number       1
_space_group_crystal_system       triclinic
_cell_length_a                    10.50791
_cell_length_b                    10.577235
_cell_length_c                    17.108936
_cell_angle_alpha                 80.334556
_cell_angle_beta                  89.553381
_cell_angle_gamma                 118.702902
_cell_volume                      1635.60823822

loop_
_atom_site_label
_atom_site_type_symbol
_atom_type_description
_atom_site_fract_x
_atom_site_fract_y
_atom_site_fract_z
_atom_type_partial_charge
C1    C     C_R   0.279256 0.888951 0.132850 0.564825
C2    C     C_1   0.636627 0.311604 0.705251 -0.005866
C3    C     C_R   0.621016 0.714584 0.803283 -0.160414
C4    C     C_R   0.638094 0.284281 0.085400 0.570588
C5    C     C_R   0.606610 0.698471 0.725414 -0.140847
C6    C     C_R   0.663258 0.822906 0.664068 -0.010070
C7    C     C_R   0.738350 0.963380 0.680718 -0.066139
C8    C     C_R   0.758500 0.980646 0.758911 0.237949
C9    C     C_R   0.689783 0.855282 0.821082 0.035854
C10   C     C_R   0.207630 0.982891 0.761945 0.121865
C11   C     C_R   0.129260 0.942147 0.697798 0.246446
C12   C     C_R   0.826724 0.467813 0.250880 -0.108556
C13   C     C_R   0.102537 0.810105 0.673134 -0.003658
C14   C     C_R   0.144976 0.715495 0.717171 -0.162570
C15   C     C_R   0.211958 0.749765 0.785681 -0.152123
C16   C     C_R   0.640496 0.857851 0.125309 0.545663
C17   C     C_R   0.239689 0.880424 0.809621 -0.035798
C18   C     C_R   0.686735 0.810117 0.357145 0.540430
C19   C     C_R   0.727346 0.460295 0.383098 0.557620
C20   C     C_R   0.108632 0.812325 0.359843 0.548286
C21   C     C_R   0.676239 0.800758 0.584792 0.542111
C22   C     C_R   0.675830 0.376100 0.623493 0.556889
C23   C     C_R   0.808270 0.437568 0.174665 0.215133
C24   C     C_R   0.042511 0.781791 0.597846 0.565965
C25   C     C_R   0.285920 0.903327 0.887815 0.534543
C26   C     C_R   0.614820 0.222283 0.858883 0.546746
C27   C     C_R   0.647183 0.867554 0.898755 0.539197
C28   C     C_R   0.549469 0.361157 0.196288 0.031028
C29   C     C_R   0.571345 0.395296 0.271746 -0.119044
C30   C     C_R   0.707127 0.438135 0.301312 -0.047843
C31   C     C_R   0.665839 0.368749 0.149642 0.026903
C32   C     C_1   0.668918 0.847846 0.205334 -0.014361
C33   C     C_1   0.680785 0.839006 0.274691 -0.020404
C34   C     C_1   0.227654 0.853820 0.215438 -0.013702
C35   C     C_1   0.178941 0.833953 0.283009 -0.027810
C36   C     C_1   0.623311 0.268451 0.775525 0.002553
Cl1   Cl    Cl    0.066936 0.062238 0.649627 -0.520616
Cl2   Cl    Cl    0.968359 0.488171 0.113865 -0.517099
Cl3   Cl    Cl    0.875984 0.159922 0.773948 -0.513974
Cr1   Cr    Cr6+3 0.402240 0.783890 0.019450 1.104007
Cr2   Cr    Cr6+3 0.382360 0.097900 0.991800 1.092114
Cr3   Cr    Cr6+3 0.715380 0.118170 0.988700 1.128048
Cr4   Cr    Cr6+3 0.936650 0.882420 0.465510 1.093737
Cr5   Cr    Cr6+3 0.605770 0.565620 0.493360 1.063806
Cr6   Cr    Cr6+3 0.921340 0.550490 0.496380 1.063041
H1    H     H_    0.125648 0.614920 0.699028 0.185261
H2    H     H_    0.239477 0.672622 0.820717 0.176518
H3    H     H_    0.479946 0.382995 0.308241 0.177902
H4    H     H_    0.934571 0.512958 0.271203 0.163161
H5    H     H_    0.570443 0.616877 0.849915 0.166326
H6    H     H_    0.554388 0.588110 0.713242 0.171303
H7    H     H_    0.788912 0.058682 0.632621 0.186971
I1    I     I_    0.336185 0.299743 0.161852 -0.246071
I2    I     I_    0.269538 0.202312 0.782678 -0.181812
O1    O     O_R   0.521780 0.757110 0.108900 -0.496358
O2    O     O_R   0.805020 0.410040 0.421340 -0.497655
O3    O     O_R   0.049240 0.685450 0.403290 -0.515319
O4    O     O_R   0.275160 0.783810 0.101120 -0.428547
O5    O     O_R   0.077520 0.903010 0.551800 -0.443792
O6    O     O_R   0.802980 0.872780 0.546830 -0.478517
O7    O     O_R   0.578090 0.681300 0.569920 -0.506942
O8    O     O_R   0.608530 0.436370 0.586530 -0.484192
O9    O     O_R   0.798770 0.401880 0.597100 -0.489183
O10   O     O_R   0.043450 0.677890 0.566230 -0.500397
O11   O     O_3   0.821250 0.666180 0.485090 -0.312393
O12   O     O_R   0.513330 0.228330 0.898660 -0.506474
O13   O     O_R   0.237900 0.972600 0.090980 -0.462754
O14   O     O_R   0.511190 0.220540 0.061620 -0.500489
O15   O     O_R   0.736920 0.257720 0.063840 -0.444365
O16   O     O_R   0.710450 0.984050 0.081720 -0.485950
O17   O     O_R   0.524090 0.765520 0.933110 -0.531385
O18   O     O_R   0.277300 0.791600 0.938160 -0.460779
O19   O     O_R   0.240210 0.981010 0.915190 -0.460566
O20   O     O_R   0.739230 0.266130 0.888050 -0.435143
O21   O     O_R   0.712580 0.991850 0.918770 -0.460082
O22   O     O_3   0.499990 0.999980 0.999980 -0.353187
O23   O     O_R   0.083770 0.911170 0.376030 -0.483189
O24   O     O_R   0.808770 0.880340 0.383890 -0.489923
O25   O     O_R   0.584340 0.689460 0.394160 -0.513679
O26   O     O_R   0.614320 0.443940 0.423590 -0.492760

loop_
_geom_bond_atom_site_label_1
_geom_bond_atom_site_label_2
_ccdc_geom_bond_type
C19   O2    A    
Cr1   O17   S    
C15   H2    S    
C12   H4    S    
C7    C8    A    
C14   H1    S    
Cr4   O24   S    
C12   C23   A    
Cr6   O3    S    
Cr3   O21   S    
C20   O23   A    
C28   C29   A    
C7    H7    S    
C5    C6    A    
C10   C17   A    
Cr3   O16   S    
C34   C35   T    
C11   Cl1   S    
C1    O13   A    
C22   O9    A    
C20   C35   S    
Cr6   O2    S    
C18   O25   A    
C2    C22   S    
C8    Cl3   S    
C21   O7    A    
Cr4   O5    S    
C24   O10   A    
C13   C14   A    
Cr5   O11   S    
C27   O21   A    
C4    O15   A    
C3    H5    S    
C1    C34   S    
Cr2   O14   S    
Cr5   O25   S    
Cr3   O20   S    
Cr1   O4    S    
C29   H3    S    
C26   O12   A    
Cr5   O26   S    
C16   O16   A    
C21   O6    A    
Cr2   O13   S    
C4    O14   A    
C8    C9    A    
Cr5   O8    S    
C6    C21   S    
Cr6   O9    S    
Cr3   O15   S    
Cr1   O22   S    
C13   C24   S    
C23   C31   A    
C29   C30   A    
C3    C9    A    
C22   O8    A    
Cr4   O11   S    
Cr1   O1    S    
C25   O18   A    
Cr2   O12   S    
Cr4   O6    S    
C26   C36   S    
C18   O24   A    
Cr6   O11   S    
C16   C32   S    
C27   O17   A    
C9    C27   S    
C2    C36   T    
C15   C17   A    
Cr1   O18   S    
C12   C30   A    
C28   C31   A    
C3    C5    A    
C28   I1    S    
C6    C7    A    
Cr5   O7    S    
Cr4   O23   S    
C23   Cl2   S    
Cr6   O10   S    
Cr3   O22   S    
C17   C25   S    
C32   C33   T    
C16   O1    A    
C1    O4    A    
Cr2   O22   S    
C11   C13   A    
C24   O5    A    
C26   O20   A    
C25   O19   A    
C19   O26   A    
C10   I2    S    
C18   C33   S    
C4    C31   S    
C10   C11   A    
Cr2   O19   S    
C14   C15   A    
C5    H6    S    
C20   O3    A    
C19   C30   S    
