data_mof_unit_24299.cif
_audit_creation_date              2012-10-26T18:25:41-0400
_audit_creation_method            fapswitch 2.2
_symmetry_space_group_name_H-M    P1
_symmetry_Int_Tables_number       1
_space_group_crystal_system       triclinic
_cell_length_a                    7.473718
_cell_length_b                    8.777129
_cell_length_c                    11.004289
_cell_angle_alpha                 88.238174
_cell_angle_beta                  73.204789
_cell_angle_gamma                 102.213844
_cell_volume                      672.158835758

loop_
_atom_site_label
_atom_site_type_symbol
_atom_type_description
_atom_site_fract_x
_atom_site_fract_y
_atom_site_fract_z
_atom_type_partial_charge
C1    C     C_R   0.456194 0.201289 0.497875 0.546763
C2    C     C_2   0.552447 0.959098 0.523249 -0.015408
C3    C     C_3   0.339444 0.970751 0.381342 -0.279195
C4    C     C_3   0.325266 0.089136 0.282178 -0.417441
C5    C     C_3   0.652467 0.015030 0.622071 -0.273199
C6    C     C_3   0.508930 0.032669 0.748665 -0.395567
C7    C     C_R   0.544438 0.798492 0.499904 0.523867
C8    C     C_R   0.424581 0.493619 0.742310 0.546970
C9    C     C_R   0.574503 0.505302 0.257149 0.535027
C10   C     C_2   0.386857 0.495070 0.880034 0.241250
C11   C     C_2   0.606467 0.497382 0.119163 0.227322
C12   C     C_2   0.490185 0.427899 0.938119 0.279277
C13   C     C_2   0.457009 0.436063 0.075722 0.271450
C14   C     C_2   0.448660 0.039828 0.473329 -0.009595
Cu1   Cu    Cu3+1 0.688910 0.517800 0.485820 1.072329
Cu2   Cu    Cu3+1 0.311090 0.482200 0.514180 1.064942
H1    H     H_    0.189248 0.326628 0.110232 0.333909
H2    H     H_    0.444023 0.133439 0.740186 0.186567
H3    H     H_    0.393071 0.924168 0.780596 0.145126
H4    H     H_    0.583661 0.051784 0.822500 0.167494
H5    H     H_    0.731104 0.928604 0.643800 0.155313
H6    H     H_    0.765459 0.122575 0.584735 0.208518
H7    H     H_    0.958086 0.326329 0.686070 0.338751
H8    H     H_    0.043886 0.676748 0.314945 0.330831
H9    H     H_    0.671639 0.297174 0.931397 0.327076
H10   H     H_    0.876846 0.600543 0.079463 0.353931
H11   H     H_    0.197866 0.620080 0.890833 0.344524
H12   H     H_    0.220259 0.158526 0.327080 0.221847
H13   H     H_    0.468679 0.166728 0.234654 0.150974
H14   H     H_    0.273039 0.026312 0.208443 0.138809
H15   H     H_    0.413616 0.887414 0.324365 0.182326
H16   H     H_    0.192043 0.907347 0.437909 0.188443
N1    N     N_2   0.027170 0.455360 0.535550 0.087678
N2    N     N_2   0.972830 0.544640 0.464450 0.093810
O1    O     O_R   0.622710 0.286400 0.490790 -0.487076
O2    O     O_3   0.623307 0.349680 0.870481 -0.686829
O3    O     O_3   0.787680 0.551602 0.032906 -0.714502
O4    O     O_3   0.250060 0.569027 0.950193 -0.719985
O5    O     O_3   0.890477 0.380439 0.639548 -0.548366
O6    O     O_3   0.111039 0.622986 0.362062 -0.568614
O7    O     O_R   0.377290 0.713600 0.509210 -0.493367
O8    O     O_R   0.303660 0.256330 0.514730 -0.536013
O9    O     O_R   0.696340 0.743670 0.485270 -0.538304
O10   O     O_R   0.600900 0.509520 0.671740 -0.414585
O11   O     O_R   0.399100 0.490480 0.328260 -0.409890
O12   O     O_R   0.281840 0.479450 0.695690 -0.540885
O13   O     O_R   0.718160 0.520550 0.304310 -0.538832
O14   O     O_3   0.272308 0.383537 0.157943 -0.677471

loop_
_geom_bond_atom_site_label_1
_geom_bond_atom_site_label_2
_ccdc_geom_bond_type
Cu2   O11   S    
C13   O14   S    
H10   O3    S    
C9    O11   A    
C7    O9    A    
Cu2   N1    S    
C12   O2    S    
C6    H4    S    
Cu1   N2    S    
C4    H13   S    
H1    O14   S    
Cu1   O13   S    
C10   O4    S    
N1    N2    D    
Cu1   O9    S    
C3    H16   S    
C3    H15   S    
C6    H3    S    
C9    C11   S    
N1    O5    S    
C3    C14   S    
C10   C12   D    
H7    O5    S    
Cu1   O1    S    
C4    H12   S    
Cu1   O10   S    
C9    O13   A    
C7    O7    A    
C5    C6    S    
C2    C14   D    
C6    H2    S    
C8    O12   A    
C2    C5    S    
Cu1   Cu2   S    
H9    O2    S    
C3    C4    S    
Cu2   O8    S    
C1    O8    A    
C11   C13   D    
C5    H5    S    
C12   C13   S    
C1    O1    A    
C8    C10   S    
Cu2   O12   S    
C11   O3    S    
N2    O6    S    
C1    C14   S    
H11   O4    S    
C2    C7    S    
H8    O6    S    
Cu2   O7    S    
C4    H14   S    
C5    H6    S    
C8    O10   A    
