data_mof_unit_7094.cif
_audit_creation_date              2012-12-11T14:45:54-0500
_audit_creation_method            fapswitch 2.2
_symmetry_space_group_name_H-M    P1
_symmetry_Int_Tables_number       1
_space_group_crystal_system       triclinic
_cell_length_a                    10.923578
_cell_length_b                    10.924959
_cell_length_c                    18.685719
_cell_angle_alpha                 89.866551
_cell_angle_beta                  90.636105
_cell_angle_gamma                 119.876783
_cell_volume                      1933.45175122

loop_
_atom_site_label
_atom_site_type_symbol
_atom_type_description
_atom_site_fract_x
_atom_site_fract_y
_atom_site_fract_z
_atom_type_partial_charge
C1    C     C_R   0.866865 0.636801 0.604762 0.569675
C2    C     C_R   0.511311 0.715462 0.762596 -0.126323
C3    C     C_R   0.467270 0.693377 0.691245 -0.110989
C4    C     C_R   0.336000 0.678068 0.673072 0.035460
C5    C     C_R   0.829328 0.147620 0.816787 -0.036332
C6    C     C_R   0.083559 0.214292 0.820039 0.166726
C7    C     C_R   0.192641 0.205593 0.786261 -0.117267
C8    C     C_R   0.176958 0.157971 0.716130 -0.115053
C9    C     C_R   0.058936 0.131542 0.675468 0.108232
C10   C     C_R   0.949151 0.145645 0.706975 -0.009772
C11   C     C_R   0.953745 0.169359 0.782242 0.006094
C12   C     C_R   0.275866 0.635389 0.602244 0.536049
C13   C     C_R   0.706388 0.093896 0.700756 0.011121
C14   C     C_R   0.710078 0.125564 0.773771 0.003504
C15   C     C_R   0.577874 0.036937 0.661793 -0.054533
C16   C     C_R   0.458270 0.027555 0.692569 -0.085585
C17   C     C_R   0.467007 0.079652 0.761218 -0.106949
C18   C     C_R   0.592699 0.133415 0.800348 -0.059722
C19   C     C_R   0.833272 0.132507 0.666169 -0.026444
C20   C     C_R   0.711927 0.545960 0.712918 0.066692
C21   C     C_R   0.703872 0.546429 0.787354 -0.133821
C22   C     C_R   0.818443 0.648261 0.827524 -0.006087
C23   C     C_R   0.859510 0.218626 0.600335 0.553625
C24   C     C_R   0.944495 0.741757 0.793588 -0.152177
C25   C     C_R   0.950317 0.747199 0.720642 -0.162560
C26   C     C_R   0.836504 0.648270 0.679152 0.037660
C27   C     C_R   0.268706 0.536890 0.276567 -0.135570
C28   C     C_R   0.278303 0.547833 0.203501 -0.133111
C29   C     C_R   0.320897 0.678107 0.170671 0.020195
C30   C     C_R   0.328841 0.790121 0.210688 -0.153863
C31   C     C_R   0.316261 0.778405 0.284882 -0.149436
C32   C     C_R   0.293009 0.653453 0.318271 0.021319
C33   C     C_R   0.697517 0.097603 0.297409 -0.129525
C34   C     C_R   0.863211 0.640451 0.398929 0.542285
C35   C     C_R   0.678982 0.062351 0.225844 -0.136659
C36   C     C_R   0.789264 0.067796 0.186440 0.015426
C37   C     C_R   0.916607 0.099188 0.220940 -0.135803
C38   C     C_R   0.937421 0.139691 0.292734 -0.132763
C39   C     C_R   0.829766 0.145637 0.330157 0.029041
C40   C     C_R   0.911620 0.641809 0.273573 -0.118302
C41   C     C_R   0.891398 0.663792 0.202888 -0.111617
C42   C     C_R   0.787674 0.698022 0.184791 0.034918
C43   C     C_R   0.700047 0.704591 0.237099 -0.138830
C44   C     C_R   0.720826 0.682737 0.308602 -0.130350
C45   C     C_R   0.263991 0.630008 0.394147 0.536878
C46   C     C_R   0.828632 0.654158 0.326309 0.043180
C47   C     C_R   0.803085 0.099418 0.892901 0.567375
C48   C     C_R   0.461065 0.725726 0.889688 0.555666
C49   C     C_R   0.798264 0.688312 0.898501 0.544027
C50   C     C_R   0.767312 0.041112 0.109753 0.547398
C51   C     C_R   0.390038 0.702325 0.101867 0.533940
C52   C     C_R   0.775424 0.733059 0.111828 0.534530
C53   C     C_R   0.859573 0.224267 0.397090 0.543269
C54   C     C_R   0.252428 0.691368 0.725127 -0.137750
C55   C     C_R   0.297128 0.715424 0.795715 -0.136557
C56   C     C_R   0.422997 0.719527 0.814987 0.037941
Cr1   Cr    Cr6+3 0.791660 0.390250 0.499930 1.061084
Cr2   Cr    Cr6+3 0.098520 0.708290 0.500540 1.035955
Cr3   Cr    Cr6+3 0.109770 0.401430 0.499480 1.068209
Cr4   Cr    Cr6+3 0.874790 0.925890 0.000070 1.014893
Cr5   Cr    Cr6+3 0.574120 0.948670 0.999300 0.995613
Cr6   Cr    Cr6+3 0.551420 0.625320 0.000920 0.994327
H1    H     H_    0.149693 0.676383 0.711374 0.124216
H2    H     H_    0.360499 0.984851 0.662198 0.128310
H3    H     H_    0.571103 0.001995 0.606921 0.121181
H4    H     H_    0.376432 0.078673 0.784399 0.096326
H5    H     H_    0.605018 0.475117 0.812968 0.142673
H6    H     H_    0.036274 0.820187 0.822998 0.143321
H7    H     H_    0.048508 0.826294 0.697222 0.150253
H8    H     H_    0.241088 0.435766 0.300086 0.139448
H9    H     H_    0.264176 0.456810 0.173499 0.142469
H10   H     H_    0.351493 0.887990 0.185147 0.121793
H11   H     H_    0.229775 0.722229 0.835788 0.116548
H12   H     H_    0.325907 0.866423 0.315944 0.130284
H13   H     H_    0.611400 0.098306 0.325253 0.136497
H14   H     H_    0.580687 0.038386 0.200206 0.130336
H15   H     H_    0.002224 0.100171 0.191805 0.134581
H16   H     H_    0.039712 0.174319 0.317416 0.130216
H17   H     H_    0.993870 0.617628 0.287514 0.127628
H18   H     H_    0.958108 0.656637 0.162532 0.141026
H19   H     H_    0.619538 0.730933 0.222805 0.113075
H20   H     H_    0.656431 0.691559 0.349694 0.118507
H21   H     H_    0.613169 0.728991 0.777163 0.114454
H22   H     H_    0.533938 0.687078 0.650694 0.139833
H23   H     H_    0.290334 0.235168 0.814781 0.108726
H24   H     H_    0.258102 0.142761 0.692583 0.153120
H25   H     H_    0.596770 0.185006 0.850238 0.141657
O1    O     O_R   0.766500 0.250040 0.579790 -0.499729
O2    O     O_R   0.218690 0.701900 0.425960 -0.506200
O3    O     O_R   0.249490 0.516440 0.419420 -0.519252
O4    O     O_R   0.982880 0.281910 0.424890 -0.497994
O5    O     O_3   0.999980 0.499990 0.499980 -0.262883
O6    O     O_R   0.895110 0.806860 0.920430 -0.515346
O7    O     O_R   0.872260 0.046970 0.925000 -0.452614
O8    O     O_R   0.691430 0.085060 0.918550 -0.540271
O9    O     O_R   0.451490 0.822460 0.925250 -0.502078
O10   O     O_R   0.413330 0.603360 0.920440 -0.527870
O11   O     O_R   0.676110 0.626250 0.926750 -0.515770
O12   O     O_R   0.798570 0.516780 0.574780 -0.464717
O13   O     O_R   0.895350 0.809870 0.080950 -0.523800
O14   O     O_R   0.872490 0.049760 0.073800 -0.507988
O15   O     O_R   0.691680 0.088070 0.079070 -0.504692
O16   O     O_R   0.451720 0.825250 0.074050 -0.520469
O17   O     O_R   0.413580 0.606370 0.080960 -0.527252
O18   O     O_R   0.676340 0.629040 0.075550 -0.485209
O19   O     O_3   0.666780 0.833290 0.000090 -0.305734
O20   O     O_R   0.984000 0.732950 0.581090 -0.507845
O21   O     O_R   0.218600 0.700890 0.574760 -0.515613
O22   O     O_R   0.249390 0.515350 0.579940 -0.473716
O23   O     O_R   0.982790 0.280900 0.573700 -0.467598
O24   O     O_R   0.766600 0.251130 0.419260 -0.523346
O25   O     O_R   0.798660 0.517790 0.425980 -0.493514
O26   O     O_R   0.984100 0.734040 0.420570 -0.499490
I1    I     I_    0.527803 0.397894 0.656252 -0.399656
N1    N     N_2   0.108369 0.272084 0.890789 -0.487684
H26   H     H_    0.195956 0.279470 0.916461 0.247325
C57   C     C_3   0.098107 0.398284 0.899207 -0.259136
H27   H     H_    0.131755 0.441227 0.954214 0.166418
H28   H     H_    0.988774 0.376970 0.890861 0.134191
H29   H     H_    0.166460 0.477655 0.860008 0.167488
I2    I     I_    0.047726 0.046360 0.571453 -0.342991

loop_
_geom_bond_atom_site_label_1
_geom_bond_atom_site_label_2
_ccdc_geom_bond_type
C55   C56   A    
Cr1   O5    S    
C34   O25   A    
C41   C42   A    
C14   C18   A    
C35   C36   A    
C1    O12   A    
C41   H18   S    
Cr5   O9    S    
C36   C50   S    
C7    C8    A    
Cr6   O18   S    
Cr1   O24   S    
C34   O26   A    
C40   C46   A    
C48   O10   A    
C5    C47   S    
C17   H4    S    
C29   C30   A    
C28   C29   A    
Cr5   O16   S    
C39   C53   S    
C5    C11   A    
C44   H20   S    
C57   H28   S    
C30   C31   A    
Cr1   O25   S    
C54   H1    S    
C51   O16   A    
C15   C16   A    
Cr1   O12   S    
Cr3   O23   S    
Cr2   O20   S    
C32   C45   S    
C33   C35   A    
C49   O11   A    
Cr6   O11   S    
C33   H13   S    
C8    C9    A    
N1    C57   S    
C53   O4    A    
Cr2   O26   S    
C9    I2    S    
C15   H3    S    
C34   C46   S    
C4    C12   S    
C45   O2    A    
C9    C10   A    
C8    H24   S    
Cr4   O6    S    
C53   O24   A    
C21   C22   A    
C21   H5    S    
C2    H21   S    
C12   O22   A    
C44   C46   A    
Cr6   O17   S    
C38   C39   A    
C35   H14   S    
C13   C19   A    
C24   C25   A    
C57   H29   S    
C6    C11   A    
C12   O21   A    
C16   C17   A    
C31   H12   S    
Cr3   O4    S    
C38   H16   S    
C51   O17   A    
C37   H15   S    
C52   O13   A    
C3    C4    A    
Cr3   O3    S    
C19   C23   S    
C43   C44   A    
C37   C38   A    
C45   O3    A    
Cr6   O10   S    
C31   C32   A    
C10   C19   A    
C17   C18   A    
C40   H17   S    
C33   C39   A    
Cr5   O19   S    
C5    C14   A    
C27   H8    S    
C1    O20   A    
C22   C49   S    
C40   C41   A    
C52   O18   A    
C50   O15   A    
C23   O1    A    
C13   C15   A    
C1    C26   S    
C43   H19   S    
C22   C24   A    
C28   H9    S    
C25   H7    S    
C42   C43   A    
Cr4   O14   S    
C27   C28   A    
Cr4   O19   S    
C29   C51   S    
C48   C56   S    
C23   O23   A    
C54   C55   A    
C36   C37   A    
C48   O9    A    
C4    C54   A    
C27   C32   A    
Cr4   O13   S    
C30   H10   S    
Cr5   O8    S    
C6    C7    A    
Cr6   O19   S    
C18   H25   S    
Cr1   O1    S    
C2    C3    A    
C25   C26   A    
C2    C56   A    
C57   H27   S    
C20   I1    S    
C7    H23   S    
C20   C26   A    
Cr3   O22   S    
C47   O7    A    
Cr5   O15   S    
Cr2   O21   S    
Cr3   O5    S    
Cr2   O2    S    
C6    N1    S    
C10   C11   A    
C24   H6    S    
C55   H11   S    
C20   C21   A    
C50   O14   A    
C3    H22   S    
C47   O8    A    
C16   H2    S    
C49   O6    A    
C13   C14   A    
Cr2   O5    S    
N1    H26   S    
C42   C52   S    
Cr4   O7    S    
