data_mof_unit_59630.cif
_audit_creation_date              2012-12-10T19:08:06-0500
_audit_creation_method            fapswitch 2.2
_symmetry_space_group_name_H-M    P1
_symmetry_Int_Tables_number       1
_space_group_crystal_system       triclinic
_cell_length_a                    9.065038
_cell_length_b                    10.836549
_cell_length_c                    9.577322
_cell_angle_alpha                 90.197538
_cell_angle_beta                  90.250319
_cell_angle_gamma                 90.644324
_cell_volume                      940.741829657

loop_
_atom_site_label
_atom_site_type_symbol
_atom_type_description
_atom_site_fract_x
_atom_site_fract_y
_atom_site_fract_z
_atom_type_partial_charge
C1    C     C_R   0.499079 0.262792 0.499713 0.832531
C2    C     C_R   0.555881 0.935398 0.381913 -0.182671
C3    C     C_R   0.504451 0.869763 0.499409 -0.070110
C4    C     C_R   0.454511 0.937543 0.612437 0.035317
C5    C     C_3   0.380530 0.927390 0.750705 -0.007531
C6    C     C_3   0.374093 0.070633 0.747942 -0.027889
C7    C     C_R   0.579161 0.586949 0.074292 0.214588
C8    C     C_R   0.409363 0.422540 0.071410 0.231119
C9    C     C_R   0.410481 0.423121 0.923537 -0.077198
C10   C     C_R   0.579031 0.586983 0.927217 0.242386
C11   C     C_3   0.741561 0.609133 0.922077 -0.461077
C12   C     C_R   0.220795 0.499931 0.499813 0.887745
C13   C     C_3   0.741757 0.608890 0.080612 -0.474547
C14   C     C_R   0.501057 0.737143 0.500080 0.814697
C15   C     C_R   0.779211 0.500105 0.500213 0.838808
C16   C     C_1   0.065601 0.499971 0.499772 -0.119443
C17   C     C_1   0.934414 0.500042 0.500302 -0.152479
C18   C     C_R   0.451341 0.061722 0.611233 0.034850
C19   C     C_R   0.501107 0.130095 0.498270 -0.062324
C20   C     C_R   0.554623 0.064949 0.381523 -0.163090
Cu1   Cu    Cu3+1 0.499990 0.499980 0.640670 0.981341
Cu2   Cu    Cu3+1 0.500010 0.500020 0.359330 0.986508
H1    H     H_    0.770221 0.700324 0.126970 0.199994
N1    N     N_R   0.500920 0.500930 0.147930 -0.207145
N2    N     N_R   0.500930 0.500890 0.852020 -0.201007
O1    O     O_R   0.500000 0.319640 0.618810 -0.584575
O2    O     O_R   0.500020 0.319680 0.381230 -0.566579
O3    O     O_R   0.288380 0.499980 0.618770 -0.561043
O4    O     O_R   0.288400 0.500020 0.381190 -0.557317
O5    O     O_R   0.499980 0.680320 0.618770 -0.573352
O6    O     O_R   0.500000 0.680360 0.381190 -0.586992
O7    O     O_R   0.711600 0.499980 0.618810 -0.580015
O8    O     O_R   0.711620 0.500020 0.381230 -0.586346
H2    H     H_    0.595404 0.113516 0.290610 0.171203
H3    H     H_    0.769749 0.700739 0.876945 0.209975
H4    H     H_    0.802740 0.529735 0.125284 0.232234
H5    H     H_    0.597020 0.887192 0.291029 0.158160
I1    I     I_    0.177498 0.822606 0.737905 -0.311916
H6    H     H_    0.457661 0.892239 0.831526 0.121046
I2    I     I_    0.161713 0.155186 0.722004 -0.310622
H7    H     H_    0.445130 0.115378 0.828822 0.130450
I3    I     I_    0.259834 0.292581 0.159250 -0.312569
H8    H     H_    0.340291 0.359805 0.865996 0.182562
H9    H     H_    0.802526 0.530201 0.876764 0.232321

loop_
_geom_bond_atom_site_label_1
_geom_bond_atom_site_label_2
_ccdc_geom_bond_type
C8    C9    A    
C7    C10   A    
Cu1   O1    S    
Cu2   O4    S    
C12   O4    A    
Cu1   O5    S    
C19   C20   A    
C7    C13   S    
C14   O6    A    
C20   H2    S    
C11   H3    S    
C2    C3    A    
C9    N2    A    
C15   O7    A    
C5    I1    S    
C11   C13   S    
C2    H5    S    
C5    C6    S    
C3    C14   S    
C14   O5    A    
C10   N2    A    
C8    N1    A    
Cu1   O3    S    
C12   O3    A    
C6    I2    S    
Cu2   O2    S    
C5    H6    S    
C1    O1    A    
C6    C18   S    
Cu1   O7    S    
Cu2   N1    S    
C9    H8    S    
C1    C19   S    
C10   C11   S    
C2    C20   A    
C7    N1    A    
C12   C16   S    
C11   H9    S    
C13   H1    S    
C13   H4    S    
C1    O2    A    
C18   C19   A    
Cu2   O6    S    
C15   C17   S    
Cu2   O8    S    
Cu1   N2    S    
C16   C17   T    
Cu1   Cu2   S    
C4    C18   A    
C15   O8    A    
C3    C4    A    
C8    I3    S    
C4    C5    S    
C6    H7    S    
