data_mof_unit_42752.cif
_audit_creation_date              2012-12-11T17:01:28-0500
_audit_creation_method            fapswitch 2.2
_symmetry_space_group_name_H-M    P1
_symmetry_Int_Tables_number       1
_space_group_crystal_system       triclinic
_cell_length_a                    15.045317
_cell_length_b                    14.89204
_cell_length_c                    14.90037
_cell_angle_alpha                 109.514991
_cell_angle_beta                  109.265159
_cell_angle_gamma                 109.804266
_cell_volume                      2564.51291217

loop_
_atom_site_label
_atom_site_type_symbol
_atom_type_description
_atom_site_fract_x
_atom_site_fract_y
_atom_site_fract_z
_atom_type_partial_charge
C1    C     C_R   0.933469 0.748769 0.028089 -0.133928
C2    C     C_R   0.222847 0.757458 0.316212 -0.122822
C3    C     C_R   0.904184 0.408748 0.208477 -0.102012
C4    C     C_R   0.793988 0.194361 0.702598 -0.166421
C5    C     C_R   0.315526 0.590265 0.048071 -0.107992
C6    C     C_R   0.929570 0.500870 0.299223 0.063556
C7    C     C_R   0.324940 0.497601 0.031565 0.047128
C8    C     C_R   0.326527 0.791894 0.328329 0.070399
C9    C     C_R   0.933958 0.132253 0.936032 0.076379
C10   C     C_3   0.524419 0.388701 0.055879 -0.403820
C11   C     C_3   0.418031 0.386770 0.041484 -0.411618
C12   C     C_R   0.701286 0.129788 0.700143 0.064910
C13   C     C_3   0.631589 0.594646 0.175958 -0.465448
C14   C     C_3   0.548102 0.508039 0.967496 -0.390622
C15   C     C_3   0.603877 0.497462 0.068889 0.274862
C16   C     C_R   0.041964 0.590773 0.775102 -0.136705
C17   C     C_3   0.425397 0.496223 0.048516 0.190125
C18   C     C_3   0.527525 0.600892 0.158419 0.533257
C19   C     C_3   0.440310 0.501135 0.951889 -0.487749
C20   C     C_R   0.626548 0.955181 0.527593 0.051476
C21   C     C_R   0.624359 0.011851 0.622705 -0.004394
C22   C     C_R   0.530549 0.959070 0.628369 -0.158984
C23   C     C_R   0.967006 0.498984 0.671493 0.070820
C24   C     C_R   0.432680 0.875645 0.531603 -0.200073
C25   C     C_R   0.429376 0.845289 0.429995 0.045724
C26   C     C_R   0.529077 0.875856 0.431562 0.167350
C27   C     C_3   0.569355 0.908633 0.361935 -0.640720
C28   C     C_R   0.701150 0.407094 0.004793 -0.147191
C29   C     C_3   0.678002 0.991880 0.465931 0.423305
C30   C     C_R   0.929063 0.600236 0.471408 0.060232
C31   C     C_R   0.889445 0.501910 0.376285 -0.008775
C32   C     C_R   0.831402 0.401946 0.371181 -0.170546
C33   C     C_R   0.846319 0.401078 0.468450 -0.191219
C34   C     C_R   0.701491 0.497949 0.070284 0.059597
C35   C     C_R   0.918595 0.500168 0.569731 0.059646
C36   C     C_R   0.947129 0.599001 0.567847 0.109313
C37   C     C_3   0.049228 0.709174 0.636701 -0.662251
C38   C     C_3   0.027138 0.713787 0.532300 0.449765
C39   C     C_R   0.848123 0.879860 0.955482 0.148769
C40   C     C_R   0.943227 0.406708 0.683730 -0.119547
C41   C     C_R   0.904723 0.838086 0.913255 0.010041
C42   C     C_R   0.926144 0.864358 0.837612 -0.166967
C43   C     C_R   0.920330 0.953775 0.830866 -0.125814
C44   C     C_R   0.892830 0.015535 0.899837 0.001768
C45   C     C_R   0.991634 0.591600 0.296944 -0.166072
C46   C     C_R   0.842219 0.967879 0.948827 0.155173
C47   C     C_3   0.853736 0.017587 0.060516 -0.499304
C48   C     C_3   0.860173 0.921330 0.067707 -0.490864
C49   C     C_R   0.792435 0.590293 0.098534 -0.147767
C50   C     C_R   0.700623 0.195310 0.791115 -0.105865
C51   C     C_R   0.034193 0.762786 0.946539 -0.126366
C52   C     C_R   0.954711 0.784214 0.959384 0.073293
C53   C     C_3   0.488224 0.553104 0.283845 -0.115963
C54   C     C_R   0.221909 0.405823 0.964277 -0.142134
C55   C     C_R   0.314763 0.763595 0.224974 -0.111418
C56   C     C_R   0.905390 0.196981 0.997039 -0.139132
C57   C     C_R   0.996563 0.194900 0.905852 -0.130943
H1    H     H_    0.874762 0.749828 0.053839 0.106328
H2    H     H_    0.503129 0.315229 0.982226 0.165380
H3    H     H_    0.351415 0.315319 0.959081 0.173367
H4    H     H_    0.831074 0.166616 0.657462 0.150694
H5    H     H_    0.397547 0.369145 0.100717 0.148435
H6    H     H_    0.665354 0.583327 0.247113 0.203913
H7    H     H_    0.602489 0.588302 0.978596 0.157193
H8    H     H_    0.532427 0.441308 0.891369 0.180754
H9    H     H_    0.372013 0.426615 0.872013 0.197196
H10   H     H_    0.439979 0.574038 0.946928 0.160353
H11   H     H_    0.695149 0.675026 0.196086 0.169764
H12   H     H_    0.198307 0.319746 0.927035 0.103329
H13   H     H_    0.540098 0.671415 0.143374 0.043102
H14   H     H_    0.527322 0.991529 0.703084 0.123328
H15   H     H_    0.086465 0.674337 0.795702 0.106922
H16   H     H_    0.359032 0.846378 0.536400 0.133256
H17   H     H_    0.569797 0.841194 0.300986 0.258811
H18   H     H_    0.530551 0.950025 0.327762 0.156836
H19   H     H_    0.701689 0.077494 0.483010 0.008837
H20   H     H_    0.788554 0.323393 0.296515 0.123794
H21   H     H_    0.812400 0.322088 0.464068 0.130968
H22   H     H_    0.044202 0.771485 0.698109 0.229229
H23   H     H_    0.377477 0.784555 0.204631 0.109936
H24   H     H_    0.123906 0.703659 0.670071 0.169755
H25   H     H_    0.646481 0.321032 0.972864 0.088618
H26   H     H_    0.094464 0.719985 0.514650 0.006053
H27   H     H_    0.960533 0.826351 0.795048 0.146094
H28   H     H_    0.951107 0.982054 0.783590 0.180966
H29   H     H_    0.931193 0.097230 0.122030 0.204391
H30   H     H_    0.778760 0.017731 0.056819 0.191532
H31   H     H_    0.941287 0.946897 0.133173 0.205398
H32   H     H_    0.788901 0.866094 0.068127 0.193601
H33   H     H_    0.889315 0.320878 0.620849 0.105477
H34   H     H_    0.842210 0.169765 0.017136 0.099238
H35   H     H_    0.822334 0.675424 0.154626 0.123367
H36   H     H_    0.649028 0.168510 0.823721 0.081708
H37   H     H_    0.077212 0.791946 0.908210 0.088756
H38   H     H_    0.008557 0.674446 0.340969 0.150043
H39   H     H_    0.531935 0.506564 0.276931 0.111393
H40   H     H_    0.398473 0.497232 0.235881 0.115670
H41   H     H_    0.510541 0.594757 0.371449 0.172530
H42   H     H_    0.869737 0.951553 0.380544 0.387143
H43   H     H_    0.074026 0.992571 0.606005 0.386166
H44   H     H_    0.018938 0.165197 0.844930 0.120497
H45   H     H_    0.200730 0.766379 0.379326 0.106773
H46   H     H_    0.844814 0.323922 0.175614 0.081484
H47   H     H_    0.379709 0.671784 0.078858 0.077471
H48   H     H_    0.562611 0.381155 0.128864 0.156814
N1    N     N_R   0.995640 0.706130 0.053910 -0.040923
N2    N     N_R   0.054010 0.556790 0.847890 -0.044793
N3    N     N_R   0.789940 0.443190 0.997130 -0.037935
N4    N     N_R   0.997630 0.443170 0.791110 -0.041618
N5    N     N_R   0.846320 0.556810 0.053910 -0.039176
N6    N     N_R   0.791080 0.293860 0.847890 -0.042249
N7    N     N_R   0.052880 0.706130 0.997130 -0.043061
N8    N     N_R   0.002370 0.556830 0.208890 -0.040058
N9    N     N_R   0.153680 0.443190 0.946090 -0.038909
N10   N     N_R   0.208920 0.706140 0.152110 -0.048211
N11   N     N_R   0.947120 0.293870 0.002870 -0.042102
N12   N     N_R   0.004360 0.293870 0.946090 -0.040756
N13   N     N_R   0.151690 0.706140 0.208890 -0.042495
N14   N     N_R   0.945990 0.443210 0.152110 -0.041839
N15   N     N_R   0.210060 0.556810 0.002870 -0.044264
N16   N     N_R   0.848310 0.293860 0.791110 -0.040945
Ni1   Ni    Ni4+2 0.999010 0.630300 0.130220 0.234111
Ni2   Ni    Ni4+2 0.000990 0.369700 0.869780 0.234013
Ni3   Ni    Ni4+2 0.130280 0.630280 0.000000 0.211217
Ni4   Ni    Ni4+2 0.869720 0.369720 0.000000 0.203557
O1    O     O_3   0.517558 0.634603 0.254336 -0.604653
O2    O     O_2   0.878750 0.024437 0.582471 -0.319072
O3    O     O_2   0.736566 0.835889 0.434685 -0.202004
O4    O     O_3   0.818576 0.979414 0.380614 -0.543902
O5    O     O_2   0.934896 0.792706 0.413026 -0.319646
O6    O     O_2   0.910471 0.810543 0.571508 -0.242941
O7    O     O_3   0.101019 0.940818 0.608462 -0.543327
S1    S     S_3+6 0.781102 0.955940 0.468739 -0.010980
S2    S     S_3+6 0.988639 0.814870 0.528829 -0.025147

loop_
_geom_bond_atom_site_label_1
_geom_bond_atom_site_label_2
_ccdc_geom_bond_type
C18   H13   S    
C29   S1    S    
C51   N7    A    
C6    C45   A    
C38   H26   S    
C27   C29   S    
C41   C42   A    
C35   C36   A    
C16   H15   S    
C11   H5    S    
C2    N13   A    
C39   C41   A    
C29   H19   S    
N1    N7    A    
C37   H22   S    
C26   C27   S    
C20   C26   A    
C13   C18   S    
C36   C37   S    
N7    Ni3   S    
C10   C15   S    
C30   C31   A    
C24   H16   S    
N6    N16   A    
C2    H45   S    
C23   C40   A    
C54   N9    A    
N11   N12   A    
C30   C38   S    
C19   H9    S    
N13   Ni1   S    
C16   N2    A    
C17   C19   S    
C32   H20   S    
N8    N14   A    
C56   H34   S    
N8    Ni1   S    
C31   C32   A    
C7    C17   S    
N6    Ni4   S    
C48   H31   S    
C19   H10   S    
N3    Ni4   S    
C4    C12   A    
C27   H17   S    
C15   C34   S    
C1    N1    A    
C3    C6    A    
C6    C31   S    
C5    H47   S    
C28   C34   A    
C21   C22   A    
C53   H39   S    
C8    C25   S    
N2    N4    A    
C37   H24   S    
O5    S2    D    
O6    S2    D    
N2    Ni3   S    
C27   H18   S    
C8    C55   A    
C44   C46   A    
C20   C29   S    
H42   O4    S    
C5    N15   A    
C28   H25   S    
C51   C52   A    
C43   H28   S    
C47   H29   S    
C42   H27   S    
C24   C25   A    
C10   C11   S    
C5    C7    A    
N4    Ni2   S    
C53   H40   S    
C25   C26   A    
C12   C21   S    
C47   H30   S    
C43   C44   A    
C37   C38   S    
C47   C48   S    
C13   H6    S    
N10   N13   A    
C14   H7    S    
N1    Ni1   S    
C17   C18   S    
C56   N11   A    
C9    C56   A    
C9    C44   S    
C3    N14   A    
C39   C46   A    
O4    S1    S    
N9    Ni2   S    
N14   Ni4   S    
C16   C23   A    
C23   C35   S    
C48   H32   S    
C13   C15   S    
C22   C24   A    
C42   C43   A    
C49   H35   S    
C11   H3    S    
C45   H38   S    
C22   H14   S    
C57   N12   A    
C3    H46   S    
C46   C47   S    
C11   C17   S    
C34   C49   A    
N10   Ni3   S    
C41   C52   S    
C14   C19   S    
C2    C8    A    
O2    S1    D    
C12   C50   A    
H43   O7    S    
C50   H36   S    
C40   N4    A    
C53   H41   S    
C57   H44   S    
C30   C36   A    
N11   Ni4   S    
C32   C33   A    
C10   H2    S    
N12   Ni2   S    
C1    H1    S    
C18   O1    S    
C55   H23   S    
C54   H12   S    
C55   N10   A    
C28   N3    A    
C4    H4    S    
C50   N6    A    
C33   C35   A    
C14   H8    S    
N3    N5    A    
C4    N16   A    
C9    C57   A    
C38   S2    S    
C33   H21   S    
C1    C52   A    
N9    N15   A    
N16   Ni2   S    
C53   O1    S    
C51   H37   S    
C45   N8    A    
C20   C21   A    
O7    S2    S    
C14   C15   S    
C39   C48   S    
C10   H48   S    
C7    C54   A    
C40   H33   S    
O3    S1    D    
N5    Ni1   S    
N15   Ni3   S    
C49   N5    A    
C13   H11   S    
