data_mof_unit_64657.cif
_audit_creation_date              2012-12-11T16:49:55-0500
_audit_creation_method            fapswitch 2.2
_symmetry_space_group_name_H-M    P1
_symmetry_Int_Tables_number       1
_space_group_crystal_system       triclinic
_cell_length_a                    22.196451
_cell_length_b                    24.044952
_cell_length_c                    8.340541
_cell_angle_alpha                 90.000043
_cell_angle_beta                  94.234632
_cell_angle_gamma                 89.977397
_cell_volume                      4439.29912153

loop_
_atom_site_label
_atom_site_type_symbol
_atom_type_description
_atom_site_fract_x
_atom_site_fract_y
_atom_site_fract_z
_atom_type_partial_charge
Ba1   Ba    Ba6+2 0.999960 0.460860 0.844880 1.616077
Ba2   Ba    Ba6+2 0.999960 0.539140 0.344880 1.615381
Ba3   Ba    Ba6+2 0.499960 0.960860 0.844880 1.619316
Ba4   Ba    Ba6+2 0.499960 0.039140 0.344880 1.617485
C1    C     C_3   0.042858 0.199609 0.553640 -0.209756
C2    C     C_R   0.820015 0.664556 0.610826 -0.149619
C3    C     C_3   0.766678 0.753175 0.049774 -0.385237
C4    C     C_3   0.326358 0.733018 0.463092 -0.200917
C5    C     C_3   0.269831 0.742557 0.552751 -0.382272
C6    C     C_3   0.325411 0.266210 0.964457 -0.197630
C7    C     C_3   0.269208 0.255296 0.054189 -0.386804
C8    C     C_3   0.063042 0.167429 0.707627 -0.199904
C9    C     C_3   0.127318 0.182184 0.771892 -0.386632
C10   C     C_3   0.044902 0.833150 0.991917 -0.216946
C11   C     C_3   0.979494 0.853284 0.975382 -0.382244
C12   C     C_3   0.561680 0.666781 0.706129 -0.198713
C13   C     C_R   0.319412 0.836149 0.112422 -0.152873
C14   C     C_3   0.625925 0.681502 0.770702 -0.388891
C15   C     C_3   0.565193 0.329677 0.214225 -0.203637
C16   C     C_3   0.629302 0.312287 0.273083 -0.377135
C17   C     C_R   0.319612 0.164050 0.611535 -0.151798
C18   C     C_R   0.807582 0.288278 0.207065 0.245385
C19   C     C_R   0.807599 0.711640 0.706042 0.244998
C20   C     C_R   0.307017 0.789149 0.207743 0.246879
C21   C     C_R   0.307122 0.210966 0.707111 0.243102
C22   C     C_R   0.840645 0.281328 0.358662 -0.040801
C23   C     C_R   0.840096 0.718287 0.858452 -0.040357
C24   C     C_R   0.339977 0.782392 0.359527 -0.042535
C25   C     C_3   0.057721 0.793600 0.135045 -0.179821
C26   C     C_R   0.339795 0.217466 0.859380 -0.040134
C27   C     C_R   0.885645 0.320728 0.410626 -0.024796
C28   C     C_R   0.885915 0.679492 0.909465 -0.022850
C29   C     C_R   0.385540 0.821229 0.410642 -0.024423
C30   C     C_R   0.385323 0.178572 0.910562 -0.020997
C31   C     C_R   0.179133 0.665513 0.076338 -0.143722
C32   C     C_R   0.179339 0.334666 0.575589 -0.144771
C33   C     C_R   0.679049 0.165295 0.075744 -0.146682
C34   C     C_R   0.678668 0.834359 0.576308 -0.142045
C35   C     C_R   0.134261 0.626325 0.025718 0.036722
C36   C     C_3   0.541534 0.699126 0.552433 -0.209535
C37   C     C_R   0.134421 0.373827 0.525085 0.041202
C38   C     C_R   0.633831 0.126390 0.025659 0.037034
C39   C     C_R   0.633921 0.873651 0.525562 0.031331
C40   C     C_R   0.190411 0.712555 0.978866 0.245029
C41   C     C_R   0.190870 0.287815 0.477687 0.244922
C42   C     C_R   0.690485 0.212282 0.978367 0.245306
C43   C     C_R   0.689921 0.787327 0.478814 0.245969
C44   C     C_R   0.100795 0.634126 0.879354 -0.283002
C45   C     C_R   0.101172 0.366202 0.378253 -0.280551
C46   C     C_R   0.599799 0.134657 0.880291 -0.285664
C47   C     C_3   0.542986 0.300566 0.056797 -0.210728
C48   C     C_R   0.600336 0.865825 0.379266 -0.284809
C49   C     C_R   0.113429 0.678128 0.778303 -0.012792
C50   C     C_R   0.114004 0.322334 0.276812 -0.013133
C51   C     C_R   0.612866 0.178395 0.778570 -0.008941
C52   C     C_R   0.612947 0.821758 0.278181 -0.008113
C53   C     C_3   0.978087 0.259811 0.085296 0.358201
C54   C     C_3   0.980407 0.742767 0.589478 0.347978
C55   C     C_3   0.477623 0.759763 0.084286 0.357617
C56   C     C_3   0.477003 0.239768 0.580744 0.354768
C57   C     C_R   0.157177 0.717755 0.829027 -0.182793
C58   C     C_R   0.865093 0.373899 0.163877 0.032339
C59   C     C_R   0.157800 0.282736 0.327562 -0.185742
C60   C     C_R   0.657115 0.217673 0.828719 -0.183432
C61   C     C_R   0.656557 0.782038 0.329219 -0.184081
C62   C     C_3   0.948275 0.202906 0.072994 -0.393315
C63   C     C_3   0.949856 0.798712 0.557781 -0.383678
C64   C     C_3   0.447670 0.702930 0.071248 -0.392258
C65   C     C_3   0.447028 0.296646 0.569310 -0.395410
C66   C     C_3   0.174935 0.463297 0.175424 0.291812
C67   C     C_3   0.174775 0.536713 0.675584 0.291364
C68   C     C_3   0.673443 0.965263 0.207335 0.285855
C69   C     C_R   0.865471 0.626311 0.662740 0.033827
C70   C     C_3   0.672676 0.035069 0.706047 0.325230
C71   C     C_3   0.230788 0.427675 0.146623 -0.214383
C72   C     C_3   0.230641 0.572264 0.646970 -0.214639
C73   C     C_3   0.732262 0.933504 0.249355 -0.216633
C74   C     C_3   0.730220 0.067337 0.761797 -0.207825
C75   C     C_3   0.827915 0.536017 0.985958 0.312433
C76   C     C_3   0.826786 0.464058 0.488838 0.326456
C77   C     C_3   0.327542 0.035823 0.985458 0.310866
C78   C     C_3   0.327423 0.963868 0.488743 0.325922
C79   C     C_3   0.770586 0.571445 0.958244 -0.208460
C80   C     C_R   0.365241 0.874079 0.163590 0.032972
C81   C     C_3   0.769003 0.432063 0.433426 -0.210149
C82   C     C_3   0.270090 0.071147 0.958818 -0.208431
C83   C     C_3   0.270069 0.931344 0.432732 -0.209873
C84   C     C_3   0.021523 0.258931 0.586041 0.371607
C85   C     C_3   0.024752 0.737797 0.114235 0.374944
C86   C     C_3   0.520773 0.758601 0.585200 0.372660
C87   C     C_3   0.520360 0.241190 0.082231 0.371667
C88   C     C_R   0.898927 0.364703 0.309201 -0.300776
C89   C     C_R   0.899439 0.635624 0.807832 -0.305135
C90   C     C_R   0.399233 0.864852 0.308651 -0.302322
C91   C     C_R   0.365174 0.125908 0.663238 0.031856
C92   C     C_R   0.398873 0.134827 0.808863 -0.302319
C93   C     C_3   0.274432 0.457209 0.038829 -0.141041
C94   C     C_3   0.318034 0.417027 0.967612 -0.460694
C95   C     C_3   0.274230 0.542739 0.538923 -0.141135
C96   C     C_3   0.317668 0.582947 0.467370 -0.461127
C97   C     C_3   0.768164 0.923957 0.101401 -0.171617
C98   C     C_3   0.830504 0.900000 0.150418 -0.456896
C99   C     C_3   0.781180 0.063517 0.647109 -0.199485
C100  C     C_3   0.762048 0.084627 0.478581 -0.389697
C101  C     C_3   0.735340 0.577010 0.109855 -0.153483
C102  C     C_R   0.819586 0.335643 0.112357 -0.155398
C103  C     C_3   0.683009 0.535737 0.109829 -0.403373
C104  C     C_3   0.716381 0.440300 0.541318 -0.188423
C105  C     C_3   0.729412 0.415659 0.708856 -0.391568
C106  C     C_3   0.235861 0.077495 0.111949 -0.153875
C107  C     C_3   0.183228 0.036676 0.115101 -0.403296
C108  C     C_3   0.217232 0.938368 0.540369 -0.190745
C109  C     C_3   0.231589 0.915797 0.709834 -0.385975
C110  C     C_3   0.826963 0.231908 0.462957 -0.197115
C111  C     C_3   0.772166 0.243166 0.558188 -0.393389
C112  C     C_3   0.823793 0.766073 0.965667 -0.201637
H1    H     H_    0.055510 0.281200 0.666467 0.077505
H2    H     H_    0.215188 0.612332 0.591613 0.093375
H3    H     H_    0.198724 0.993306 0.099287 0.154939
H4    H     H_    0.162603 0.039924 0.232054 0.110941
H5    H     H_    0.266819 0.071840 0.221708 0.142455
H6    H     H_    0.217235 0.120355 0.116554 0.090763
H7    H     H_    0.246347 0.871775 0.705638 0.127277
H8    H     H_    0.267593 0.940999 0.773137 0.170543
H9    H     H_    0.190689 0.918262 0.778553 0.105919
H10   H     H_    0.204043 0.982864 0.546772 0.138459
H11   H     H_    0.177645 0.915317 0.484602 0.102637
H12   H     H_    0.903166 0.204840 0.122064 0.080374
H13   H     H_    0.721853 0.892540 0.301655 0.050855
H14   H     H_    0.978379 0.832533 0.613079 0.111451
H15   H     H_    0.402714 0.704808 0.121229 0.079723
H16   H     H_    0.401472 0.294278 0.615668 0.082644
H17   H     H_    0.205295 0.658740 0.189359 0.105073
H18   H     H_    0.205357 0.341323 0.688881 0.103772
H19   H     H_    0.705498 0.158256 0.188135 0.101575
H20   H     H_    0.704918 0.841169 0.689188 0.103583
H21   H     H_    0.779038 0.281540 0.630859 0.146644
H22   H     H_    0.730783 0.247774 0.476096 0.145863
H23   H     H_    0.765731 0.207969 0.641260 0.124480
H24   H     H_    0.718789 0.111748 0.777858 0.048404
H25   H     H_    0.818706 0.194308 0.387256 0.109579
H26   H     H_    0.865817 0.221009 0.547732 0.134081
H27   H     H_    0.727802 0.745916 0.960895 0.147129
H28   H     H_    0.773570 0.715777 0.127049 0.142439
H29   H     H_    0.755689 0.788950 0.126298 0.124918
H30   H     H_    0.860507 0.775797 0.058193 0.133969
H31   H     H_    0.816913 0.804624 0.893185 0.111258
H32   H     H_    0.276004 0.779219 0.632911 0.142310
H33   H     H_    0.229679 0.749216 0.467428 0.155292
H34   H     H_    0.261662 0.705568 0.627641 0.119227
H35   H     H_    0.849383 0.532536 0.870880 -0.009776
H36   H     H_    0.320237 0.696013 0.385299 0.109614
H37   H     H_    0.364338 0.722615 0.551167 0.134180
H38   H     H_    0.228972 0.249653 0.968654 0.146684
H39   H     H_    0.275445 0.217560 0.130311 0.144303
H40   H     H_    0.261168 0.291382 0.132753 0.121403
H41   H     H_    0.363319 0.276851 0.052494 0.133938
H42   H     H_    0.318394 0.303464 0.888061 0.110013
H43   H     H_    0.165810 0.752438 0.751198 0.082278
H44   H     H_    0.166379 0.248011 0.249841 0.080653
H45   H     H_    0.666063 0.252177 0.750542 0.080617
H46   H     H_    0.856247 0.465520 0.387374 -0.010115
H47   H     H_    0.664994 0.747209 0.251741 0.079265
H48   H     H_    0.067049 0.603718 0.839254 0.076510
H49   H     H_    0.067306 0.396552 0.338376 0.076202
H50   H     H_    0.565463 0.104690 0.841089 0.075145
H51   H     H_    0.566548 0.896220 0.339248 0.075116
H52   H     H_    0.159951 0.170573 0.682886 0.139965
H53   H     H_    0.131445 0.227246 0.798156 0.168029
H54   H     H_    0.139075 0.158831 0.884722 0.118685
H55   H     H_    0.031358 0.174996 0.802043 0.171051
H56   H     H_    0.061762 0.122185 0.680261 0.097143
H57   H     H_    0.348452 0.032080 0.869650 -0.009557
H58   H     H_    0.948837 0.818821 0.934879 0.140299
H59   H     H_    0.966089 0.869921 0.091762 0.136633
H60   H     H_    0.974724 0.886905 0.884109 0.104442
H61   H     H_    0.074874 0.869991 0.009868 0.109043
H62   H     H_    0.056132 0.812517 0.878601 0.115964
H63   H     H_    0.658590 0.670345 0.681325 0.139666
H64   H     H_    0.629892 0.726476 0.798370 0.167322
H65   H     H_    0.637772 0.657775 0.882818 0.118674
H66   H     H_    0.529962 0.674231 0.800528 0.170340
H67   H     H_    0.560423 0.621572 0.678296 0.097344
H68   H     H_    0.357037 0.965524 0.387638 -0.008619
H69   H     H_    0.633445 0.266472 0.281641 0.167370
H70   H     H_    0.662096 0.328160 0.189777 0.136606
H71   H     H_    0.640903 0.329946 0.394286 0.118377
H72   H     H_    0.565143 0.375354 0.193687 0.096014
H73   H     H_    0.533886 0.321298 0.308875 0.176068
H74   H     H_    0.137494 0.449775 0.089304 0.082791
H75   H     H_    0.137399 0.550213 0.589197 0.083991
H76   H     H_    0.644943 0.941789 0.115656 0.063579
H77   H     H_    0.647719 0.057962 0.606569 0.056934
H78   H     H_    0.859558 0.556854 0.076202 0.061200
H79   H     H_    0.850813 0.441814 0.590836 0.059348
H80   H     H_    0.359534 0.056850 0.074469 0.059049
H81   H     H_    0.049393 0.707333 0.194801 0.086537
H82   H     H_    0.351530 0.941816 0.590968 0.060272
H83   H     H_    0.741471 0.554011 0.856105 0.106638
H84   H     H_    0.753856 0.446141 0.310361 0.089872
H85   H     H_    0.240393 0.053224 0.858583 0.106729
H86   H     H_    0.254767 0.945412 0.309781 0.090793
H87   H     H_    0.783818 0.613660 0.921457 0.029984
H88   H     H_    0.779270 0.387034 0.425728 0.049859
H89   H     H_    0.282998 0.113158 0.919572 0.029674
H90   H     H_    0.280990 0.886504 0.424720 0.051111
H91   H     H_    0.017957 0.280775 0.468481 -0.087245
H92   H     H_    0.555059 0.780664 0.665221 0.076210
H93   H     H_    0.026131 0.723428 0.987931 -0.069946
H94   H     H_    0.517180 0.780450 0.467678 -0.087066
H95   H     H_    0.515476 0.221287 0.961987 -0.087573
H96   H     H_    0.004995 0.176795 0.488313 0.087810
H97   H     H_    0.107126 0.785332 0.146873 0.063345
H98   H     H_    0.503386 0.676589 0.487463 0.088217
H99   H     H_    0.505332 0.325188 0.996836 0.090113
H100  H     H_    0.080404 0.200961 0.472588 0.075432
H101  H     H_    0.046105 0.813994 0.248396 0.136508
H102  H     H_    0.578955 0.700203 0.470968 0.074447
H103  H     H_    0.554161 0.217045 0.158270 0.073384
H104  H     H_    0.579860 0.299809 0.973556 0.075192
H105  H     H_    0.793354 0.343351 0.999991 0.104705
H106  H     H_    0.793966 0.656912 0.498115 0.104099
H107  H     H_    0.293240 0.843852 0.999977 0.104697
H108  H     H_    0.293630 0.156504 0.498660 0.104252
H109  H     H_    0.933624 0.394286 0.348698 0.078700
H110  H     H_    0.934073 0.605976 0.847513 0.078302
H111  H     H_    0.434236 0.894205 0.347640 0.079149
H112  H     H_    0.433503 0.105162 0.848451 0.077287
H113  H     H_    0.950135 0.289236 0.008808 0.097475
H114  H     H_    0.255518 0.417865 0.264076 0.067679
H115  H     H_    0.951357 0.710330 0.528376 0.084600
H116  H     H_    0.449660 0.789400 0.008556 0.096636
H117  H     H_    0.449808 0.210637 0.501550 0.100872
H118  H     H_    0.979056 0.273359 0.212531 -0.059178
H119  H     H_    0.984163 0.735312 0.721352 -0.057433
H120  H     H_    0.478720 0.773027 0.211783 -0.060251
H121  H     H_    0.476868 0.225503 0.707093 -0.056829
H122  H     H_    0.942295 0.189615 0.945384 0.134201
H123  H     H_    0.905330 0.799157 0.610404 0.074538
H124  H     H_    0.441322 0.689985 0.943395 0.134498
H125  H     H_    0.255395 0.581982 0.764442 0.067409
H126  H     H_    0.441997 0.310638 0.442182 0.134256
H127  H     H_    0.976492 0.171912 0.142931 0.106940
H128  H     H_    0.942783 0.806213 0.426357 0.148632
H129  H     H_    0.475975 0.671712 0.140032 0.107182
H130  H     H_    0.474603 0.327349 0.642163 0.107203
H131  H     H_    0.161752 0.456430 0.299166 -0.039355
H132  H     H_    0.161468 0.543648 0.799196 -0.038599
H133  H     H_    0.649264 0.969429 0.318047 -0.000629
H134  H     H_    0.643875 0.032377 0.808650 -0.004494
H135  H     H_    0.339685 0.389583 0.062318 0.136840
H136  H     H_    0.760021 0.957401 0.342067 0.115543
H137  H     H_    0.292922 0.392058 0.873021 0.138788
H138  H     H_    0.353715 0.440713 0.910680 0.121551
H139  H     H_    0.248740 0.478699 0.937794 0.156492
H140  H     H_    0.300730 0.489025 0.111037 0.123370
H141  H     H_    0.292326 0.608071 0.373509 0.139489
H142  H     H_    0.339562 0.610228 0.562075 0.136863
H143  H     H_    0.353167 0.559294 0.409505 0.121529
H144  H     H_    0.300643 0.510942 0.610985 0.123378
H145  H     H_    0.248490 0.521235 0.438030 0.156504
H146  H     H_    0.857908 0.930608 0.224428 0.133906
H147  H     H_    0.747682 0.051177 0.881058 0.092022
H148  H     H_    0.826618 0.861028 0.220926 0.146408
H149  H     H_    0.854065 0.890720 0.040745 0.121075
H150  H     H_    0.743012 0.894680 0.017364 0.122250
H151  H     H_    0.774371 0.963845 0.036903 0.143809
H152  H     H_    0.729787 0.055103 0.417998 0.172480
H153  H     H_    0.740314 0.126055 0.483543 0.140586
H154  H     H_    0.802115 0.087664 0.406888 0.104027
H155  H     H_    0.819789 0.089108 0.697312 0.104340
H156  H     H_    0.797293 0.019875 0.639872 0.136216
H157  H     H_    0.648541 0.545674 0.010559 0.117420
H158  H     H_    0.215351 0.387620 0.091083 0.091374
H159  H     H_    0.698999 0.492522 0.094064 0.155747
H160  H     H_    0.661560 0.538545 0.225703 0.110241
H161  H     H_    0.765751 0.571300 0.220636 0.141347
H162  H     H_    0.716241 0.619684 0.114611 0.090618
H163  H     H_    0.740599 0.370828 0.700980 0.123873
H164  H     H_    0.767454 0.437951 0.773392 0.171199
H165  H     H_    0.688998 0.420242 0.778658 0.108233
H166  H     H_    0.705265 0.485171 0.551443 0.141117
H167  H     H_    0.675670 0.419611 0.483569 0.097515
H168  H     H_    0.148251 0.046675 0.017143 0.117539
N1    N     N_2   0.762236 0.247506 0.158574 -0.245645
N2    N     N_2   0.762249 0.752410 0.657578 -0.245110
N3    N     N_2   0.261689 0.748323 0.159383 -0.242014
N4    N     N_2   0.261846 0.251844 0.658698 -0.246190
N5    N     N_2   0.235067 0.754347 0.022980 -0.239115
N6    N     N_2   0.235662 0.246117 0.521658 -0.242162
N7    N     N_2   0.735579 0.253698 0.022235 -0.242357
N8    N     N_2   0.734856 0.745747 0.522447 -0.242963
O1    O     O_2   0.882020 0.421650 0.880110 -0.467870
O2    O     O_3   0.037756 0.743459 0.528332 -0.599190
O3    O     O_3   0.536214 0.756487 0.031131 -0.598435
O4    O     O_3   0.536177 0.243542 0.531821 -0.600011
O5    O     O_3   0.068720 0.527400 0.059520 -0.491739
O6    O     O_3   0.068720 0.472600 0.559520 -0.492075
O7    O     O_3   0.568720 0.027400 0.059520 -0.483713
O8    O     O_3   0.568720 0.972600 0.559520 -0.489069
O9    O     O_3   0.931280 0.472530 0.130180 -0.484245
O10   O     O_3   0.931280 0.527470 0.630180 -0.487113
O11   O     O_3   0.431280 0.972530 0.130180 -0.484359
O12   O     O_2   0.882020 0.578350 0.380110 -0.461535
O13   O     O_3   0.431280 0.027470 0.630180 -0.487522
O14   O     O_3   0.979610 0.373300 0.637850 -0.475105
O15   O     O_3   0.979610 0.626700 0.137850 -0.484973
O16   O     O_3   0.479610 0.873300 0.637850 -0.475041
O17   O     O_3   0.479610 0.126700 0.137850 -0.475896
O18   O     O_2   0.883236 0.325592 0.748578 -0.489937
O19   O     O_2   0.882752 0.674162 0.246372 -0.485748
O20   O     O_2   0.382869 0.825957 0.748143 -0.490482
O21   O     O_2   0.382904 0.174169 0.248126 -0.491805
O22   O     O_3   0.812442 0.483124 0.039133 -0.653741
O23   O     O_2   0.382020 0.921650 0.880110 -0.468319
O24   O     O_3   0.811763 0.517897 0.535517 -0.651402
O25   O     O_3   0.312367 0.983039 0.039992 -0.653772
O26   O     O_3   0.311914 0.017619 0.535082 -0.650494
O27   O     O_3   0.965881 0.257335 0.657214 -0.610297
O28   O     O_3   0.964997 0.743012 0.158005 -0.614036
O29   O     O_3   0.465272 0.757406 0.657071 -0.610566
O30   O     O_3   0.465186 0.242593 0.155599 -0.611285
O31   O     O_2   0.117830 0.421200 0.809460 -0.458917
O32   O     O_2   0.117830 0.578800 0.309460 -0.459849
O33   O     O_2   0.617830 0.921200 0.809460 -0.456250
O34   O     O_2   0.382020 0.078350 0.380110 -0.462738
O35   O     O_2   0.617830 0.078800 0.309460 -0.465334
O36   O     O_3   0.020150 0.373220 0.051650 -0.483362
O37   O     O_3   0.020150 0.626780 0.551650 -0.484139
O38   O     O_3   0.520150 0.873220 0.051650 -0.481565
O39   O     O_3   0.520150 0.126780 0.551650 -0.481832
O40   O     O_2   0.117770 0.326370 0.942229 -0.500099
O41   O     O_2   0.118985 0.672691 0.445835 -0.498240
O42   O     O_2   0.618065 0.826382 0.944218 -0.497720
O43   O     O_2   0.618033 0.173630 0.444630 -0.498698
O44   O     O_3   0.188760 0.480361 0.657952 -0.652419
O45   O     O_3   0.188839 0.519656 0.157600 -0.651682
O46   O     O_3   0.688033 0.981847 0.654611 -0.649323
O47   O     O_3   0.687654 0.017790 0.148722 -0.657115
O48   O     O_3   0.036741 0.256469 0.032658 -0.597764
P1    P     P_3+3 0.876190 0.439990 0.052900 0.973330
P2    P     P_3+3 0.073680 0.680176 0.576450 0.931063
P3    P     P_3+3 0.573199 0.819514 0.076223 0.942238
P4    P     P_3+3 0.573151 0.180481 0.576579 0.941989
P5    P     P_3+3 0.926897 0.680539 0.112355 0.933373
P6    P     P_3+3 0.926881 0.319547 0.613289 0.944909
P7    P     P_3+3 0.426569 0.180133 0.112874 0.942855
P8    P     P_3+3 0.426651 0.819814 0.613212 0.944663
P9    P     P_3+3 0.876190 0.560010 0.552900 0.978363
P10   P     P_3+3 0.376190 0.939990 0.052900 0.973078
P11   P     P_3+3 0.376190 0.060010 0.552900 0.976629
P12   P     P_3+3 0.123690 0.439530 0.636710 0.982854
P13   P     P_3+3 0.123690 0.560470 0.136710 0.980634
P14   P     P_3+3 0.623690 0.939530 0.636710 0.979079
P15   P     P_3+3 0.623690 0.060470 0.136710 0.973930
P16   P     P_3+3 0.073524 0.319728 0.075772 0.936948

loop_
_geom_bond_atom_site_label_1
_geom_bond_atom_site_label_2
_ccdc_geom_bond_type
O29   P8    S    
C107  H168  S    
C73   C97   S    
C15   C16   S    
C69   C89   A    
C58   C88   A    
C25   C85   S    
C110  C111  S    
C8    H56   S    
C80   P10   S    
C5    H33   S    
C75   H78   S    
O6    P12   S    
O1    P1    D    
C82   C106  S    
C30   C92   A    
C78   H82   S    
C94   H135  S    
C54   O2    S    
C12   H66   S    
C65   H126  S    
C50   C59   A    
C78   C83   S    
C51   P4    S    
C104  C105  S    
C33   C38   A    
C66   O45   S    
C106  C107  S    
O43   P4    D    
C7    H38   S    
Ba1   O31   S    
C1    C84   S    
C84   O27   S    
C98   H146  S    
O23   P10   D    
C34   H20   S    
O44   P12   S    
C103  H159  S    
C77   C82   S    
C66   H131  S    
C20   N3    S    
C37   C45   A    
Ba2   O15   S    
Ba1   O6    S    
C1    C8    S    
C54   H119  S    
C64   H124  S    
Ba4   P15   S    
C83   C108  S    
C72   H2    S    
C79   C101  S    
Ba4   O11   S    
C64   H15   S    
C22   C110  S    
C15   H72   S    
C105  H165  S    
C6    C26   S    
C25   H97   S    
C39   P14   S    
Ba4   O34   S    
Ba3   O13   S    
C73   H13   S    
Ba3   O7    S    
O30   P7    S    
C90   H111  S    
C12   C36   S    
C93   H140  S    
C58   C102  A    
Ba3   O33   S    
C111  H23   S    
C24   C29   A    
C4    C24   S    
C35   P13   S    
C105  H164  S    
C66   H74   S    
C2    C69   A    
O36   P16   S    
C1    H96   S    
C96   H141  S    
Ba4   O39   S    
C56   H117  S    
C112  H31   S    
C63   H128  S    
C49   P2    S    
C44   H48   S    
C21   N4    S    
C72   H125  S    
C76   O24   S    
C34   C39   A    
O15   P5    S    
O10   P9    S    
O45   P13   S    
C70   O46   S    
O27   P6    S    
C62   H12   S    
C42   N7    S    
Ba1   P1    S    
C103  H157  S    
O37   P2    S    
C16   H70   S    
C54   C63   S    
O20   P8    D    
C95   H145  S    
C36   H98   S    
Ba4   O8    S    
N4    N6    D    
C2    H106  S    
C99   H155  S    
C97   H150  S    
Ba4   P11   S    
C28   P5    S    
O3    P3    S    
C53   C62   S    
C29   C90   A    
C3    H27   S    
C93   C94   S    
C53   O48   S    
C78   O26   S    
C101  C103  S    
C92   H112  S    
C4    H36   S    
C85   O28   S    
C106  H5    S    
C39   C48   A    
C62   H127  S    
C78   H68   S    
C107  H3    S    
C87   O30   S    
O32   P13   D    
C108  H11   S    
C81   H88   S    
C100  H153  S    
C49   C57   A    
Ba2   P9    S    
C111  H21   S    
C75   O22   S    
C68   H133  S    
C6    H42   S    
C83   H86   S    
C7    H39   S    
C9    H53   S    
C28   C89   A    
C96   H143  S    
C14   H64   S    
O26   P11   S    
C62   H122  S    
C101  H162  S    
O46   P14   S    
O28   P5    S    
Ba1   P12   S    
C82   H89   S    
Ba3   P10   S    
C44   C49   A    
C68   O47   S    
C40   N5    S    
C26   C30   A    
C110  H25   S    
C87   H95   S    
C33   H19   S    
C9    H52   S    
C85   H93   S    
C17   C91   A    
C14   H65   S    
O35   P15   D    
C77   H57   S    
C3    C112  S    
O9    P1    S    
C13   H107  S    
C81   H84   S    
C61   H47   S    
N3    N5    D    
C73   H136  S    
C4    H37   S    
C76   H46   S    
C10   H62   S    
C38   C46   A    
C86   H92   S    
C15   H73   S    
O41   P2    D    
C70   C74   S    
O31   P12   D    
Ba1   O10   S    
Ba2   O5    S    
Ba3   Ba4   S    
O22   P1    S    
Ba3   O38   S    
C17   C21   A    
C20   C24   A    
C60   H45   S    
C32   H18   S    
C40   C57   A    
C85   H81   S    
N1    N7    D    
C5    H32   S    
Ba1   O1    S    
C13   C80   A    
O4    P4    S    
O34   P11   D    
O24   P9    S    
C112  H30   S    
C50   P16   S    
C56   C65   S    
C63   H123  S    
C67   O44   S    
C58   P1    S    
C100  H154  S    
C6    C7    S    
C19   N2    S    
O39   P4    S    
C8    C9    S    
C29   P8    S    
C66   C71   S    
C10   C11   S    
C52   P3    S    
C56   H121  S    
C10   C25   S    
C67   H75   S    
C68   H76   S    
C94   H137  S    
C3    H29   S    
C97   C98   S    
C31   H17   S    
C53   H118  S    
C11   H60   S    
O2    P2    S    
Ba1   O5    S    
O7    P15   S    
O18   P6    D    
C48   H51   S    
C67   C72   S    
C102  H105  S    
C71   C93   S    
C47   C87   S    
O14   P6    S    
C91   P11   S    
C91   C92   A    
C98   H149  S    
C46   H50   S    
Ba3   O16   S    
O38   P3    S    
C81   C104  S    
C108  H10   S    
C93   H139  S    
O33   P14   D    
C70   H77   S    
Ba3   P14   S    
C32   C37   A    
C67   H132  S    
C43   N8    S    
C105  H163  S    
C8    H55   S    
C96   H142  S    
C5    H34   S    
O48   P16   S    
C79   H87   S    
O25   P10   S    
C71   H114  S    
C31   C35   A    
C83   H90   S    
C45   H49   S    
C76   C81   S    
C18   N1    S    
C53   H113  S    
C109  H7    S    
C69   P9    S    
C80   C90   A    
O13   P11   S    
C103  H160  S    
C82   H85   S    
C104  H167  S    
Ba2   O32   S    
O5    P13   S    
C63   H14   S    
C84   H91   S    
C47   H99   S    
C21   C26   A    
C76   H79   S    
C30   P7    S    
C11   H58   S    
C23   C28   A    
C74   H24   S    
N2    N8    D    
C64   H129  S    
O40   P16   D    
C106  H6    S    
C75   C79   S    
Ba2   O9    S    
Ba3   O8    S    
Ba1   O36   S    
C65   H130  S    
C55   O3    S    
C18   C22   A    
C99   C100  S    
C36   C86   S    
C33   C42   A    
C52   C61   A    
C35   C44   A    
C16   H71   S    
O42   P3    D    
C3    H28   S    
C17   H108  S    
C101  H161  S    
C74   H147  S    
C55   H120  S    
C27   P6    S    
C12   H67   S    
C72   C95   S    
Ba2   O37   S    
C110  H26   S    
C57   H43   S    
Ba4   O17   S    
C109  H9    S    
C45   C50   A    
Ba1   Ba2   S    
C54   H115  S    
C16   H69   S    
O8    P14   S    
C89   H110  S    
C4    C5    S    
Ba3   O23   S    
O17   P7    S    
C41   N6    S    
Ba4   O7    S    
C19   C23   A    
C23   C112  S    
C25   H101  S    
C97   H151  S    
C22   C27   A    
O47   P15   S    
C59   H44   S    
Ba2   O6    S    
C55   H116  S    
C108  C109  S    
C70   H134  S    
C13   C20   A    
O12   P9    D    
C86   H94   S    
C18   C102  A    
C1    H100  S    
C41   C59   A    
Ba4   O35   S    
C42   C60   A    
C107  H4    S    
C68   C73   S    
C55   C64   S    
C95   C96   S    
C111  H22   S    
C51   C60   A    
C32   C41   A    
C31   C40   A    
C86   O29   S    
C6    H41   S    
C109  H8    S    
C34   C43   A    
C7    H40   S    
C9    H54   S    
C14   H63   S    
C71   H158  S    
C98   H148  S    
C37   P12   S    
C79   H83   S    
C94   H138  S    
C104  H166  S    
C75   H35   S    
O21   P7    D    
C36   H102  S    
C74   C99   S    
C100  H152  S    
Ba2   P13   S    
C88   H109  S    
C47   H104  S    
Ba1   O14   S    
C46   C51   A    
C11   H59   S    
C99   H156  S    
O19   P5    D    
C77   H80   S    
C77   O25   S    
C56   O4    S    
C95   H144  S    
C65   H16   S    
C2    C19   A    
O11   P10   S    
C87   H103  S    
C10   H61   S    
O16   P8    S    
C15   C47   S    
C12   C14   S    
C27   C88   A    
Ba2   O12   S    
C84   H1    S    
C38   P15   S    
C43   C61   A    
C48   C52   A    
