data_mof_unit_67582.cif
_audit_creation_date              2012-12-10T16:57:48-0500
_audit_creation_method            fapswitch 2.2
_symmetry_space_group_name_H-M    P1
_symmetry_Int_Tables_number       1
_space_group_crystal_system       triclinic
_cell_length_a                    10.696632
_cell_length_b                    11.07791
_cell_length_c                    9.822663
_cell_angle_alpha                 90.389346
_cell_angle_beta                  90.867138
_cell_angle_gamma                 91.168487
_cell_volume                      1163.54478941

loop_
_atom_site_label
_atom_site_type_symbol
_atom_type_description
_atom_site_fract_x
_atom_site_fract_y
_atom_site_fract_z
_atom_type_partial_charge
C1    C     C_R   0.511409 0.266997 0.500159 0.733993
C2    C     C_3   0.957581 0.571210 0.405165 0.322101
C3    C     C_3   0.031106 0.456322 0.374724 0.481076
C4    C     C_3   0.121697 0.489316 0.494844 -0.229119
C5    C     C_2   0.537053 0.933825 0.403262 0.440697
C6    C     C_2   0.478514 0.867043 0.498827 0.129166
C7    C     C_2   0.505537 0.064170 0.397139 0.335027
C8    C     C_2   0.542646 0.138001 0.501100 0.175884
C9    C     C_2   0.438035 0.421524 0.923068 0.611295
C10   C     C_2   0.421621 0.437627 0.075565 -0.104583
C11   C     C_R   0.259433 0.494781 0.498558 0.841129
C12   C     C_R   0.495361 0.734364 0.500350 0.780467
C13   C     C_R   0.739649 0.499639 0.500984 0.864164
C14   C     C_3   0.039714 0.412598 0.592342 -0.341871
C15   C     C_3   0.948657 0.381190 0.472336 -0.328556
C16   C     C_3   0.875294 0.496554 0.502293 -0.228757
C17   C     C_3   0.963374 0.525500 0.622341 0.479956
C18   C     C_3   0.043921 0.601885 0.527113 0.281041
Cu1   Cu    Cu3+1 0.500030 0.500020 0.638630 0.978129
Cu2   Cu    Cu3+1 0.499970 0.499980 0.361370 0.977969
H1    H     H_    0.904804 0.290818 0.454043 0.163188
H2    H     H_    0.346458 0.388528 0.124033 0.148928
H3    H     H_    0.581017 0.527606 0.111176 0.235866
H4    H     H_    0.072178 0.345041 0.665052 0.171109
N1    N     N_2   0.498620 0.498660 0.846910 -0.030182
N2    N     N_2   0.498590 0.498630 0.153040 -0.286671
O1    O     O_R   0.500020 0.321960 0.617040 -0.579296
O2    O     O_R   0.499980 0.321920 0.382900 -0.570401
O3    O     O_R   0.316870 0.499990 0.617050 -0.596269
O4    O     O_R   0.316830 0.499950 0.382910 -0.580383
O5    O     O_R   0.500020 0.678080 0.617100 -0.604497
O6    O     O_R   0.499980 0.678040 0.382960 -0.525963
O7    O     O_R   0.683170 0.500050 0.617090 -0.584501
O8    O     O_R   0.683130 0.500010 0.382950 -0.569222
O9    O     O_3   0.635961 0.097090 0.588739 -0.670496
C19   C     C_3   0.607554 0.109533 0.728063 0.098884
H5    H     H_    0.618787 0.019396 0.775119 0.148611
H6    H     H_    0.509747 0.135566 0.747522 0.185632
C20   C     C_3   0.701015 0.198539 0.796933 -0.298685
H7    H     H_    0.797269 0.179305 0.763622 0.221904
H8    H     H_    0.680846 0.292374 0.766853 0.255014
C21   C     C_3   0.697252 0.190170 0.951628 -0.943853
H9    H     H_    0.600017 0.197841 0.988286 0.291909
H10   H     H_    0.755140 0.264452 0.997629 0.248060
H11   H     H_    0.736163 0.102861 0.984716 0.239120
O10   O     O_3   0.399767 0.311886 0.867351 -0.648937
C22   C     C_3   0.270344 0.311290 0.836702 0.038547
H12   H     H_    0.259200 0.268864 0.734358 0.178461
H13   H     H_    0.229494 0.402952 0.830782 0.132404
C23   C     C_3   0.197473 0.235605 0.939979 -0.400362
H14   H     H_    0.253386 0.157525 0.972639 0.254520
H15   H     H_    0.180448 0.291338 0.031445 0.228806
C24   C     C_3   0.071374 0.190267 0.881876 -0.964858
H16   H     H_    0.007840 0.266583 0.864787 0.260067
H17   H     H_    0.025864 0.127003 0.953700 0.262175
H18   H     H_    0.083716 0.142360 0.783852 0.257053
O11   O     O_3   0.517483 0.609073 0.903184 -0.543465
C25   C     C_3   0.645067 0.640066 0.888139 -0.155479
H19   H     H_    0.664068 0.676669 0.785946 0.203175
H20   H     H_    0.707114 0.562603 0.909534 0.159964
H21   H     H_    0.670237 0.712334 0.962990 0.129034
O12   O     O_3   0.918152 0.561567 0.749725 -0.597949
C26   C     C_3   0.018264 0.576114 0.843227 -0.414434
H22   H     H_    0.109384 0.601165 0.796589 0.190542
H23   H     H_    0.029169 0.492254 0.902434 0.188198
H24   H     H_    0.995026 0.650487 0.913400 0.172344
O13   O     O_3   0.093407 0.717876 0.558886 -0.642135
C27   C     C_3   0.997309 0.793586 0.605209 0.116911
H25   H     H_    0.018145 0.818945 0.712648 0.159732
H26   H     H_    0.901430 0.751830 0.602340 0.163330
C28   C     C_3   0.992752 0.907274 0.519702 -0.398622
H27   H     H_    0.085488 0.953553 0.521349 0.235127
H28   H     H_    0.967154 0.882467 0.413295 0.264546
C29   C     C_3   0.894944 0.992047 0.573705 -0.878956
H29   H     H_    0.802059 0.945601 0.569818 0.298803
H30   H     H_    0.891288 0.074445 0.510473 0.261721
H31   H     H_    0.917870 0.018190 0.680509 0.244621
O14   O     O_3   0.906693 0.662157 0.321234 -0.599419
C30   C     C_3   0.970729 0.675448 0.196911 0.086578
H32   H     H_    0.912129 0.733512 0.131125 0.121383
H33   H     H_    0.974620 0.590293 0.139414 0.178166
C31   C     C_3   0.100580 0.737666 0.211931 -0.440077
H34   H     H_    0.097961 0.826027 0.160456 0.201434
H35   H     H_    0.125885 0.754804 0.319575 0.275728
C32   C     C_3   0.204759 0.665815 0.147337 -0.798483
H36   H     H_    0.206955 0.573886 0.188166 0.308940
H37   H     H_    0.296504 0.711352 0.168551 0.271155
H38   H     H_    0.190900 0.657576 0.036154 0.228110
O15   O     O_3   0.062734 0.410713 0.245600 -0.604343
C33   C     C_3   0.953295 0.363060 0.179975 -0.424750
H39   H     H_    0.870258 0.421027 0.191525 0.184608
H40   H     H_    0.928710 0.272115 0.218608 0.190319
H41   H     H_    0.970306 0.355205 0.070065 0.195147
O16   O     O_3   0.622982 0.878987 0.317694 -0.580722
C34   C     C_3   0.687260 0.962357 0.235144 -0.288775
H42   H     H_    0.736682 0.033413 0.297276 0.165773
H43   H     H_    0.622245 0.002458 0.159634 0.197328
H44   H     H_    0.759244 0.913523 0.177663 0.172034
O17   O     O_3   0.388858 0.925278 0.576597 -0.683560
C35   C     C_3   0.359949 0.867108 0.699174 0.092201
H45   H     H_    0.446246 0.850723 0.760644 0.170058
H46   H     H_    0.306918 0.781542 0.677688 0.218642
C36   C     C_3   0.277745 0.949912 0.781215 -0.346739
H47   H     H_    0.332572 0.031646 0.811976 0.220430
H48   H     H_    0.197670 0.978032 0.717299 0.231363
C37   C     C_3   0.228510 0.887319 0.907011 -0.948152
H49   H     H_    0.177974 0.802966 0.877188 0.254905
H50   H     H_    0.307078 0.866431 0.977569 0.278649
H51   H     H_    0.161637 0.946457 0.958952 0.259836
O18   O     O_3   0.437917 0.104291 0.285234 -0.640612
C38   C     C_3   0.313914 0.131382 0.321375 0.104150
H52   H     H_    0.290500 0.218085 0.271878 0.192853
H53   H     H_    0.298831 0.144343 0.432740 0.104879
C39   C     C_3   0.224617 0.032490 0.268887 -0.366148
H54   H     H_    0.253883 0.003069 0.166500 0.238936
H55   H     H_    0.228878 0.953848 0.337977 0.230272
C40   C     C_3   0.091770 0.078999 0.259738 -0.979878
H56   H     H_    0.063839 0.118740 0.358412 0.273752
H57   H     H_    0.024386 0.006166 0.229596 0.244623
H58   H     H_    0.088068 0.149388 0.181250 0.287509

loop_
_geom_bond_atom_site_label_1
_geom_bond_atom_site_label_2
_ccdc_geom_bond_type
C26   H23   S    
C2    C18   S    
C1    C8    S    
Cu1   Cu2   S    
Cu1   O5    S    
C5    O16   S    
O11   C25   S    
C34   H44   S    
C9    N1    D    
C7    C8    D    
C20   H8    S    
Cu2   O4    S    
C24   H16   S    
C10   H2    S    
C29   H30   S    
C19   H5    S    
C40   H57   S    
C6    C12   S    
C5    C6    D    
C32   H38   S    
C37   H49   S    
C25   H20   S    
C15   C16   S    
H3    N2    S    
C14   H4    S    
O18   C38   S    
C36   H48   S    
C22   H12   S    
C11   O4    A    
C27   H25   S    
C29   H31   S    
C1    O2    A    
C23   H15   S    
C20   C21   S    
Cu1   O1    S    
C9    C10   S    
Cu2   O8    S    
C10   N2    D    
C25   H21   S    
C32   H37   S    
C26   H24   S    
C9    O10   S    
C12   O6    A    
C14   C17   S    
C21   H10   S    
C39   H54   S    
C22   C23   S    
C24   H17   S    
C23   C24   S    
C29   H29   S    
O13   C27   S    
N1    O11   S    
C22   H13   S    
Cu1   O7    S    
C40   H58   S    
C20   H7    S    
C5    C7    S    
O14   C30   S    
C16   C17   S    
Cu2   O2    S    
C23   H14   S    
C18   O13   S    
C32   H36   S    
C35   C36   S    
C30   H32   S    
C8    O9    S    
C36   C37   S    
C13   O7    A    
O12   C26   S    
C2    O14   S    
C17   O12   S    
C28   C29   S    
C33   H40   S    
O17   C35   S    
C15   H1    S    
C35   H46   S    
C17   C18   S    
C38   H53   S    
C4    C11   S    
C31   H35   S    
C12   O5    A    
C21   H9    S    
C3    C4    S    
Cu1   O3    S    
C36   H47   S    
C3    C15   S    
C33   H41   S    
C28   H28   S    
Cu2   O6    S    
C24   H18   S    
O10   C22   S    
C38   H52   S    
C19   C20   S    
Cu2   N2    S    
C30   C31   S    
C39   H55   S    
C34   H43   S    
C2    C16   S    
C31   C32   S    
C30   H33   S    
C7    O18   S    
C3    O15   S    
C6    O17   S    
C19   H6    S    
C2    C3    S    
C25   H19   S    
C4    C18   S    
C13   O8    A    
C40   H56   S    
C33   H39   S    
C37   H50   S    
C27   C28   S    
C35   H45   S    
C38   C39   S    
C4    C14   S    
O16   C34   S    
Cu1   N1    S    
C39   C40   S    
C26   H22   S    
C28   H27   S    
C11   O3    A    
C27   H26   S    
C31   H34   S    
C13   C16   S    
C34   H42   S    
C1    O1    A    
C14   C15   S    
O9    C19   S    
O15   C33   S    
C21   H11   S    
C37   H51   S    
