data_mof_unit_63540.cif
_audit_creation_date              2012-12-10T19:39:31-0500
_audit_creation_method            fapswitch 2.2
_symmetry_space_group_name_H-M    P1
_symmetry_Int_Tables_number       1
_space_group_crystal_system       triclinic
_cell_length_a                    15.878852
_cell_length_b                    17.019636
_cell_length_c                    17.46227
_cell_angle_alpha                 86.328133
_cell_angle_beta                  95.93807
_cell_angle_gamma                 84.603412
_cell_volume                      4660.10447324

loop_
_atom_site_label
_atom_site_type_symbol
_atom_type_description
_atom_site_fract_x
_atom_site_fract_y
_atom_site_fract_z
_atom_type_partial_charge
C1    C     C_R   0.509504 0.348200 0.497359 0.911969
C2    C     C_R   0.490606 0.651431 0.504626 0.889768
C3    C     C_R   0.511937 0.261670 0.487105 -0.223057
C4    C     C_R   0.487821 0.737500 0.516989 -0.298603
C5    C     C_R   0.435488 0.224379 0.483975 0.314657
C6    C     C_R   0.564305 0.774560 0.527705 0.305055
C7    C     C_R   0.437001 0.143883 0.470026 0.295019
C8    C     C_R   0.561624 0.856039 0.532904 0.385543
C9    C     C_R   0.515796 0.097886 0.469819 0.129694
C10   C     C_R   0.482355 0.902533 0.526515 0.086200
C11   C     C_R   0.590910 0.134848 0.468587 0.024626
C12   C     C_R   0.406779 0.865834 0.525431 0.031493
C13   C     C_R   0.588961 0.217457 0.474666 0.290046
C14   C     C_R   0.409131 0.782858 0.521653 0.319092
C15   C     C_R   0.247790 0.456225 0.534817 0.564675
C16   C     C_R   0.751643 0.546154 0.467647 0.551422
C17   C     C_R   0.158820 0.459732 0.531257 -0.206085
C18   C     C_R   0.840605 0.543325 0.471059 -0.194987
C19   C     C_R   0.106727 0.517841 0.483439 0.266848
C20   C     C_R   0.893033 0.483295 0.516135 0.263679
C21   C     C_R   0.146551 0.570511 0.438433 -0.308000
C22   C     C_R   0.853686 0.428609 0.559241 -0.308252
C23   C     C_R   0.510377 0.501851 0.650499 0.839529
C24   C     C_R   0.489601 0.498377 0.349450 0.854597
C25   C     C_R   0.235805 0.565790 0.441621 0.356547
C26   C     C_R   0.764532 0.432902 0.556479 0.357274
C27   C     C_R   0.515017 0.502735 0.735644 -0.157730
C28   C     C_R   0.484687 0.498439 0.264181 -0.157583
C29   C     C_R   0.439746 0.514281 0.772459 0.111853
C30   C     C_R   0.559850 0.491624 0.226665 0.109832
C31   C     C_R   0.444252 0.503962 0.851980 -0.189443
C32   C     C_R   0.554210 0.502965 0.147158 -0.189064
C33   C     C_R   0.522227 0.487068 0.897280 0.030586
C34   C     C_R   0.475583 0.516754 0.102545 0.029571
C35   C     C_R   0.598422 0.480988 0.862983 0.078044
C36   C     C_R   0.399816 0.518440 0.137390 0.078952
C37   C     C_R   0.595153 0.489039 0.781551 0.361729
C38   C     C_R   0.404037 0.508511 0.218839 0.366846
C39   C     C_2   0.523258 0.477610 0.981234 -0.133809
C40   C     C_2   0.473795 0.526576 0.018590 -0.135404
Cu1   Cu    Cu3+1 0.585060 0.496170 0.503810 1.033609
Cu2   Cu    Cu3+1 0.414940 0.503830 0.496190 1.053008
H1    H     H_    0.867964 0.588197 0.437505 0.202786
H2    H     H_    0.131164 0.416806 0.566924 0.199573
H3    H     H_    0.107788 0.615456 0.400070 0.194398
H4    H     H_    0.892782 0.382541 0.595979 0.193728
H5    H     H_    0.430739 0.573890 0.987138 0.184336
H6    H     H_    0.566113 0.430363 0.013058 0.185850
H7    H     H_    0.612383 0.500508 0.119580 0.196948
H8    H     H_    0.385701 0.509581 0.878879 0.195520
N1    N     N_2   0.520936 0.014062 0.473448 -0.166740
N2    N     N_2   0.477302 0.986231 0.522158 -0.164987
N3    N     N_R   0.287170 0.509590 0.490460 -0.251704
N4    N     N_R   0.712830 0.490410 0.509540 -0.255194
N5    N     N_2   0.015381 0.525292 0.478376 -0.188793
N6    N     N_2   0.984320 0.476110 0.520940 -0.191287
O1    O     O_R   0.579730 0.382480 0.503570 -0.518930
O2    O     O_R   0.420270 0.617520 0.496430 -0.506963
O3    O     O_R   0.436070 0.388960 0.497130 -0.559798
O4    O     O_R   0.563930 0.611040 0.502870 -0.600270
O5    O     O_R   0.580160 0.496380 0.617190 -0.521623
O6    O     O_R   0.419840 0.503620 0.382810 -0.512698
O7    O     O_R   0.436500 0.502850 0.610750 -0.612753
O8    O     O_R   0.563500 0.497150 0.389250 -0.611209
I1    I     I_    0.314713 0.553455 0.718100 -0.248017
I2    I     I_    0.686795 0.458642 0.279540 -0.251432
O9    O     O_3   0.706944 0.608183 0.421916 -0.667674
H9    H     H_    0.649989 0.593932 0.405657 0.377303
O10   O     O_3   0.291572 0.396411 0.584115 -0.682450
H10   H     H_    0.351137 0.406224 0.593359 0.382315
I3    I     I_    0.280572 0.649682 0.364260 -0.183955
I4    I     I_    0.720563 0.347248 0.632492 -0.188637
O11   O     O_3   0.331310 0.505267 0.255590 -0.676075
H11   H     H_    0.280410 0.525598 0.220208 0.362376
O12   O     O_3   0.668595 0.486674 0.745360 -0.681867
H12   H     H_    0.717807 0.462645 0.781007 0.363053
I5    I     I_    0.717290 0.467043 0.935821 -0.279185
I6    I     I_    0.280742 0.529057 0.065037 -0.277117
O13   O     O_3   0.643453 0.732388 0.536598 -0.594542
H13   H     H_    0.643637 0.692519 0.580616 0.341219
O14   O     O_3   0.359499 0.268392 0.492205 -0.648427
H14   H     H_    0.313227 0.233676 0.496010 0.394997
O15   O     O_3   0.638092 0.887775 0.547369 -0.614148
H15   H     H_    0.628021 0.937447 0.573135 0.352718
O16   O     O_3   0.360667 0.111893 0.455642 -0.677974
H16   H     H_    0.369575 0.066462 0.423595 0.368686
I7    I     I_    0.707334 0.062485 0.462328 -0.171153
I8    I     I_    0.289378 0.938947 0.524727 -0.186462
O17   O     O_3   0.660866 0.256438 0.469170 -0.659851
H17   H     H_    0.703501 0.223698 0.444535 0.362714
O18   O     O_3   0.336250 0.744503 0.522532 -0.658206
H18   H     H_    0.290444 0.778760 0.541479 0.361853

loop_
_geom_bond_atom_site_label_1
_geom_bond_atom_site_label_2
_ccdc_geom_bond_type
C40   H5    S    
N5    N6    D    
C27   C29   A    
C8    O15   S    
C26   I4    S    
O11   H11   S    
C9    N1    S    
Cu1   O5    S    
C20   N6    S    
C10   N2    S    
Cu2   O2    S    
O14   H14   S    
O16   H16   S    
C33   C39   S    
C34   C40   S    
C15   N3    A    
C19   C21   A    
C25   N3    A    
C1    O3    A    
Cu2   N3    S    
C2    O4    A    
C7    C9    A    
Cu1   Cu2   S    
C33   C35   A    
C11   I7    S    
C31   C33   A    
C25   I3    S    
C23   C27   S    
Cu2   O6    S    
C18   C20   A    
C3    C13   A    
C23   O7    A    
C37   O12   S    
C24   O8    A    
C26   N4    A    
C21   H3    S    
C15   O10   S    
C12   I8    S    
N1    N2    D    
C4    C6    A    
O18   H18   S    
C5    C7    A    
C6    C8    A    
C35   I5    S    
O9    H9    S    
C1    C3    S    
C32   C34   A    
C2    C4    S    
O12   H12   S    
C1    O1    A    
C5    O14   S    
O15   H15   S    
C28   C38   A    
C16   O9    S    
Cu1   N4    S    
C9    C11   A    
C30   I2    S    
C10   C12   A    
C29   I1    S    
C16   C18   A    
C22   H4    S    
C20   C22   A    
C14   O18   S    
C31   H8    S    
C39   C40   D    
C35   C37   A    
C19   N5    S    
C15   C17   A    
C21   C25   A    
C24   O6    A    
C13   O17   S    
C24   C28   S    
Cu1   O4    S    
C12   C14   A    
C3    C5    A    
Cu2   O3    S    
C2    O2    A    
C28   C30   A    
C17   H2    S    
Cu1   O1    S    
C29   C31   A    
C36   I6    S    
C18   H1    S    
C30   C32   A    
C11   C13   A    
C6    O13   S    
C7    O16   S    
C27   C37   A    
C36   C38   A    
C17   C19   A    
C34   C36   A    
C4    C14   A    
O10   H10   S    
C16   N4    A    
C32   H7    S    
O13   H13   S    
C23   O5    A    
C8    C10   A    
C22   C26   A    
Cu1   O8    S    
O17   H17   S    
Cu2   O7    S    
C39   H6    S    
C38   O11   S    
