data_mof_unit_55729.cif
_audit_creation_date              2012-12-11T14:30:47-0500
_audit_creation_method            fapswitch 2.2
_symmetry_space_group_name_H-M    P1
_symmetry_Int_Tables_number       1
_space_group_crystal_system       triclinic
_cell_length_a                    17.498549
_cell_length_b                    24.346528
_cell_length_c                    14.919894
_cell_angle_alpha                 90.096113
_cell_angle_beta                  125.526357
_cell_angle_gamma                 89.742122
_cell_volume                      5173.01318079

loop_
_atom_site_label
_atom_site_type_symbol
_atom_type_description
_atom_site_fract_x
_atom_site_fract_y
_atom_site_fract_z
_atom_type_partial_charge
C1    C     C_R   0.820724 0.638169 0.906741 -0.128612
C2    C     C_R   0.009568 0.498551 0.684162 -0.028012
C3    C     C_3   0.531855 0.673826 0.901395 -0.903003
C4    C     C_3   0.048484 0.622448 0.395301 -0.357773
C5    C     C_3   0.034545 0.616086 0.655364 -0.347139
C6    C     C_3   0.548488 0.122449 0.395301 -0.357768
C7    C     C_3   0.534537 0.116086 0.655351 -0.347134
C8    C     C_R   0.569722 0.000090 0.369039 -0.023314
C9    C     C_R   0.509573 0.998551 0.684166 -0.028013
C10   C     C_R   0.679520 0.500351 0.665600 0.118627
C11   C     C_R   0.324520 0.499648 0.287487 0.105031
C12   C     C_R   0.179530 0.000351 0.665565 0.118620
C13   C     C_R   0.824519 0.999647 0.287469 0.105021
C14   C     C_3   0.512381 0.457323 0.533103 0.537068
C15   C     C_3   0.492997 0.452205 0.419688 0.539097
C16   C     C_3   0.012387 0.957329 0.533083 0.537069
C17   C     C_R   0.167075 0.645914 0.092787 -0.118274
C18   C     C_3   0.992995 0.952199 0.419664 0.539089
C19   C     C_3   0.441105 0.504193 0.494815 -0.341676
C20   C     C_3   0.569196 0.494775 0.448855 -0.344595
C21   C     C_3   0.941119 0.004203 0.494790 -0.341680
C22   C     C_3   0.069197 0.994764 0.448813 -0.344590
C23   C     C_3   0.421354 0.498824 0.379910 -0.000913
C24   C     C_3   0.588021 0.499616 0.563168 -0.008881
C25   C     C_3   0.921358 0.998823 0.379881 -0.000917
C26   C     C_3   0.088032 0.999616 0.563130 -0.008889
C27   C     C_3   0.495963 0.541966 0.408421 -0.141137
C28   C     C_R   0.320708 0.138156 0.906738 -0.128612
C29   C     C_3   0.517274 0.546969 0.524463 -0.143865
C30   C     C_3   0.995970 0.041959 0.408374 -0.141117
C31   C     C_3   0.017292 0.046973 0.524420 -0.143863
C32   C     C_2   0.226536 0.699637 0.918905 -0.232761
C33   C     C_2   0.754972 0.690017 0.083104 -0.233833
C34   C     C_2   0.726549 0.199628 0.918904 -0.232656
C35   C     C_2   0.254958 0.190003 0.083113 -0.233798
C36   C     C_2   0.208690 0.708999 0.993709 -0.166754
C37   C     C_2   0.767575 0.694467 0.002997 -0.167628
C38   C     C_2   0.708704 0.208990 0.993710 -0.166707
C39   C     C_R   0.667081 0.145911 0.092787 -0.118263
C40   C     C_2   0.267540 0.194443 0.002987 -0.167605
C41   C     C_2   0.785660 0.236422 0.907200 0.202741
C42   C     C_2   0.199038 0.230699 0.094535 0.209895
C43   C     C_2   0.285659 0.736424 0.907211 0.202896
C44   C     C_2   0.699013 0.730695 0.094497 0.209942
C45   C     C_R   0.945749 0.349816 0.092052 -0.128912
C46   C     C_R   0.051236 0.348576 0.908810 -0.137387
C47   C     C_R   0.445748 0.849819 0.092056 -0.128899
C48   C     C_R   0.551231 0.848579 0.908799 -0.137382
C49   C     C_2   0.862321 0.259063 0.999115 0.110888
C50   C     C_R   0.883450 0.318055 0.999791 0.021143
C51   C     C_2   0.124437 0.255414 0.002831 0.103978
C52   C     C_2   0.362320 0.759064 0.999128 0.110847
C53   C     C_2   0.624428 0.755415 0.002787 0.103967
C54   C     C_2   0.112366 0.452409 0.535149 -0.139198
C55   C     C_2   0.094940 0.457031 0.619220 -0.137288
C56   C     C_2   0.612374 0.952410 0.535153 -0.139201
C57   C     C_2   0.594948 0.957033 0.619227 -0.137289
C58   C     C_2   0.113754 0.498371 0.487151 -0.148039
C59   C     C_2   0.031796 0.494041 0.605268 -0.173203
C60   C     C_2   0.613759 0.998372 0.487154 -0.148041
C61   C     C_R   0.110645 0.315938 0.001145 0.027917
C62   C     C_2   0.531803 0.994041 0.605273 -0.173206
C63   C     C_R   0.051163 0.546499 0.304668 0.584946
C64   C     C_R   0.991671 0.545938 0.722862 0.607264
C65   C     C_R   0.551165 0.046499 0.304669 0.584938
C66   C     C_R   0.491673 0.045938 0.722864 0.607263
C67   C     C_R   0.734726 0.454629 0.715431 -0.100996
C68   C     C_R   0.267688 0.454312 0.255833 -0.130115
C69   C     C_R   0.234732 0.954629 0.715409 -0.100963
C70   C     C_R   0.767686 0.954311 0.255822 -0.130125
C71   C     C_R   0.050895 0.455035 0.303411 -0.225437
C72   C     C_R   0.383451 0.818056 0.999798 0.021085
C73   C     C_R   0.995637 0.453790 0.729217 -0.226308
C74   C     C_R   0.550897 0.955035 0.303412 -0.225435
C75   C     C_R   0.495641 0.953790 0.729220 -0.226305
C76   C     C_R   0.733082 0.546765 0.712234 -0.139952
C77   C     C_R   0.269934 0.546238 0.258723 -0.116651
C78   C     C_R   0.233088 0.046764 0.712213 -0.139952
C79   C     C_R   0.769935 0.046237 0.258713 -0.116643
C80   C     C_R   0.851908 0.351423 0.909308 -0.102018
C81   C     C_R   0.144650 0.350129 0.090883 -0.107137
C82   C     C_R   0.351910 0.851422 0.909311 -0.101989
C83   C     C_R   0.610636 0.815937 0.001125 0.027891
C84   C     C_R   0.644643 0.850125 0.090873 -0.107124
C85   C     C_R   0.912696 0.636326 0.091439 -0.133903
C86   C     C_R   0.072970 0.645793 0.909320 -0.135210
C87   C     C_R   0.412678 0.136314 0.091437 -0.133902
C88   C     C_R   0.572978 0.145789 0.909319 -0.135224
C89   C     C_R   0.830791 0.657621 0.000185 0.121816
C90   C     C_R   0.149071 0.670952 0.999480 0.110323
C91   C     C_R   0.330764 0.157601 0.000180 0.121814
C92   C     C_R   0.649082 0.170945 0.999480 0.110319
C93   C     C_3   0.443881 0.385336 0.561334 -0.261258
C94   C     C_R   0.069718 0.500090 0.369037 -0.023317
C95   C     C_3   0.554029 0.370839 0.408099 -0.266024
C96   C     C_3   0.943883 0.885354 0.561341 -0.261232
C97   C     C_3   0.054012 0.870824 0.408085 -0.266009
C98   C     C_3   0.808019 0.235094 0.761679 -1.009136
C99   C     C_3   0.176410 0.235436 0.239541 -0.998110
C100  C     C_3   0.308047 0.735079 0.761718 -1.009182
C101  C     C_3   0.676239 0.735385 0.239393 -0.997853
C102  C     C_3   0.945974 0.176205 0.106114 -0.908535
C103  C     C_3   0.031810 0.173829 0.901498 -0.902989
C104  C     C_3   0.445901 0.676182 0.106104 -0.908544
H1    H     H_    0.766870 0.649138 0.822318 0.096203
H2    H     H_    0.793250 0.659319 0.147553 0.131729
H3    H     H_    0.004227 0.609923 0.567114 0.161622
H4    H     H_    0.105419 0.596722 0.708949 0.137125
H5    H     H_    0.044334 0.661020 0.669642 0.167200
H6    H     H_    0.602788 0.125707 0.485292 0.169486
H7    H     H_    0.485365 0.100991 0.379176 0.115565
H8    H     H_    0.526996 0.165150 0.364572 0.172272
H9    H     H_    0.504211 0.109923 0.567099 0.161626
H10   H     H_    0.605411 0.096722 0.708930 0.137120
H11   H     H_    0.544326 0.161020 0.669630 0.167197
H12   H     H_    0.692991 0.166172 0.860333 0.135727
H13   H     H_    0.293243 0.159308 0.147569 0.131721
H14   H     H_    0.241433 0.742163 0.053218 0.140030
H15   H     H_    0.732120 0.725618 0.939206 0.140961
H16   H     H_    0.741443 0.242157 0.053218 0.139987
H17   H     H_    0.232078 0.225591 0.939189 0.140936
H18   H     H_    0.102988 0.412183 0.498953 0.128997
H19   H     H_    0.127358 0.427675 0.686640 0.139443
H20   H     H_    0.602996 0.912184 0.498959 0.128997
H21   H     H_    0.216458 0.659125 0.176876 0.098480
H22   H     H_    0.627368 0.927676 0.686647 0.139443
H23   H     H_    0.128467 0.536896 0.530483 0.145214
H24   H     H_    0.995084 0.520747 0.533809 0.143763
H25   H     H_    0.628473 0.036897 0.530486 0.145213
H26   H     H_    0.495089 0.020747 0.533813 0.143765
H27   H     H_    0.992712 0.336000 0.176218 0.083030
H28   H     H_    0.002604 0.334634 0.825137 0.081327
H29   H     H_    0.492708 0.836006 0.176225 0.083024
H30   H     H_    0.502598 0.834642 0.825123 0.081330
H31   H     H_    0.717521 0.412335 0.689089 0.115406
H32   H     H_    0.266849 0.149122 0.822314 0.096201
H33   H     H_    0.288812 0.411762 0.275258 0.132904
H34   H     H_    0.217532 0.912335 0.689066 0.115385
H35   H     H_    0.788810 0.911761 0.275239 0.132914
H36   H     H_    0.070217 0.412875 0.330036 0.124947
H37   H     H_    0.997583 0.410845 0.711992 0.135790
H38   H     H_    0.570219 0.912875 0.330037 0.124944
H39   H     H_    0.497589 0.910845 0.711996 0.135788
H40   H     H_    0.714394 0.588367 0.681485 0.102210
H41   H     H_    0.294290 0.587808 0.283650 0.106220
H42   H     H_    0.214406 0.088367 0.681461 0.102209
H43   H     H_    0.716463 0.159123 0.176875 0.098469
H44   H     H_    0.794293 0.087806 0.283640 0.106218
H45   H     H_    0.812147 0.340670 0.823741 0.134688
H46   H     H_    0.181847 0.339064 0.176124 0.131741
H47   H     H_    0.312149 0.840667 0.823745 0.134683
H48   H     H_    0.681844 0.839055 0.176114 0.131701
H49   H     H_    0.943501 0.645655 0.176370 0.138762
H50   H     H_    0.033875 0.660546 0.825965 0.167959
H51   H     H_    0.443476 0.145640 0.176367 0.138746
H52   H     H_    0.533886 0.160542 0.825964 0.167960
H53   H     H_    0.386573 0.508432 0.510464 0.158926
H54   H     H_    0.485862 0.576522 0.354001 0.131596
H55   H     H_    0.624542 0.491387 0.434449 0.152559
H56   H     H_    0.886593 0.008451 0.510448 0.158925
H57   H     H_    0.124539 0.991367 0.434400 0.152557
H58   H     H_    0.414814 0.368920 0.477763 0.157683
H59   H     H_    0.391003 0.411641 0.559717 0.143006
H60   H     H_    0.458602 0.349757 0.615600 0.172377
H61   H     H_    0.581850 0.360516 0.494630 0.159071
H62   H     H_    0.609108 0.390977 0.404562 0.141324
H63   H     H_    0.535671 0.331637 0.362043 0.172444
H64   H     H_    0.914805 0.868933 0.477770 0.157669
H65   H     H_    0.529776 0.585754 0.570263 0.131003
H66   H     H_    0.891015 0.911666 0.559730 0.143005
H67   H     H_    0.958603 0.849778 0.615615 0.172369
H68   H     H_    0.081839 0.860507 0.494621 0.159068
H69   H     H_    0.109091 0.890954 0.404536 0.141320
H70   H     H_    0.035647 0.831618 0.362038 0.172439
H71   H     H_    0.680705 0.244794 0.739976 0.170069
H72   H     H_    0.775984 0.249985 0.676485 0.255106
H73   H     H_    0.812328 0.189522 0.762308 0.266985
H74   H     H_    0.879311 0.252934 0.815472 0.271042
H75   H     H_    0.304647 0.238173 0.261738 0.171514
H76   H     H_    0.985869 0.076510 0.353943 0.131586
H77   H     H_    0.208471 0.252358 0.323338 0.253917
H78   H     H_    0.169792 0.190205 0.242320 0.267711
H79   H     H_    0.105947 0.254432 0.183489 0.266953
H80   H     H_    0.180726 0.744794 0.739982 0.170071
H81   H     H_    0.276037 0.749975 0.676531 0.255114
H82   H     H_    0.312330 0.689508 0.762335 0.266999
H83   H     H_    0.379343 0.752906 0.815529 0.271068
H84   H     H_    0.804550 0.738142 0.261738 0.171458
H85   H     H_    0.708244 0.752291 0.323188 0.253878
H86   H     H_    0.669616 0.690148 0.242137 0.267683
H87   H     H_    0.029800 0.085763 0.570211 0.130997
H88   H     H_    0.605776 0.754384 0.183292 0.266959
H89   H     H_    0.951344 0.252250 0.172888 0.159195
H90   H     H_    0.977773 0.157688 0.188681 0.243642
H91   H     H_    0.000806 0.179620 0.091246 0.253926
H92   H     H_    0.890243 0.148165 0.044058 0.265085
H93   H     H_    0.028728 0.247736 0.829905 0.158333
H94   H     H_    0.992731 0.155126 0.818175 0.248234
H95   H     H_    0.982584 0.180625 0.924367 0.255059
H96   H     H_    0.086895 0.144268 0.960149 0.266648
H97   H     H_    0.451408 0.752250 0.172897 0.159194
H98   H     H_    0.192980 0.666181 0.860337 0.135749
H99   H     H_    0.477849 0.657709 0.188733 0.243620
H100  H     H_    0.500598 0.679542 0.091006 0.253914
H101  H     H_    0.390094 0.648131 0.044202 0.265122
H102  H     H_    0.528755 0.747756 0.829856 0.158339
H103  H     H_    0.492777 0.655144 0.818057 0.248235
H104  H     H_    0.482637 0.680592 0.924281 0.255015
H105  H     H_    0.586951 0.644261 0.960013 0.266657
H106  H     H_    0.102785 0.625706 0.485292 0.169487
H107  H     H_    0.985363 0.600989 0.379177 0.115570
H108  H     H_    0.026991 0.665149 0.364573 0.172269
N1    N     N_R   0.892320 0.603520 0.941090 -0.045104
N2    N     N_R   0.973240 0.529450 0.794410 -0.097493
N3    N     N_R   0.526760 0.029450 0.205590 -0.095754
N4    N     N_R   0.473240 0.029450 0.794410 -0.097492
N5    N     N_R   0.819350 0.473090 0.793940 -0.052330
N6    N     N_R   0.180650 0.473090 0.206060 -0.053707
N7    N     N_R   0.319350 0.973090 0.793940 -0.052331
N8    N     N_R   0.680650 0.973090 0.206060 -0.053707
N9    N     N_R   0.027860 0.473090 0.206590 -0.071325
N10   N     N_R   0.972140 0.473090 0.793410 -0.073204
N11   N     N_R   0.527860 0.973090 0.206590 -0.071325
N12   N     N_R   0.107680 0.603520 0.058910 -0.044420
N13   N     N_R   0.472140 0.973090 0.793410 -0.073205
N14   N     N_R   0.818250 0.529450 0.792940 -0.044662
N15   N     N_R   0.181750 0.529450 0.207060 -0.041565
N16   N     N_R   0.318250 0.029450 0.792940 -0.044662
N17   N     N_R   0.681750 0.029450 0.207060 -0.041564
N18   N     N_R   0.896320 0.399020 0.944720 -0.042561
N19   N     N_R   0.103680 0.399020 0.055280 -0.042270
N20   N     N_R   0.396320 0.899020 0.944720 -0.042563
N21   N     N_R   0.603680 0.899020 0.055280 -0.042269
N22   N     N_R   0.949790 0.603520 0.054810 -0.044575
N23   N     N_R   0.392320 0.103520 0.941090 -0.045104
N24   N     N_R   0.050210 0.603520 0.945190 -0.052007
N25   N     N_R   0.449790 0.103520 0.054810 -0.044572
N26   N     N_R   0.550210 0.103520 0.945190 -0.052005
N27   N     N_2   0.751112 0.252632 0.797927 -0.122790
N28   N     N_2   0.235142 0.248310 0.203501 -0.123856
N29   N     N_2   0.251130 0.752627 0.797941 -0.122814
N30   N     N_2   0.735047 0.748279 0.203457 -0.123867
N31   N     N_2   0.908229 0.230000 0.102022 -0.113432
N32   N     N_2   0.072341 0.225501 0.900837 -0.115744
N33   N     N_2   0.408235 0.730003 0.102038 -0.113431
N34   N     N_R   0.607680 0.103520 0.058910 -0.044419
N35   N     N_2   0.572366 0.725515 0.900778 -0.115758
N36   N     N_R   0.953790 0.399020 0.058440 -0.032588
N37   N     N_R   0.046210 0.399020 0.941560 -0.031972
N38   N     N_R   0.453790 0.899020 0.058440 -0.032586
N39   N     N_R   0.546210 0.899020 0.941560 -0.031973
N40   N     N_R   0.026760 0.529450 0.205590 -0.095754
Ni1   Ni    Ni4+2 0.934100 0.565890 0.869590 0.237768
Ni2   Ni    Ni4+2 0.065900 0.565890 0.130410 0.256212
Ni3   Ni    Ni4+2 0.434100 0.065890 0.869590 0.237773
Ni4   Ni    Ni4+2 0.565900 0.065890 0.130410 0.256217
Ni5   Ni    Ni4+2 0.068420 0.436630 0.132700 0.196967
Ni6   Ni    Ni4+2 0.931580 0.436630 0.867300 0.197728
Ni7   Ni    Ni4+2 0.568420 0.936630 0.132700 0.196969
Ni8   Ni    Ni4+2 0.431580 0.936630 0.867300 0.197729
O1    O     O_3   0.528299 0.414010 0.604900 -0.625841
O2    O     O_3   0.472612 0.403729 0.357803 -0.627562
O3    O     O_3   0.028305 0.914021 0.604892 -0.625839
O4    O     O_3   0.972599 0.903718 0.357789 -0.627568
O5    O     O_3   0.088166 0.598220 0.344747 -0.619643
O6    O     O_3   0.970546 0.598302 0.677848 -0.634363
O7    O     O_3   0.588169 0.098220 0.344747 -0.619640
O8    O     O_3   0.470543 0.098302 0.677845 -0.634360

loop_
_geom_bond_atom_site_label_1
_geom_bond_atom_site_label_2
_ccdc_geom_bond_type
C3    H105  S    
C12   C69   A    
C13   C79   A    
H93   N32   S    
C16   C21   S    
C87   N25   A    
C55   C59   D    
C27   C29   S    
C6    H6    S    
C6    H7    S    
C62   H26   S    
C71   H36   S    
H84   N30   S    
C51   N32   S    
C51   C61   S    
N37   Ni6   S    
C45   C50   A    
C101  H88   S    
C102  H91   S    
N17   Ni4   S    
C9    C75   A    
N12   Ni2   S    
C57   C62   D    
N21   Ni7   S    
C71   C94   A    
C73   H37   S    
C10   C67   A    
C43   N29   S    
C27   H54   S    
C18   O4    S    
C40   H17   S    
N19   Ni5   S    
C63   C94   A    
N21   N39   A    
C4    H107  S    
C58   H23   S    
N8    N17   A    
C71   N9    A    
C3    H104  S    
C56   H20   S    
C7    H10   S    
C48   H30   S    
N25   Ni4   S    
N1    Ni1   S    
C65   N3    A    
C101  H85   S    
C46   H28   S    
C30   C31   S    
C43   C52   D    
C13   C70   A    
C93   H59   S    
C88   C92   A    
C34   H12   S    
C81   H46   S    
C39   N34   A    
C31   H87   S    
C25   C30   S    
C4    H106  S    
C56   C57   S    
C14   C24   S    
C35   C42   S    
C9    C66   A    
C79   N17   A    
C99   H78   S    
C82   N20   A    
C11   C77   A    
C52   N33   S    
C24   C29   S    
C16   O3    S    
C10   C76   A    
C44   C53   D    
C61   C81   A    
N14   Ni1   S    
N18   Ni6   S    
C47   N38   A    
C20   H55   S    
C12   C78   A    
C1    C89   A    
H80   N29   S    
C96   H64   S    
C36   C90   S    
C23   C27   S    
N7    N16   A    
C98   H74   S    
C36   H14   S    
N22   Ni2   S    
C99   H79   S    
C82   H47   S    
C97   O4    S    
N5    N14   A    
C38   H16   S    
C15   C23   S    
C63   N40   A    
C54   H18   S    
C26   C31   S    
C28   H32   S    
C47   H29   S    
N2    Ni1   S    
C16   C26   S    
N23   N25   A    
C13   C25   S    
C68   H33   S    
C15   C20   S    
C18   C25   S    
C3    N35   S    
N9    Ni5   S    
C95   H61   S    
C45   N36   A    
C41   C49   D    
C49   N31   S    
C2    C64   A    
N15   Ni2   S    
C93   O1    S    
C95   O2    S    
C78   N16   A    
C80   H45   S    
C55   H19   S    
C97   H69   S    
C87   C91   A    
C17   C90   A    
C46   C61   A    
C76   N14   A    
C9    C62   S    
C19   H53   S    
C104  H99   S    
C20   C24   S    
C68   N6    A    
C75   N13   A    
N8    Ni7   S    
H97   N33   S    
C22   C26   S    
C88   H52   S    
C101  H86   S    
C86   C90   A    
C57   H22   S    
C22   H57   S    
C42   N28   S    
C2    C59   S    
C85   H49   S    
C98   N27   S    
C28   N23   A    
C93   H60   S    
C10   C24   S    
C4    O5    S    
C74   N11   A    
C96   H67   S    
C33   C37   D    
N5    Ni6   S    
C85   N22   A    
C12   C26   S    
C103  H94   S    
C34   C38   D    
C67   H31   S    
C53   N35   S    
C46   N37   A    
C34   C41   S    
H75   N28   S    
C52   C72   S    
C14   O1    S    
N39   Ni8   S    
N16   Ni3   S    
C98   H72   S    
C100  H82   S    
C8    C65   A    
C83   C84   A    
C37   H15   S    
N9    N40   A    
C67   N5    A    
C88   N26   A    
C59   H24   S    
C8    C74   A    
C103  N32   S    
C70   H35   S    
C103  H95   S    
C104  H101  S    
C98   H73   S    
C101  N30   S    
C97   H68   S    
C70   N8    A    
C21   C31   S    
N10   Ni6   S    
C2    C73   A    
C75   H39   S    
C99   N28   S    
C84   H48   S    
C100  H83   S    
C104  N33   S    
C45   H27   S    
C96   O3    S    
N38   Ni7   S    
C1    N1    A    
N24   Ni1   S    
C21   H56   S    
C87   H51   S    
C35   H13   S    
N2    N10   A    
N20   N38   A    
C78   H42   S    
N20   Ni8   S    
N1    N22   A    
N19   N37   A    
C95   H62   S    
C104  H100  S    
C39   C92   A    
C50   C80   A    
N18   N36   A    
C11   C68   A    
C19   C23   S    
N40   Ni2   S    
C5    H3    S    
C64   N2    A    
C69   H34   S    
C21   C25   S    
C54   C55   S    
C85   C89   A    
C97   H70   S    
C22   C30   S    
C69   N7    A    
N6    Ni5   S    
C6    H8    S    
C14   C19   S    
C7    H11   S    
C41   N27   S    
C33   H2    S    
N13   Ni8   S    
C80   N18   A    
C76   H40   S    
N3    N11   A    
C60   H25   S    
C32   C36   D    
H89   N31   S    
C79   H44   S    
N7    Ni8   S    
C20   C27   S    
N4    Ni3   S    
C77   N15   A    
C84   N21   A    
C73   N10   A    
C42   C51   D    
N4    N13   A    
C4    H108  S    
C48   C83   A    
C37   C89   S    
N26   Ni3   S    
C53   C83   S    
C66   O8    S    
C3    H103  S    
C7    H9    S    
C48   N39   A    
C18   C22   S    
C35   C40   D    
C58   C94   S    
C102  H92   S    
C74   H38   S    
C17   N12   A    
C64   O6    S    
C8    C60   S    
N11   Ni7   S    
C17   H21   S    
C63   O5    S    
C44   N30   S    
C77   H41   S    
N34   Ni4   S    
C93   H58   S    
C66   N4    A    
H71   N27   S    
C11   C23   S    
N3    Ni4   S    
C19   C29   S    
C32   C43   S    
N6    N15   A    
H102  N35   S    
C28   C91   A    
C95   H63   S    
C103  H96   S    
C40   C91   S    
C86   H50   S    
C7    O8    S    
C33   C44   S    
C86   N24   A    
C47   C72   A    
C99   H77   S    
N12   N24   A    
N26   N34   A    
N23   Ni3   S    
N36   Ni5   S    
C102  H90   S    
C56   C60   D    
C5    O6    S    
C54   C58   D    
C16   C18   S    
C49   C50   S    
C81   N19   A    
C39   H43   S    
C6    O7    S    
C15   O2    S    
C30   H76   S    
C14   C15   S    
C100  H81   S    
C96   H66   S    
C102  N31   S    
C5    H5    S    
C29   H65   S    
C32   H98   S    
C72   C82   A    
C100  N29   S    
C38   C92   S    
C1    H1    S    
C5    H4    S    
C65   O7    S    
