data_mof_unit_34260.cif
_audit_creation_date              2012-12-11T14:19:25-0500
_audit_creation_method            fapswitch 2.2
_symmetry_space_group_name_H-M    P1
_symmetry_Int_Tables_number       1
_space_group_crystal_system       triclinic
_cell_length_a                    19.450933
_cell_length_b                    7.225831
_cell_length_c                    17.784206
_cell_angle_alpha                 89.725202
_cell_angle_beta                  107.823011
_cell_angle_gamma                 90.297663
_cell_volume                      2379.54722297

loop_
_atom_site_label
_atom_site_type_symbol
_atom_type_description
_atom_site_fract_x
_atom_site_fract_y
_atom_site_fract_z
_atom_type_partial_charge
O1    O     O_R   0.414820 0.494320 0.416790 -0.545549
O2    O     O_R   0.585180 0.994320 0.583210 -0.541524
O3    O     O_R   0.560270 0.819500 0.430140 -0.540700
O4    O     O_R   0.439730 0.319500 0.569860 -0.528324
C1    C     C_R   0.583181 0.656056 0.417071 0.709674
C2    C     C_R   0.416740 0.155416 0.582732 0.706569
O5    O     O_R   0.413840 0.823740 0.407440 -0.540685
O6    O     O_R   0.586160 0.323740 0.592560 -0.543513
O7    O     O_R   0.437710 0.998590 0.560350 -0.538849
O8    O     O_R   0.562290 0.498590 0.439650 -0.526991
C3    C     C_R   0.387712 0.654624 0.385078 0.765429
C4    C     C_R   0.612304 0.154729 0.614868 0.768045
O9    O     O_3   0.508000 0.662290 0.550200 -0.379164
O10   O     O_3   0.492000 0.162290 0.449800 -0.377540
V1    V     V_3+5 0.498520 0.935380 0.490690 1.447280
V2    V     V_3+5 0.501480 0.435380 0.509310 1.455927
C5    C     C_2   0.783286 0.278222 0.789961 0.394073
C6    C     C_2   0.217811 0.777822 0.208711 0.393725
C7    C     C_2   0.820690 0.119166 0.815768 -0.311524
C8    C     C_2   0.179430 0.619218 0.184037 -0.310060
H1    H     H_    0.803338 0.990358 0.784690 0.091717
H2    H     H_    0.195986 0.490840 0.215990 0.090547
C9    C     C_2   0.717602 0.285529 0.718279 -0.230903
C10   C     C_2   0.283345 0.785397 0.280542 -0.227882
C11   C     C_2   0.678072 0.138221 0.683875 -0.330901
C12   C     C_2   0.321970 0.637985 0.316023 -0.333529
H3    H     H_    0.699975 0.421770 0.694180 0.139478
H4    H     H_    0.301682 0.921849 0.303752 0.141510
H5    H     H_    0.693007 0.000060 0.706807 0.130578
H6    H     H_    0.306405 0.499662 0.293818 0.130163
C13   C     C_R   0.312523 0.293748 0.620589 0.357598
C14   C     C_R   0.685616 0.499290 0.381682 0.348730
C15   C     C_R   0.362840 0.148333 0.626722 -0.202912
C16   C     C_R   0.636531 0.648669 0.372346 -0.200630
C17   C     C_R   0.362156 0.996755 0.676223 -0.199762
C18   C     C_R   0.638531 0.792649 0.319594 -0.203403
C19   C     C_R   0.314518 0.990069 0.721980 0.074993
C20   C     C_R   0.686542 0.788489 0.274350 0.071090
C21   C     C_R   0.267071 0.139959 0.718886 -0.081614
C22   C     C_R   0.732740 0.634596 0.280839 -0.078866
C23   C     C_R   0.266739 0.291802 0.668658 0.055759
C24   C     C_R   0.731425 0.489653 0.333820 0.058032
C25   C     C_R   0.314021 0.836792 0.771190 0.348800
C26   C     C_R   0.688801 0.935172 0.222538 0.347759
C27   C     C_R   0.266685 0.835334 0.817259 -0.241282
C28   C     C_R   0.736494 0.925700 0.177039 -0.230114
C29   C     C_R   0.219820 0.983548 0.814817 0.089206
C30   C     C_R   0.782092 0.773254 0.182736 0.094244
C31   C     C_R   0.219403 0.137052 0.765389 -0.058256
C32   C     C_R   0.780920 0.626776 0.235087 -0.057211
C33   C     C_R   0.171305 0.286465 0.762162 0.071228
C34   C     C_R   0.828040 0.473774 0.242080 0.068436
C35   C     C_R   0.172239 0.439470 0.711888 0.351799
C36   C     C_R   0.824956 0.326872 0.294481 0.355186
C37   C     C_R   0.219428 0.439070 0.665836 -0.235892
C38   C     C_R   0.777256 0.337837 0.339686 -0.228003
C39   C     C_R   0.173705 0.979183 0.861727 -0.175446
C40   C     C_R   0.828318 0.766014 0.135988 -0.190052
C41   C     C_R   0.126261 0.125418 0.860748 -0.159371
C42   C     C_R   0.874904 0.615852 0.140755 -0.155968
C43   C     C_R   0.123910 0.278801 0.809385 0.164810
C44   C     C_R   0.876568 0.471436 0.196275 0.171290
H7    H     H_    0.399958 0.884917 0.679889 0.196844
H8    H     H_    0.601762 0.907887 0.313319 0.198192
H9    H     H_    0.266337 0.717443 0.855097 0.121393
H10   H     H_    0.738132 0.038335 0.137120 0.117651
H11   H     H_    0.175447 0.861275 0.900239 0.136789
H12   H     H_    0.827306 0.877688 0.094711 0.132696
H13   H     H_    0.219256 0.556837 0.627856 0.177218
H14   H     H_    0.775829 0.224779 0.379410 0.174176
O11   O     O_R   0.937810 0.773680 0.060480 -0.538086
O12   O     O_R   0.062190 0.273680 0.939520 -0.549042
O13   O     O_R   0.086190 0.439740 0.092580 -0.547869
O14   O     O_R   0.913810 0.939740 0.907420 -0.545133
C45   C     C_R   0.112769 0.609145 0.114802 0.747804
C46   C     C_R   0.887305 0.109093 0.885103 0.748316
O15   O     O_R   0.939760 0.444210 0.069890 -0.550941
O16   O     O_R   0.060240 0.944210 0.930110 -0.538752
O17   O     O_R   0.914790 0.269640 0.916760 -0.497875
O18   O     O_R   0.085210 0.769640 0.083240 -0.496677
C47   C     C_R   0.920914 0.611644 0.087115 0.702353
C48   C     C_R   0.079461 0.113790 0.913382 0.702374
O19   O     O_3   0.992050 0.601530 0.949880 -0.375364
O20   O     O_3   0.007950 0.101530 0.050120 -0.374181
V3    V     V_3+5 0.001480 0.328340 0.009300 1.458134
V4    V     V_3+5 0.998520 0.828340 0.990700 1.485631
O21   O     O_3   0.807272 0.441316 0.830246 -0.626881
H15   H     H_    0.773859 0.542906 0.805427 0.274760
O22   O     O_3   0.195028 0.940134 0.167029 -0.627668
H16   H     H_    0.229056 0.041442 0.191174 0.274565
N1    N     N_3   0.071692 0.422994 0.802099 -0.575851
H17   H     H_    0.020344 0.364957 0.792316 0.230695
H18   H     H_    0.086143 0.503040 0.853371 0.250655
N2    N     N_3   0.929655 0.327376 0.209823 -0.578384
H19   H     H_    0.980846 0.385020 0.218050 0.225449
H20   H     H_    0.916002 0.235523 0.162303 0.253264
O23   O     O_3   0.127469 0.589466 0.708473 -0.614416
H21   H     H_    0.136005 0.684491 0.671863 0.293222
O24   O     O_3   0.867736 0.171871 0.300344 -0.615147
H22   H     H_    0.857611 0.081936 0.337946 0.292348
O25   O     O_3   0.305650 0.437018 0.567043 -0.640978
H23   H     H_    0.313019 0.386674 0.518382 0.281996
O26   O     O_3   0.691533 0.363905 0.438408 -0.642659
H24   H     H_    0.687623 0.424322 0.486828 0.282740
O27   O     O_3   0.359935 0.690042 0.773369 -0.643996
H25   H     H_    0.351937 0.593379 0.809616 0.290111
O28   O     O_3   0.644298 0.086352 0.217349 -0.646494
H26   H     H_    0.653640 0.177660 0.179770 0.289763

loop_
_geom_bond_atom_site_label_1
_geom_bond_atom_site_label_2
_ccdc_geom_bond_type
O21   H15   S    
O4    V2    S    
O25   H23   S    
O1    C3    A    
C46   O17   A    
O2    C4    A    
C2    O7    A    
O12   V3    S    
C29   C31   A    
O5    C3    A    
C5    C9    S    
O14   C46   A    
C6    C10   S    
C13   O25   S    
C7    C46   S    
C7    H1    S    
C10   C12   D    
C28   H10   S    
C39   C41   A    
C29   C39   A    
C40   C42   A    
C42   C44   A    
C25   O27   S    
C27   C29   A    
C23   C37   A    
O18   V4    S    
C24   C38   A    
C26   C28   A    
C31   C33   A    
C33   C43   A    
C32   C34   A    
O28   H26   S    
C41   C48   S    
C9    H3    S    
C45   O18   A    
C16   C18   A    
O16   V4    S    
C30   C32   A    
O15   V3    S    
O6    V2    S    
O13   C45   A    
C39   H11   S    
C34   C36   A    
O23   H21   S    
C28   C30   A    
C35   C37   A    
C11   H5    S    
C36   C38   A    
C41   C43   A    
O20   V3    S    
O4    C2    A    
N1    H17   S    
C5    C7    D    
O5    V1    S    
C3    C12   S    
C35   O23   S    
C8    C45   S    
C33   C35   A    
C14   C16   A    
C19   C25   A    
C20   C26   A    
N1    H18   S    
O11   V4    S    
C42   C47   S    
O16   C48   A    
O24   H22   S    
O15   C47   A    
O6    C4    A    
C1    C16   S    
C13   C15   A    
C14   O26   S    
O1    V2    S    
O14   V4    S    
N2    H20   S    
O2    V1    S    
C25   C27   A    
O13   V3    S    
C37   H13   S    
C40   H12   S    
C21   C31   A    
C8    H2    S    
C12   H6    S    
C38   H14   S    
C44   N2    S    
C27   H9    S    
C36   O24   S    
O17   V3    S    
O3    V1    S    
C26   O28   S    
C13   C23   A    
C17   C19   A    
C5    O21   S    
C6    O22   S    
C10   H4    S    
O3    C1    A    
C17   H7    S    
C30   C40   A    
O27   H25   S    
C2    C15   S    
C4    C11   S    
C18   C20   A    
O7    V1    S    
C1    O8    A    
C19   C21   A    
C34   C44   A    
C20   C22   A    
C22   C32   A    
C22   C24   A    
C15   C17   A    
C6    C8    D    
C9    C11   D    
N2    H19   S    
O19   V4    S    
C21   C23   A    
O9    V2    S    
O26   H24   S    
C14   C24   A    
O10   V1    S    
O8    V2    S    
O22   H16   S    
C18   H8    S    
O12   C48   A    
C43   N1    S    
O11   C47   A    
