data_mof_unit_55412.cif
_audit_creation_date              2012-12-10T18:18:23-0500
_audit_creation_method            fapswitch 2.2
_symmetry_space_group_name_H-M    P1
_symmetry_Int_Tables_number       1
_space_group_crystal_system       triclinic
_cell_length_a                    14.019271
_cell_length_b                    15.008101
_cell_length_c                    15.480287
_cell_angle_alpha                 90.0985
_cell_angle_beta                  67.713934
_cell_angle_gamma                 90.123582
_cell_volume                      3013.78630173

loop_
_atom_site_label
_atom_site_type_symbol
_atom_type_description
_atom_site_fract_x
_atom_site_fract_y
_atom_site_fract_z
_atom_type_partial_charge
C1    C     C_R   0.500100 0.673525 0.499908 0.898973
C2    C     C_R   0.500075 0.769403 0.500165 -0.078155
C3    C     C_R   0.579906 0.185106 0.514010 -0.255042
C4    C     C_R   0.419014 0.814991 0.488270 -0.259175
C5    C     C_R   0.580410 0.092953 0.514406 0.119060
C6    C     C_R   0.418018 0.907138 0.488850 0.119271
C7    C     C_R   0.499012 0.046387 0.501964 0.060745
C8    C     C_R   0.499299 0.953682 0.501519 0.061177
C9    C     C_R   0.417463 0.092520 0.489706 0.118955
C10   C     C_R   0.580971 0.907535 0.513536 0.118878
C11   C     C_R   0.660978 0.046767 0.526715 -0.220328
C12   C     C_R   0.499774 0.326489 0.500395 0.900789
C13   C     C_R   0.337254 0.953334 0.476908 -0.219927
C14   C     C_R   0.661279 0.954176 0.526234 -0.219046
C15   C     C_R   0.336965 0.045903 0.477359 -0.218824
C16   C     C_R   0.435699 0.499358 0.676250 0.890944
C17   C     C_R   0.564338 0.498913 0.323707 0.891461
C18   C     C_R   0.175486 0.448723 0.562696 -0.052428
C19   C     C_R   0.824727 0.550722 0.436861 -0.052680
C20   C     C_R   0.229039 0.550797 0.436420 -0.070168
C21   C     C_R   0.771354 0.447945 0.562524 -0.070770
C22   C     C_R   0.129295 0.551745 0.433113 -0.009312
C23   C     C_R   0.399254 0.409200 0.091796 -0.228511
C24   C     C_R   0.871694 0.445357 0.564449 -0.009550
C25   C     C_R   0.051117 0.499334 0.498780 0.040144
C26   C     C_R   0.949553 0.498662 0.499584 0.041566
C27   C     C_R   0.074657 0.447265 0.563643 0.000236
C28   C     C_R   0.925902 0.551113 0.435039 -0.001040
C29   C     C_R   0.105013 0.602976 0.366907 0.179309
C30   C     C_R   0.896910 0.391660 0.628476 0.173653
C31   C     C_R   0.003385 0.602345 0.369489 -0.259054
C32   C     C_R   0.997842 0.394193 0.627579 -0.261221
C33   C     C_R   0.396153 0.486123 0.776994 -0.117823
C34   C     C_R   0.627896 0.486050 0.890981 -0.232994
C35   C     C_R   0.605409 0.492327 0.222029 -0.116831
C36   C     C_R   0.272668 0.418821 0.918502 0.166623
C37   C     C_R   0.745277 0.506818 0.069822 0.169981
C38   C     C_R   0.300274 0.446802 0.825218 -0.193304
C39   C     C_R   0.709302 0.507788 0.168051 -0.193521
C40   C     C_R   0.464084 0.500401 0.821141 -0.269798
C41   C     C_R   0.537440 0.470363 0.179595 -0.272724
C42   C     C_R   0.445760 0.464800 0.908803 0.073145
C43   C     C_R   0.569294 0.466147 0.082996 0.072335
C44   C     C_R   0.347108 0.427523 0.960366 0.096803
C45   C     C_R   0.326458 0.398784 0.051808 -0.252016
C46   C     C_R   0.673246 0.488466 0.027164 0.100203
C47   C     C_R   0.523643 0.467015 0.946295 0.091342
C48   C     C_R   0.497102 0.447140 0.041376 0.088183
C49   C     C_3   0.184957 0.657929 0.291857 -0.439142
C50   C     C_3   0.254118 0.598919 0.212329 -0.832367
C51   C     C_3   0.819637 0.329734 0.697355 -0.415762
C52   C     C_3   0.805435 0.244536 0.649432 -0.871244
C53   C     C_3   0.167369 0.377134 0.972682 -0.411409
C54   C     C_3   0.095032 0.367611 0.919917 -0.904363
C55   C     C_3   0.857760 0.527680 0.010025 -0.419759
C56   C     C_R   0.701503 0.494005 0.930263 -0.255531
C57   C     C_3   0.929114 0.544627 0.062637 -0.892403
C58   C     C_R   0.418110 0.184681 0.489639 -0.262885
C59   C     C_R   0.580807 0.815345 0.512664 -0.262777
C60   C     C_R   0.499235 0.230643 0.501374 -0.077682
H1    H     H_    0.253516 0.368879 0.094325 0.145310
H2    H     H_    0.533044 0.538307 0.784242 0.160787
H3    H     H_    0.760319 0.523165 0.203671 0.168259
H4    H     H_    0.249576 0.436147 0.788207 0.165868
H5    H     H_    0.378041 0.383598 0.161720 0.148106
H6    H     H_    0.655764 0.492421 0.816075 0.140517
H7    H     H_    0.355849 0.220451 0.479777 0.162777
H8    H     H_    0.643243 0.779534 0.522169 0.162542
H9    H     H_    0.642253 0.221215 0.523611 0.158339
H10   H     H_    0.356858 0.778932 0.478217 0.158637
H11   H     H_    0.723613 0.082208 0.536471 0.149828
H12   H     H_    0.779792 0.508133 0.883627 0.144756
H13   H     H_    0.274609 0.917917 0.467165 0.143957
H14   H     H_    0.724144 0.919091 0.535631 0.146203
H15   H     H_    0.274119 0.080989 0.467925 0.145963
H16   H     H_    0.295468 0.549228 0.238088 0.251421
H17   H     H_    0.207209 0.563229 0.179249 0.262777
H18   H     H_    0.312081 0.640732 0.158613 0.253082
H19   H     H_    0.146970 0.707101 0.261752 0.207104
H20   H     H_    0.231781 0.697759 0.321847 0.192309
H21   H     H_    0.777770 0.259692 0.592769 0.248887
H22   H     H_    0.747857 0.200883 0.701260 0.252669
H23   H     H_    0.195011 0.408941 0.611939 0.124276
H24   H     H_    0.879663 0.208021 0.619371 0.261355
H25   H     H_    0.846072 0.310640 0.754017 0.208324
H26   H     H_    0.744556 0.363503 0.732460 0.196950
H27   H     H_    0.079497 0.433589 0.895741 0.260907
H28   H     H_    0.128774 0.321953 0.859404 0.256933
H29   H     H_    0.020451 0.338942 0.967252 0.260302
H30   H     H_    0.179079 0.309302 0.995585 0.208762
H31   H     H_    0.127310 0.418220 0.035875 0.206349
H32   H     H_    0.903239 0.603910 0.108642 0.255546
H33   H     H_    0.931872 0.485190 0.104289 0.263057
H34   H     H_    0.805186 0.590639 0.387723 0.125157
H35   H     H_    0.008403 0.558139 0.011746 0.260518
H36   H     H_    0.890110 0.470825 0.961786 0.205403
H37   H     H_    0.860474 0.587907 0.967480 0.209092
H38   H     H_    0.291090 0.590261 0.388759 0.151386
H39   H     H_    0.709199 0.408665 0.610317 0.152271
H40   H     H_    0.984722 0.641439 0.319185 0.139067
H41   H     H_    0.017097 0.353459 0.676444 0.139278
H42   H     H_    0.457473 0.461357 0.223567 0.162007
N1    N     N_R   0.249980 0.499930 0.499960 -0.103208
N2    N     N_R   0.750020 0.500070 0.500040 -0.102847
O1    O     O_R   0.419720 0.632140 0.499980 -0.623261
O2    O     O_R   0.580280 0.367860 0.500020 -0.622559
O3    O     O_R   0.580270 0.632160 0.499970 -0.624927
O4    O     O_R   0.419730 0.367840 0.500030 -0.625410
O5    O     O_R   0.373870 0.499980 0.632250 -0.619488
O6    O     O_R   0.626130 0.500020 0.367750 -0.619472
O7    O     O_R   0.534420 0.500000 0.632240 -0.620431
O8    O     O_R   0.465580 0.500000 0.367760 -0.622991
Zn1   Zn    Zn3+2 0.392800 0.499980 0.500010 0.935886
Zn2   Zn    Zn3+2 0.607200 0.500020 0.499990 0.937459

loop_
_geom_bond_atom_site_label_1
_geom_bond_atom_site_label_2
_ccdc_geom_bond_type
C15   H15   S    
C30   C51   S    
C50   H17   S    
C34   C56   A    
C23   C45   A    
C57   H32   S    
C2    C4    A    
C17   O6    A    
C51   H25   S    
C4    H10   S    
C7    C8    A    
C20   N1    A    
C29   C49   S    
C53   C54   S    
O2    Zn2   S    
C14   H14   S    
O1    Zn1   S    
C22   C29   A    
C24   C26   A    
C1    C2    S    
C54   H27   S    
C21   H39   S    
C11   C14   A    
C11   H11   S    
C58   C60   A    
C40   H2    S    
C41   H42   S    
C9    C58   A    
C52   H24   S    
C36   C53   S    
C21   N2    A    
C56   H12   S    
C22   C25   A    
C53   H31   S    
C43   C48   A    
O6    Zn2   S    
O5    Zn1   S    
C18   N1    A    
C3    C60   A    
C3    H9    S    
C40   C42   A    
C57   H33   S    
C41   C43   A    
C34   H6    S    
C42   C44   A    
C50   H18   S    
C51   H26   S    
O8    Zn1   S    
C16   O5    A    
C38   H4    S    
C33   C40   A    
C51   C52   S    
C54   H29   S    
C4    C6    A    
C10   C14   A    
C5    C7    A    
C2    C59   A    
C6    C8    A    
C25   C26   A    
C12   O2    A    
C49   H19   S    
C12   C60   S    
O4    Zn1   S    
C35   C39   A    
O3    Zn2   S    
C50   H16   S    
C59   H8    S    
C19   N2    A    
C47   C48   A    
C13   C15   A    
C55   H37   S    
C18   H23   S    
C31   H40   S    
C52   H22   S    
C19   C28   A    
C19   H34   S    
C1    O3    A    
N2    Zn2   S    
C8    C10   A    
C13   H13   S    
C55   C57   S    
C36   C44   A    
C17   O8    A    
C44   C45   A    
C12   O4    A    
C7    C9    A    
C23   C48   A    
N1    Zn1   S    
C27   C32   A    
C28   C31   A    
C18   C27   A    
C20   C22   A    
C55   H36   S    
C3    C5    A    
C5    C11   A    
C25   C27   A    
C39   H3    S    
C26   C28   A    
C33   C38   A    
C49   H20   S    
C54   H28   S    
C36   C38   A    
C10   C59   A    
C9    C15   A    
C29   C31   A    
C16   C33   S    
C6    C13   A    
C30   C32   A    
C23   H5    S    
C45   H1    S    
O7    Zn2   S    
C42   C47   A    
C52   H21   S    
C35   C41   A    
C43   C46   A    
C24   C30   A    
C37   C55   S    
C58   H7    S    
C20   H38   S    
C37   C39   A    
C49   C50   S    
C57   H35   S    
C21   C24   A    
C46   C56   A    
C53   H30   S    
C32   H41   S    
C34   C47   A    
C17   C35   S    
C37   C46   A    
C16   O7    A    
C1    O1    A    
