data_mof_unit_62206.cif
_audit_creation_date              2012-12-10T18:47:02-0500
_audit_creation_method            fapswitch 2.2
_symmetry_space_group_name_H-M    P1
_symmetry_Int_Tables_number       1
_space_group_crystal_system       triclinic
_cell_length_a                    15.858548
_cell_length_b                    18.128009
_cell_length_c                    19.452253
_cell_angle_alpha                 89.796541
_cell_angle_beta                  89.999768
_cell_angle_gamma                 70.311628
_cell_volume                      5265.24564296

loop_
_atom_site_label
_atom_site_type_symbol
_atom_type_description
_atom_site_fract_x
_atom_site_fract_y
_atom_site_fract_z
_atom_type_partial_charge
C1    C     C_R   0.500212 0.499748 0.632538 0.925874
C2    C     C_R   0.500333 0.500094 0.367472 0.927149
C3    C     C_R   0.094326 0.405264 0.473763 -0.192736
C4    C     C_R   0.905526 0.595163 0.473954 -0.189251
C5    C     C_R   0.049386 0.351541 0.473204 -0.195003
C6    C     C_R   0.950473 0.648885 0.473709 -0.184826
C7    C     C_R   0.552382 0.539449 0.256583 0.054095
C8    C     C_R   0.550980 0.430139 0.744017 0.045185
C9    C     C_R   0.545747 0.547549 0.184586 0.388466
C10   C     C_R   0.544310 0.426764 0.816068 0.381683
C11   C     C_R   0.507240 0.499920 0.147418 -0.219238
C12   C     C_R   0.506322 0.497497 0.852642 -0.214732
C13   C     C_R   0.465757 0.453201 0.182462 0.091785
C14   C     C_R   0.464997 0.568353 0.817038 0.085757
C15   C     C_R   0.452004 0.461880 0.253747 0.362838
C16   C     C_R   0.451308 0.567130 0.745760 0.360087
C17   C     C_R   0.501038 0.500628 0.291690 -0.330852
C18   C     C_R   0.500266 0.499105 0.708341 -0.328545
C19   C     C_R   0.426888 0.523954 0.035791 -0.089368
C20   C     C_R   0.589262 0.475235 0.964122 -0.069294
C21   C     C_R   0.426646 0.522086 0.964397 -0.076115
C22   C     C_R   0.589490 0.473989 0.035780 -0.068659
C23   C     C_R   0.672338 0.452785 0.499273 0.799813
C24   C     C_R   0.327648 0.547232 0.499506 0.893798
C25   C     C_R   0.507745 0.498412 0.928192 0.192584
C26   C     C_R   0.508210 0.499086 0.071847 0.178767
C27   C     C_R   0.569385 0.259353 0.469834 0.127645
C28   C     C_R   0.430159 0.742271 0.471677 0.122142
C29   C     C_R   0.572214 0.181114 0.469456 -0.172075
C30   C     C_R   0.429232 0.820117 0.471617 -0.169050
C31   C     C_R   0.502175 0.160868 0.499087 0.225868
C32   C     C_R   0.501550 0.838078 0.499831 0.227816
C33   C     C_R   0.430800 0.220729 0.528975 -0.180207
C34   C     C_R   0.572669 0.776690 0.528479 -0.183930
C35   C     C_R   0.431527 0.298015 0.529611 0.117128
C36   C     C_R   0.570103 0.700103 0.528797 0.124027
C37   C     C_R   0.499998 0.039496 0.436998 0.048766
C38   C     C_R   0.501337 0.960167 0.561745 0.049859
C39   C     C_R   0.508058 0.958988 0.436139 0.354514
C40   C     C_R   0.510193 0.035611 0.562488 0.353502
C41   C     C_R   0.503789 0.920213 0.498938 -0.193677
C42   C     C_R   0.504585 0.077353 0.499765 -0.192400
C43   C     C_R   0.770351 0.425071 0.494262 -0.041881
C44   C     C_R   0.229579 0.575043 0.494805 -0.023824
C45   C     C_R   0.912715 0.321170 0.481573 -0.162302
C46   C     C_R   0.087185 0.679125 0.482372 -0.163785
C47   C     C_R   0.819993 0.345262 0.488567 -0.162307
C48   C     C_R   0.179939 0.654923 0.489308 -0.142282
C49   C     C_R   0.814146 0.480325 0.492585 -0.215512
C50   C     C_R   0.185739 0.519838 0.493083 -0.186846
C51   C     C_R   0.907124 0.457842 0.483043 0.093205
C52   C     C_R   0.092743 0.542452 0.483442 0.087579
C53   C     C_R   0.956616 0.376652 0.479207 0.152126
C54   C     C_R   0.043257 0.623689 0.479788 0.147425
C55   C     C_R   0.952306 0.513607 0.479123 0.067364
C56   C     C_R   0.047550 0.486746 0.479185 0.069583
Cu1   Cu    Cu3+1 0.500030 0.426630 0.500000 1.027491
Cu2   Cu    Cu3+1 0.499970 0.573370 0.500000 1.028823
H1    H     H_    0.087800 0.289683 0.468984 0.158019
H2    H     H_    0.912059 0.710797 0.469645 0.161811
H3    H     H_    0.363744 0.543790 0.063138 0.167310
H4    H     H_    0.652280 0.457224 0.936638 0.168709
H5    H     H_    0.363315 0.539767 0.937174 0.165352
H6    H     H_    0.652669 0.454401 0.063161 0.175785
H7    H     H_    0.623168 0.274303 0.446110 0.118567
H8    H     H_    0.374850 0.728912 0.448860 0.121556
H9    H     H_    0.628595 0.136621 0.446119 0.152941
H10   H     H_    0.373057 0.865843 0.449108 0.159638
H11   H     H_    0.375573 0.207516 0.552390 0.157702
H12   H     H_    0.629659 0.788104 0.550692 0.149280
H13   H     H_    0.377053 0.343175 0.554019 0.122464
H14   H     H_    0.624679 0.653926 0.552259 0.119258
H15   H     H_    0.225645 0.459345 0.500808 0.146168
H16   H     H_    0.774255 0.540729 0.500396 0.148003
H17   H     H_    0.212665 0.698580 0.490403 0.162129
H18   H     H_    0.787298 0.301573 0.489577 0.162352
H19   H     H_    0.950193 0.259084 0.477985 0.151046
H20   H     H_    0.049713 0.741257 0.478929 0.151859
H21   H     H_    0.165925 0.380887 0.467776 0.155687
H22   H     H_    0.833915 0.619630 0.467918 0.157154
N1    N     N_R   0.500010 0.316380 0.499980 -0.174561
N2    N     N_R   0.499990 0.683620 0.500020 -0.173541
O1    O     O_R   0.500040 0.438010 0.599820 -0.570660
O2    O     O_R   0.499960 0.561990 0.400180 -0.570561
O3    O     O_R   0.500000 0.561930 0.599810 -0.530801
O4    O     O_R   0.500000 0.438070 0.400190 -0.532289
O5    O     O_R   0.629870 0.403290 0.500000 -0.601413
O6    O     O_R   0.370130 0.596710 0.500000 -0.580853
O7    O     O_R   0.629830 0.527210 0.500000 -0.604431
O8    O     O_R   0.370170 0.472790 0.500000 -0.586125
I1    I     I_    0.470151 0.108371 0.344275 -0.107119
I2    I     I_    0.473679 0.908417 0.654930 -0.097003
S1    S     S_3+6 0.524607 0.907373 0.356446 0.057755
O9    O     O_2   0.435077 0.923152 0.322482 -0.253277
O10   O     O_2   0.583661 0.935115 0.310051 -0.208779
O11   O     O_3   0.573871 0.810154 0.367394 -0.528103
H23   H     H_    0.568178 0.786864 0.322389 0.408558
S2    S     S_3+6 0.529417 0.076481 0.641970 0.060903
O12   O     O_2   0.441018 0.113308 0.677426 -0.253989
O13   O     O_2   0.589707 0.013285 0.687291 -0.206720
O14   O     O_3   0.578683 0.144541 0.630381 -0.522132
H24   H     H_    0.574038 0.170946 0.675414 0.408320
I3    I     I_    0.650479 0.575587 0.310619 -0.190030
I4    I     I_    0.648207 0.335052 0.690793 -0.168728
S3    S     S_3+6 0.583918 0.618107 0.142358 0.053270
O15   O     O_2   0.536638 0.643825 0.074930 -0.259210
O16   O     O_2   0.566711 0.689254 0.186915 -0.222669
O17   O     O_3   0.694589 0.577880 0.128251 -0.517111
H25   H     H_    0.711849 0.619668 0.105552 0.393868
S4    S     S_3+6 0.581479 0.334277 0.859307 0.054665
O18   O     O_2   0.564119 0.272857 0.815365 -0.212820
O19   O     O_2   0.680350 0.311445 0.872677 -0.266162
O20   O     O_3   0.527594 0.337762 0.934387 -0.515196
H26   H     H_    0.561334 0.288381 0.958458 0.395904
I5    I     I_    0.435449 0.362144 0.128068 -0.122017
I6    I     I_    0.434784 0.677793 0.870522 -0.090920
S5    S     S_3+6 0.369377 0.429024 0.293334 0.043125
O21   O     O_2   0.413064 0.346453 0.318689 -0.256506
O22   O     O_2   0.326738 0.480948 0.352685 -0.324504
O23   O     O_3   0.287587 0.431689 0.237343 -0.482766
H27   H     H_    0.247823 0.409101 0.262709 0.384206
S6    S     S_3+6 0.368807 0.648413 0.705561 0.045875
O24   O     O_2   0.412510 0.705275 0.680418 -0.255050
O25   O     O_2   0.326578 0.621408 0.645979 -0.320228
O26   O     O_3   0.286704 0.693957 0.761159 -0.484128
H28   H     H_    0.247869 0.740677 0.736024 0.387115

loop_
_geom_bond_atom_site_label_1
_geom_bond_atom_site_label_2
_ccdc_geom_bond_type
C30   C32   A    
C55   C56   A    
O14   H24   S    
C31   C42   S    
C27   C29   A    
C2    O2    A    
C3    H21   S    
C35   N1    A    
C39   C41   A    
O17   H25   S    
S3    O16   D    
C1    C18   S    
S1    O9    D    
C5    C53   A    
C19   C21   A    
C47   H18   S    
C4    H22   S    
Cu2   N2    S    
C40   S2    S    
C7    I3    S    
C20   C25   A    
C9    S3    S    
C38   I2    S    
C23   C43   S    
Cu1   O4    S    
C15   C17   A    
C37   C42   A    
C19   C26   A    
C16   S6    S    
S4    O18   D    
C39   S1    S    
C29   H9    S    
C36   H14   S    
C36   N2    A    
C7    C17   A    
C50   C52   A    
C32   C41   S    
Cu1   O1    S    
C10   S4    S    
C34   H12   S    
C51   C55   A    
C33   H11   S    
C40   C42   A    
C35   H13   S    
S1    O10   D    
C23   O5    A    
C2    C17   S    
C48   H17   S    
C6    C54   A    
Cu2   O7    S    
C52   C54   A    
C45   C47   A    
C1    O3    A    
S3    O17   S    
C46   C48   A    
Cu1   O8    S    
C5    H1    S    
C28   N2    A    
C6    H2    S    
C27   N1    A    
C38   C41   A    
C4    C6    A    
S5    O23   S    
C46   H20   S    
C37   I1    S    
C43   C49   A    
C11   C26   S    
C49   C51   A    
C22   H6    S    
C8    C18   A    
Cu1   O5    S    
Cu2   O6    S    
C51   C53   A    
C32   C34   A    
C28   H8    S    
C27   H7    S    
Cu2   O2    S    
C9    C11   A    
C3    C56   A    
C29   C31   A    
O11   H23   S    
C46   C54   A    
C23   O7    A    
C8    I4    S    
S4    O20   S    
C13   I5    S    
C10   C12   A    
C8    C10   A    
C12   C14   A    
S1    O11   S    
S2    O13   D    
C13   C15   A    
C4    C55   A    
O26   H28   S    
C24   C44   S    
C14   C16   A    
C50   H15   S    
S6    O25   D    
Cu2   O3    S    
O23   H27   S    
O20   H26   S    
C44   C50   A    
C7    C9    A    
C21   C25   A    
C31   C33   A    
C24   O6    A    
C20   C22   A    
C3    C5    A    
C24   O8    A    
C1    O1    A    
S2    O14   S    
S3    O15   D    
C12   C25   S    
S6    O26   S    
S5    O22   D    
C37   C39   A    
C44   C48   A    
S5    O21   D    
C38   C40   A    
C11   C13   A    
Cu1   Cu2   S    
C19   H3    S    
C14   I6    S    
C28   C30   A    
C33   C35   A    
C2    O4    A    
C34   C36   A    
C20   H4    S    
Cu1   N1    S    
S4    O19   D    
C21   H5    S    
C45   C53   A    
C15   S5    S    
C16   C18   A    
S2    O12   D    
C22   C26   A    
C49   H16   S    
C45   H19   S    
S6    O24   D    
C43   C47   A    
C30   H10   S    
C52   C56   A    
