data_mof_unit_44976.cif
_audit_creation_date              2012-12-10T16:53:09-0500
_audit_creation_method            fapswitch 2.2
_symmetry_space_group_name_H-M    P1
_symmetry_Int_Tables_number       1
_space_group_crystal_system       triclinic
_cell_length_a                    10.760466
_cell_length_b                    10.917052
_cell_length_c                    9.702357
_cell_angle_alpha                 89.607679
_cell_angle_beta                  90.072415
_cell_angle_gamma                 90.321107
_cell_volume                      1139.71530763

loop_
_atom_site_label
_atom_site_type_symbol
_atom_type_description
_atom_site_fract_x
_atom_site_fract_y
_atom_site_fract_z
_atom_type_partial_charge
C1    C     C_R   0.503288 0.265360 0.500605 0.838731
C2    C     C_R   0.064623 0.386197 0.541183 0.012013
C3    C     C_R   0.128675 0.493797 0.499656 -0.120088
C4    C     C_R   0.064894 0.598621 0.455458 0.403052
C5    C     C_R   0.935498 0.597372 0.455949 -0.303493
C6    C     C_R   0.870856 0.493378 0.500029 -0.107293
C7    C     C_2   0.536191 0.934468 0.388245 0.430609
C8    C     C_2   0.497804 0.867475 0.497586 -0.320152
C9    C     C_2   0.522213 0.068735 0.387868 -0.254543
C10   C     C_2   0.516162 0.133631 0.504106 -0.377676
C11   C     C_2   0.427910 0.429517 0.922543 -0.052346
C12   C     C_R   0.262669 0.498321 0.499952 0.863209
C13   C     C_2   0.429309 0.428132 0.078224 -0.056496
C14   C     C_R   0.501510 0.734839 0.499279 0.904400
C15   C     C_R   0.737287 0.499235 0.500005 0.803917
C16   C     C_R   0.127959 0.278142 0.579595 -0.233301
C17   C     C_R   0.062435 0.172082 0.615819 -0.132652
C18   C     C_R   0.932392 0.170796 0.614401 0.318863
C19   C     C_R   0.868635 0.278089 0.579036 -0.226489
C20   C     C_R   0.933579 0.386075 0.541285 0.061082
Cu1   Cu    Cu3+1 0.500020 0.500020 0.638630 0.949996
Cu2   Cu    Cu3+1 0.499980 0.499980 0.361370 0.993705
H1    H     H_    0.526655 0.091431 0.604841 0.147384
H2    H     H_    0.363459 0.367878 0.871569 0.152869
H3    H     H_    0.561373 0.556004 0.893567 0.200537
H4    H     H_    0.367498 0.363896 0.129925 0.151625
H5    H     H_    0.556100 0.561122 0.105684 0.209172
H6    H     H_    0.228377 0.274137 0.580656 0.140431
H7    H     H_    0.113386 0.090804 0.645469 0.147501
H8    H     H_    0.768167 0.275300 0.578509 0.129830
H9    H     H_    0.884694 0.678153 0.423508 0.143423
H10   H     H_    0.457869 0.909245 0.588144 0.104528
H11   H     H_    0.519391 0.115050 0.288426 0.173322
N1    N     N_2   0.498640 0.498660 0.846910 -0.278836
N2    N     N_2   0.498610 0.498630 0.153040 -0.274909
O1    O     O_R   0.500020 0.321960 0.617040 -0.593704
O2    O     O_R   0.499980 0.321920 0.382900 -0.580246
O3    O     O_R   0.319670 0.500020 0.617100 -0.583248
O4    O     O_R   0.319630 0.499980 0.382950 -0.556334
O5    O     O_R   0.500020 0.678080 0.617100 -0.592684
O6    O     O_R   0.499980 0.678040 0.382960 -0.501895
O7    O     O_R   0.680370 0.500020 0.617050 -0.581522
O8    O     O_R   0.680330 0.499980 0.382900 -0.570999
O9    O     O_3   0.131237 0.701365 0.414288 -0.734460
H12   H     H_    0.072315 0.766444 0.386074 0.321479
N3    N     N_2   0.865344 0.062695 0.651840 -0.430577
H13   H     H_    0.773356 0.077199 0.676501 0.248577
C21   C     C_3   0.880955 0.960185 0.559740 -0.682863
H14   H     H_    0.826848 0.880312 0.598870 0.228621
H15   H     H_    0.980106 0.933138 0.553961 0.234218
H16   H     H_    0.846456 0.984267 0.455002 0.233077
O10   O     O_3   0.585951 0.877089 0.274281 -0.714612
H17   H     H_    0.611167 0.940493 0.206053 0.315248

loop_
_geom_bond_atom_site_label_1
_geom_bond_atom_site_label_2
_ccdc_geom_bond_type
C16   H6    S    
Cu1   N1    S    
C10   H1    S    
C6    C20   A    
C9    C10   D    
Cu2   O8    S    
C1    O2    A    
H3    N1    S    
C12   O4    A    
C21   H15   S    
C2    C3    A    
C15   O8    A    
C7    C8    D    
Cu1   O1    S    
Cu1   Cu2   S    
O10   H17   S    
C9    H11   S    
Cu2   N2    S    
C11   C13   S    
Cu1   O7    S    
Cu1   O5    S    
C2    C16   A    
C14   O6    A    
Cu2   O4    S    
C18   N3    S    
C21   H14   S    
C7    O10   S    
C13   N2    D    
C11   N1    D    
C12   O3    A    
C5    C6    A    
N3    C21   S    
C13   H4    S    
Cu2   O6    S    
C1    C10   S    
C2    C20   A    
C3    C4    A    
C8    H10   S    
C11   H2    S    
C17   H7    S    
O9    H12   S    
C15   O7    A    
C17   C18   A    
C18   C19   A    
C7    C9    S    
N3    H13   S    
C4    C5    A    
C8    C14   S    
C3    C12   S    
C4    O9    S    
H5    N2    S    
C6    C15   S    
C19   H8    S    
C14   O5    A    
Cu2   O2    S    
C21   H16   S    
Cu1   O3    S    
C19   C20   A    
C1    O1    A    
C16   C17   A    
C5    H9    S    
