data_mof_unit_12158.cif
_audit_creation_date              2012-10-26T19:21:31-0400
_audit_creation_method            fapswitch 2.2
_symmetry_space_group_name_H-M    P1
_symmetry_Int_Tables_number       1
_space_group_crystal_system       triclinic
_cell_length_a                    10.006679
_cell_length_b                    10.996082
_cell_length_c                    15.773929
_cell_angle_alpha                 97.724196
_cell_angle_beta                  78.638561
_cell_angle_gamma                 110.742182
_cell_volume                      1587.40549495

loop_
_atom_site_label
_atom_site_type_symbol
_atom_type_description
_atom_site_fract_x
_atom_site_fract_y
_atom_site_fract_z
_atom_type_partial_charge
Br1   Br    Br    0.056401 0.270827 0.434747 -0.472981
Br2   Br    Br    0.838008 0.538395 0.656593 -0.486648
C1    C     C_R   0.556618 0.744953 0.505102 0.542118
C2    C     C_2   0.522013 0.070348 0.493426 -0.167917
C3    C     C_2   0.934743 0.506497 0.481976 0.146638
C4    C     C_2   0.082663 0.524463 0.500957 0.146774
C5    C     C_R   0.412227 0.486772 0.662384 0.534574
C6    C     C_R   0.588181 0.517276 0.338084 0.529775
C7    C     C_R   0.359830 0.476100 0.755739 -0.013494
C8    C     C_R   0.641064 0.546596 0.247160 0.004084
C9    C     C_R   0.169203 0.394641 0.875615 -0.129384
C10   C     C_R   0.820370 0.673152 0.136804 -0.136757
C11   C     C_R   0.213496 0.413920 0.787635 -0.143244
C12   C     C_R   0.446649 0.255251 0.490183 0.546558
C13   C     C_R   0.778744 0.635755 0.221599 -0.127023
C14   C     C_R   0.460250 0.523004 0.813037 -0.124725
C15   C     C_R   0.543619 0.498965 0.188236 -0.132190
C16   C     C_R   0.418502 0.505128 0.902194 0.030216
C17   C     C_R   0.577946 0.544939 0.105001 0.029594
C18   C     C_R   0.270770 0.436846 0.932586 0.050003
C19   C     C_R   0.721006 0.628880 0.078467 0.047308
C20   C     C_R   0.519998 0.548493 0.961160 0.032273
C21   C     C_R   0.474217 0.510676 0.047940 0.031234
C22   C     C_R   0.148066 0.648705 0.552975 0.088173
C23   C     C_R   0.325366 0.444236 0.075797 -0.141742
C24   C     C_R   0.150496 0.767448 0.527253 -0.097229
C25   C     C_R   0.179121 0.879779 0.583796 -0.091517
C26   C     C_R   0.213487 0.877630 0.664873 -0.090371
C27   C     C_R   0.209011 0.760751 0.692113 -0.110066
C28   C     C_R   0.170552 0.646608 0.638041 -0.010378
C29   C     C_R   0.916215 0.466722 0.389771 0.086666
C30   C     C_R   0.009902 0.544665 0.323810 -0.098175
C31   C     C_R   0.004915 0.501660 0.236527 -0.115310
C32   C     C_R   0.905276 0.381322 0.214033 -0.098807
C33   C     C_R   0.814616 0.301487 0.278677 -0.104119
C34   C     C_R   0.664851 0.630048 0.936784 -0.127779
C35   C     C_R   0.822140 0.342687 0.365874 -0.008440
C36   C     C_R   0.225893 0.409403 0.019197 -0.136548
C37   C     C_R   0.762513 0.670387 0.994805 -0.129181
C38   C     C_2   0.588378 0.884975 0.508918 -0.112390
C39   C     C_2   0.426134 0.116845 0.473693 -0.144336
C40   C     C_2   0.506019 0.933150 0.476243 -0.150875
Cu1   Cu    Cu3+1 0.362980 0.479380 0.485080 1.017597
Cu2   Cu    Cu3+1 0.637020 0.520620 0.514920 1.020404
H1    H     H_    0.113128 0.358142 0.043067 0.104155
H2    H     H_    0.705403 0.669239 0.874162 0.128660
H3    H     H_    0.611020 0.133217 0.525954 0.175098
H4    H     H_    0.421988 0.869997 0.440268 0.154198
H5    H     H_    0.335326 0.053657 0.442908 0.110654
H6    H     H_    0.676558 0.948849 0.541698 0.125417
H7    H     H_    0.123006 0.772052 0.465146 0.082103
H8    H     H_    0.172289 0.968247 0.565401 0.129042
H9    H     H_    0.237294 0.965177 0.707969 0.118888
H10   H     H_    0.225835 0.756764 0.757247 0.108559
H11   H     H_    0.140368 0.555346 0.666743 0.150969
H12   H     H_    0.871499 0.735030 0.973971 0.112908
H13   H     H_    0.088324 0.637920 0.339622 0.080949
H14   H     H_    0.077007 0.562555 0.186304 0.112081
H15   H     H_    0.899219 0.349244 0.146590 0.106187
H16   H     H_    0.740825 0.206300 0.261264 0.108308
H17   H     H_    0.760843 0.274904 0.414143 0.146438
H18   H     H_    0.440758 0.426634 0.209542 0.128954
H19   H     H_    0.571739 0.568735 0.785698 0.161293
H20   H     H_    0.852805 0.678741 0.267595 0.134785
H21   H     H_    0.134217 0.375990 0.744339 0.142777
H22   H     H_    0.055937 0.343539 0.898812 0.115017
H23   H     H_    0.928631 0.740310 0.117698 0.107852
H24   H     H_    0.280921 0.421087 0.141966 0.122640
N1    N     N_2   0.842890 0.551600 0.537350 -0.122258
N2    N     N_2   0.157110 0.448400 0.462650 -0.120609
O1    O     O_R   0.426810 0.668300 0.492040 -0.512177
O2    O     O_R   0.573190 0.331700 0.507960 -0.506945
O3    O     O_R   0.658240 0.703130 0.517240 -0.481886
O4    O     O_R   0.341760 0.296870 0.482760 -0.438440
O5    O     O_R   0.319390 0.472820 0.610170 -0.521577
O6    O     O_R   0.680610 0.527180 0.389830 -0.515458
O7    O     O_R   0.550820 0.507640 0.635370 -0.443138
O8    O     O_R   0.449180 0.492360 0.364630 -0.487807

loop_
_geom_bond_atom_site_label_1
_geom_bond_atom_site_label_2
_ccdc_geom_bond_type
C31   H14   S    
C1    O1    A    
C11   H21   S    
Cu1   O8    S    
C24   C25   A    
C12   O4    A    
C26   C27   A    
C17   C19   A    
C7    C14   A    
C22   C24   A    
C8    C13   A    
C3    C4    S    
C23   C36   A    
C27   H10   S    
C8    C15   A    
C6    O6    A    
C5    C7    S    
C32   C33   A    
Cu2   O6    S    
C7    C11   A    
C36   H1    S    
C3    N1    D    
C29   C30   A    
C13   H20   S    
C34   H2    S    
C14   H19   S    
Br2   N1    S    
C9    H22   S    
C5    O7    A    
Cu1   O4    S    
C38   C40   D    
C6    O8    A    
C23   H24   S    
C30   H13   S    
C39   H5    S    
Cu1   O5    S    
C10   H23   S    
C9    C18   A    
C5    O5    A    
C10   C19   A    
C29   C35   A    
C33   H16   S    
C17   C21   A    
Cu1   Cu2   S    
C27   C28   A    
C15   H18   S    
C18   C36   A    
C37   H12   S    
C19   C37   A    
C10   C13   A    
C4    C22   S    
C31   C32   A    
Cu2   N1    S    
C40   H4    S    
C12   C39   S    
C6    C8    S    
C1    C38   S    
Cu1   N2    S    
C32   H15   S    
C25   H8    S    
C4    N2    D    
Cu2   O7    S    
Cu1   O1    S    
C33   C35   A    
C16   C20   A    
C12   O2    A    
C34   C37   A    
C35   H17   S    
C26   H9    S    
C20   C34   A    
C28   H11   S    
Br1   N2    S    
C30   C31   A    
C24   H7    S    
C9    C11   A    
C2    C40   S    
C38   H6    S    
C15   C17   A    
Cu2   O2    S    
C16   C18   A    
C21   C23   A    
Cu2   O3    S    
C1    O3    A    
C22   C28   A    
C14   C16   A    
C2    C39   D    
C25   C26   A    
C20   C21   A    
C3    C29   S    
C2    H3    S    
