data_mof_unit_30127.cif
_audit_creation_date              2012-12-10T19:02:42-0500
_audit_creation_method            fapswitch 2.2
_symmetry_space_group_name_H-M    P1
_symmetry_Int_Tables_number       1
_space_group_crystal_system       triclinic
_cell_length_a                    9.625998
_cell_length_b                    10.826193
_cell_length_c                    13.867226
_cell_angle_alpha                 92.349837
_cell_angle_beta                  85.566518
_cell_angle_gamma                 88.24808
_cell_volume                      1438.78216323

loop_
_atom_site_label
_atom_site_type_symbol
_atom_type_description
_atom_site_fract_x
_atom_site_fract_y
_atom_site_fract_z
_atom_type_partial_charge
C1    C     C_R   0.497817 0.738077 0.501445 0.822287
C2    C     C_1   0.466159 0.505489 0.785281 -0.234456
C3    C     C_R   0.393022 0.947451 0.551728 -0.002759
C4    C     C_R   0.494385 0.872452 0.495697 -0.176293
C5    C     C_R   0.593690 0.929764 0.432322 0.254730
C6    C     C_R   0.595216 0.059252 0.431057 -0.281610
C7    C     C_R   0.505503 0.130776 0.496319 -0.141302
C8    C     C_R   0.408707 0.074489 0.556703 0.015229
C9    C     C_3   0.397110 0.085256 0.664604 0.037102
C10   C     C_3   0.353778 0.951082 0.659762 0.095539
C11   C     C_R   0.936091 0.429204 0.433122 0.199957
C12   C     C_R   0.478070 0.499992 0.682503 0.813922
C13   C     C_R   0.918039 0.571979 0.566960 0.091320
C14   C     C_R   0.067762 0.575306 0.562800 0.291144
C15   C     C_R   0.082799 0.427840 0.434197 0.150366
C16   C     C_3   0.093055 0.289865 0.423452 -0.145251
C17   C     C_3   0.935286 0.291518 0.420285 -0.514170
C18   C     C_R   0.502374 0.263163 0.497751 0.802359
C19   C     C_R   0.521924 0.497189 0.317442 0.824931
C20   C     C_1   0.533646 0.485478 0.214727 -0.208582
C21   C     C_2   0.549824 0.461970 0.024271 0.029660
C22   C     C_2   0.454211 0.524204 0.975663 0.257891
C23   C     C_1   0.458853 0.512932 0.871919 -0.034732
C24   C     C_1   0.542047 0.473992 0.128178 -0.031186
Cu1   Cu    Cu3+1 0.359330 0.500020 0.500000 0.941418
Cu2   Cu    Cu3+1 0.640670 0.499980 0.500000 0.933211
H1    H     H_    0.128708 0.247161 0.489324 0.183349
H2    H     H_    0.898300 0.261846 0.349213 0.186643
H3    H     H_    0.882295 0.247202 0.483351 0.202577
H4    H     H_    0.668907 0.103447 0.381606 0.147280
H5    H     H_    0.500707 0.098198 0.693722 0.101852
H6    H     H_    0.420260 0.888285 0.699695 0.058466
N1    N     N_R   0.852140 0.499070 0.499400 -0.202977
N2    N     N_R   0.148050 0.499110 0.499400 -0.219221
O1    O     O_R   0.381190 0.680360 0.500000 -0.548381
O2    O     O_R   0.618770 0.680320 0.499990 -0.577523
O3    O     O_R   0.364410 0.500000 0.637850 -0.561175
O4    O     O_R   0.602000 0.499960 0.637840 -0.591095
O5    O     O_R   0.381230 0.319680 0.500010 -0.600986
O6    O     O_R   0.618810 0.319640 0.500000 -0.582612
O7    O     O_R   0.398000 0.500040 0.362160 -0.582962
O8    O     O_R   0.635590 0.500000 0.362150 -0.559029
N3    N     N_2   0.349952 0.606871 0.024112 -0.425255
H7    H     H_    0.367152 0.639608 0.092855 0.255659
C25   C     C_3   0.207503 0.572280 0.014449 -0.701317
H8    H     H_    0.134928 0.644873 0.050262 0.223638
H9    H     H_    0.187890 0.483370 0.049566 0.221686
H10   H     H_    0.186000 0.563201 0.936942 0.237055
N4    N     N_2   0.135229 0.671463 0.611385 -0.370914
H11   H     H_    0.110796 0.757349 0.588136 0.255352
C26   C     C_3   0.155682 0.664590 0.713465 -0.592389
H12   H     H_    0.076706 0.723887 0.757509 0.199723
H13   H     H_    0.259343 0.700401 0.727132 0.228814
H14   H     H_    0.153278 0.567919 0.737049 0.215213
C27   C     C_3   0.175447 0.243089 0.328954 -0.325970
C28   C     C_3   0.181477 0.101353 0.320796 -0.364491
C29   C     C_3   0.273955 0.053671 0.231950 -0.850593
H15   H     H_    0.233255 0.088609 0.165014 0.251745
H16   H     H_    0.382447 0.084058 0.237154 0.250823
H17   H     H_    0.275274 0.950984 0.227590 0.244855
H18   H     H_    0.224164 0.063963 0.386315 0.227044
H19   H     H_    0.074709 0.066783 0.315516 0.217773
H20   H     H_    0.128045 0.280661 0.265079 0.189682
H21   H     H_    0.283405 0.276489 0.328892 0.223277
C30   C     C_3   0.660629 0.371801 0.975099 -0.421620
C31   C     C_3   0.806536 0.396346 0.008118 -0.322968
C32   C     C_3   0.918462 0.316862 0.948626 -0.881709
H22   H     H_    0.896406 0.217206 0.954371 0.258201
H23   H     H_    0.922604 0.340960 0.871364 0.249872
H24   H     H_    0.021707 0.333563 0.976278 0.237912
H25   H     H_    0.830994 0.495197 0.000788 0.217994
H26   H     H_    0.809967 0.374674 0.085595 0.222313
H27   H     H_    0.632192 0.276483 0.993863 0.194104
H28   H     H_    0.665419 0.374752 0.895043 0.203019
N5    N     N_2   0.692124 0.857861 0.370019 -0.406125
H29   H     H_    0.690939 0.880826 0.298620 0.238651
C33   C     C_3   0.832162 0.855741 0.401470 -0.660164
H30   H     H_    0.876866 0.948959 0.397065 0.196828
H31   H     H_    0.899245 0.789269 0.354159 0.222371
H32   H     H_    0.832210 0.825956 0.477169 0.233656
N6    N     N_2   0.291461 0.175410 0.704983 -0.401366
H33   H     H_    0.290073 0.256943 0.669262 0.276897
C34   C     C_3   0.288574 0.196653 0.808758 -0.714365
H34   H     H_    0.276722 0.108392 0.846095 0.233253
H35   H     H_    0.198978 0.259907 0.833770 0.231658
H36   H     H_    0.386255 0.239999 0.828434 0.218724
N7    N     N_2   0.204605 0.936582 0.684764 -0.391891
H37   H     H_    0.177154 0.941516 0.758173 0.255467
C35   C     C_3   0.099126 0.990463 0.627442 -0.645337
H38   H     H_    0.123908 0.969733 0.548874 0.212956
H39   H     H_    0.085972 0.091646 0.641211 0.247227
H40   H     H_    0.996954 0.950221 0.648061 0.188390
C36   C     C_3   0.837629 0.650353 0.648223 -0.329085
C37   C     C_3   0.828804 0.589369 0.747356 -0.331541
C38   C     C_3   0.759283 0.679023 0.825840 -0.869271
H41   H     H_    0.825068 0.760317 0.836059 0.244035
H42   H     H_    0.655306 0.711522 0.805693 0.253379
H43   H     H_    0.745154 0.632570 0.895375 0.250004
H44   H     H_    0.771285 0.502773 0.745867 0.239131
H45   H     H_    0.931196 0.559689 0.769373 0.202304
H46   H     H_    0.885564 0.741703 0.655537 0.151824
H47   H     H_    0.732347 0.676674 0.632307 0.238933

loop_
_geom_bond_atom_site_label_1
_geom_bond_atom_site_label_2
_ccdc_geom_bond_type
N7    H37   S    
C36   C37   S    
C17   H3    S    
C38   H41   S    
N3    H7    S    
C2    C12   S    
N6    H33   S    
C38   H43   S    
C7    C8    A    
C33   H30   S    
C1    O1    A    
C34   H34   S    
C5    C6    A    
C29   H16   S    
C14   N4    S    
C15   C16   S    
C30   H27   S    
C28   C29   S    
C12   O3    A    
C18   O5    A    
C18   O6    A    
Cu1   O3    S    
C11   C15   A    
C31   H26   S    
C19   C20   S    
C8    C9    S    
N4    C26   S    
C27   H20   S    
C35   H39   S    
C9    C10   S    
C15   N2    A    
C19   O8    A    
Cu1   N2    S    
C16   H1    S    
C25   H9    S    
C31   C32   S    
C13   C14   A    
N6    C34   S    
C33   H31   S    
C10   N7    S    
C26   H12   S    
C20   C24   T    
C11   N1    A    
C3    C8    A    
C36   H46   S    
Cu2   O4    S    
C29   H17   S    
C25   H10   S    
Cu1   Cu2   S    
C25   H8    S    
C6    H4    S    
C30   H28   S    
C32   H22   S    
C13   C36   S    
C26   H13   S    
C5    N5    S    
N5    H29   S    
C13   N1    A    
N5    C33   S    
Cu2   N1    S    
C31   H25   S    
C37   H45   S    
C7    C18   S    
C27   H21   S    
C27   C28   S    
C35   H40   S    
N3    C25   S    
Cu1   O1    S    
Cu2   O2    S    
C34   H35   S    
C30   C31   S    
N7    C35   S    
C28   H19   S    
Cu1   O7    S    
C3    C4    A    
Cu2   O8    S    
C33   H32   S    
C11   C17   S    
C21   C30   S    
C28   H18   S    
C17   H2    S    
C4    C5    A    
C36   H47   S    
C14   N2    A    
C38   H42   S    
C6    C7    A    
C26   H14   S    
C1    C4    S    
C16   C27   S    
C3    C10   S    
Cu1   O5    S    
Cu2   O6    S    
C29   H15   S    
C16   C17   S    
C37   H44   S    
C12   O4    A    
C37   C38   S    
C9    H5    S    
C10   H6    S    
C34   H36   S    
N4    H11   S    
C21   C24   S    
C2    C23   T    
C22   C23   S    
C32   H24   S    
C32   H23   S    
C35   H38   S    
C21   C22   D    
C22   N3    S    
C19   O7    A    
C1    O2    A    
C9    N6    S    
