data_mof_unit_6211.cif
_audit_creation_date              2012-12-10T17:33:46-0500
_audit_creation_method            fapswitch 2.2
_symmetry_space_group_name_H-M    P1
_symmetry_Int_Tables_number       1
_space_group_crystal_system       triclinic
_cell_length_a                    11.698549
_cell_length_b                    12.335006
_cell_length_c                    13.212712
_cell_angle_alpha                 116.9115
_cell_angle_beta                  77.337085
_cell_angle_gamma                 101.108147
_cell_volume                      1649.19442848

loop_
_atom_site_label
_atom_site_type_symbol
_atom_type_description
_atom_site_fract_x
_atom_site_fract_y
_atom_site_fract_z
_atom_type_partial_charge
C1    C     C_R   0.517644 0.854158 0.285763 0.852548
C2    C     C_R   0.452284 0.228798 0.834838 -0.067320
C3    C     C_R   0.627745 0.800128 0.084581 0.411521
C4    C     C_R   0.638644 0.723858 0.967758 -0.236964
C5    C     C_R   0.571396 0.611578 0.925321 0.290704
C6    C     C_R   0.499141 0.567703 0.003442 -0.015017
C7    C     C_R   0.468280 0.653730 0.118585 -0.012263
C8    C     C_R   0.454843 0.442859 0.971998 0.124108
C9    C     C_R   0.361025 0.410283 0.044632 0.147489
C10   C     C_R   0.316085 0.500695 0.149241 -0.207807
C11   C     C_R   0.369487 0.620458 0.186404 -0.126469
C12   C     C_R   0.715705 0.999803 0.499995 0.856010
C13   C     C_R   0.505855 0.348723 0.873208 -0.132546
C14   C     C_R   0.357089 0.197472 0.905289 -0.175671
C15   C     C_R   0.535840 0.770410 0.161439 -0.235151
C16   C     C_R   0.701867 0.355023 0.344992 -0.214230
C17   C     C_R   0.336512 0.756554 0.639641 0.110068
C18   C     C_R   0.292358 0.653871 0.659755 -0.219774
C19   C     C_R   0.349621 0.548307 0.600728 -0.064415
C20   C     C_R   0.454442 0.545468 0.523014 0.029450
C21   C     C_R   0.493705 0.651460 0.502249 0.229793
C22   C     C_R   0.522818 0.443182 0.467236 -0.057493
C23   C     C_R   0.481986 0.145372 0.713642 0.792427
C24   C     C_R   0.628698 0.449378 0.391893 0.057876
C25   C     C_R   0.660574 0.550504 0.366153 0.314923
C26   C     C_R   0.593424 0.648219 0.419884 -0.209641
C27   C     C_R   0.492996 0.335837 0.485750 0.157872
C28   C     C_R   0.670465 0.255971 0.371826 0.148692
C29   C     C_R   0.284275 0.000234 0.500099 0.799997
C30   C     C_1   0.837430 0.999362 0.499803 -0.108138
C31   C     C_1   0.940023 0.999449 0.499652 0.040663
C32   C     C_1   0.059991 0.999904 0.499645 0.022669
C33   C     C_1   0.162572 0.000258 0.499792 -0.159700
C34   C     C_R   0.313339 0.287560 0.011148 -0.173788
Cu1   Cu    Cu3+1 0.526510 0.098270 0.475420 1.035814
Cu2   Cu    Cu3+1 0.473490 0.901730 0.524580 0.955410
H1    H     H_    0.313979 0.104845 0.876757 0.154671
H2    H     H_    0.784648 0.358004 0.289937 0.200532
H3    H     H_    0.413399 0.322612 0.539688 0.133478
H4    H     H_    0.290392 0.837447 0.684225 0.125461
H5    H     H_    0.310549 0.471024 0.618494 0.150078
H6    H     H_    0.212989 0.655733 0.720518 0.156765
H7    H     H_    0.623461 0.720505 0.394490 0.231950
H8    H     H_    0.241685 0.478162 0.204222 0.152221
H9    H     H_    0.240112 0.262019 0.065185 0.146853
H10   H     H_    0.586286 0.367711 0.823179 0.199842
H11   H     H_    0.698286 0.753828 0.907862 0.223730
H12   H     H_    0.330271 0.686453 0.267845 0.168372
H13   H     H_    0.729641 0.186612 0.339914 0.191270
N1    N     N_R   0.566700 0.246290 0.438210 -0.195369
N2    N     N_R   0.434010 0.754320 0.561170 -0.198264
O1    O     O_R   0.533340 0.972510 0.318140 -0.511826
O2    O     O_R   0.488570 0.806530 0.359650 -0.619024
O3    O     O_R   0.685190 0.083000 0.479260 -0.558872
O4    O     O_R   0.640410 0.917020 0.520770 -0.590557
O5    O     O_R   0.511430 0.193470 0.640350 -0.532350
O6    O     O_R   0.466660 0.027490 0.681860 -0.586290
O7    O     O_R   0.359590 0.082980 0.479230 -0.589838
O8    O     O_R   0.314810 0.917000 0.520740 -0.592443
Cl1   Cl    Cl    0.785840 0.560624 0.266744 -0.612076
S1    S     S_3+6 0.730617 0.932154 0.126321 -0.004342
O9    O     O_2   0.672633 0.038697 0.142670 -0.309311
O10   O     O_2   0.770888 0.955916 0.235635 -0.322209
O11   O     O_3   0.848876 0.913536 0.023376 -0.534379
H14   H     H_    0.898703 0.992956 0.050756 0.373427
S2    S     S_3+6 0.557107 0.550216 0.778154 -0.028415
O12   O     O_2   0.442216 0.470802 0.756709 -0.306021
O13   O     O_2   0.559210 0.653399 0.746534 -0.288612
O14   O     O_3   0.669441 0.468172 0.695218 -0.538010
H15   H     H_    0.740977 0.527541 0.710026 0.347908

loop_
_geom_bond_atom_site_label_1
_geom_bond_atom_site_label_2
_ccdc_geom_bond_type
C16   C28   A    
S1    O11   S    
S2    O13   D    
C21   C26   A    
C24   C25   A    
C14   C34   A    
C6    C7    A    
C1    C15   S    
C25   Cl1   S    
C29   C33   S    
C18   C19   A    
C9    C10   A    
C9    C34   A    
C19   C20   A    
C27   N1    A    
C30   C31   T    
C5    S2    S    
Cu2   O8    S    
C32   C33   T    
C17   N2    A    
Cu1   N1    S    
C7    C15   A    
C17   C18   A    
Cu1   O5    S    
C23   O5    A    
C16   C24   A    
C34   H9    S    
C31   C32   S    
O11   H14   S    
Cu1   O3    S    
C7    C11   A    
Cu1   O1    S    
C4    H11   S    
C11   H12   S    
C5    C6    A    
Cu2   N2    S    
Cu1   Cu2   S    
Cu1   O7    S    
C20   C22   A    
C26   H7    S    
S2    O12   D    
C22   C24   A    
C22   C27   A    
C18   H6    S    
S1    O9    D    
C2    C14   A    
C1    O1    A    
O14   H15   S    
C12   O4    A    
C10   C11   A    
C3    S1    S    
C10   H8    S    
C3    C4    A    
S2    O14   S    
C8    C13   A    
C19   H5    S    
C21   N2    A    
C3    C15   A    
C29   O7    A    
C23   O6    A    
Cu2   O6    S    
C28   H13   S    
C16   H2    S    
C2    C23   S    
Cu2   O4    S    
C2    C13   A    
C1    O2    A    
C13   H10   S    
C4    C5    A    
C6    C8    A    
Cu2   O2    S    
C12   C30   S    
C25   C26   A    
C28   N1    A    
C20   C21   A    
S1    O10   D    
C12   O3    A    
C29   O8    A    
C27   H3    S    
C8    C9    A    
C14   H1    S    
C17   H4    S    
