data_mof_unit_38330.cif
_audit_creation_date              2012-12-11T14:07:28-0500
_audit_creation_method            fapswitch 2.2
_symmetry_space_group_name_H-M    P1
_symmetry_Int_Tables_number       1
_space_group_crystal_system       triclinic
_cell_length_a                    19.667788
_cell_length_b                    17.083149
_cell_length_c                    15.372484
_cell_angle_alpha                 89.780393
_cell_angle_beta                  53.560781
_cell_angle_gamma                 90.102326
_cell_volume                      4155.0669209

loop_
_atom_site_label
_atom_site_type_symbol
_atom_type_description
_atom_site_fract_x
_atom_site_fract_y
_atom_site_fract_z
_atom_type_partial_charge
C1    C     C_R   0.376497 0.198094 0.994115 -0.205591
C2    C     C_R   0.710393 0.853846 0.983368 0.143673
C3    C     C_R   0.151656 0.682998 0.072800 0.152483
C4    C     C_R   0.210389 0.353838 0.983374 0.143891
C5    C     C_R   0.619035 0.820574 0.691255 0.043586
C6    C     C_R   0.691755 0.139044 0.680056 0.079753
C7    C     C_R   0.118774 0.320441 0.691422 0.071489
C8    C     C_R   0.191756 0.639039 0.680041 0.081162
C9    C     C_3   0.173217 0.140189 0.513509 0.389596
C10   C     C_3   0.244726 0.767281 0.446396 0.391486
C11   C     C_3   0.673003 0.640575 0.513267 0.381819
C12   C     C_R   0.338792 0.826544 0.052994 -0.197063
C13   C     C_3   0.744786 0.266880 0.446052 0.390277
C14   C     C_3   0.120647 0.191755 0.615790 -0.608127
C15   C     C_3   0.191462 0.722665 0.553301 -0.602958
C16   C     C_3   0.621436 0.691738 0.616024 -0.580665
C17   C     C_3   0.691485 0.222411 0.553069 -0.602637
C18   C     C_3   0.307435 0.210198 0.463300 -0.484388
C19   C     C_3   0.346766 0.800709 0.492344 -0.493260
C20   C     C_3   0.807350 0.709558 0.463813 -0.390649
C21   C     C_3   0.846363 0.300972 0.492542 -0.493114
C22   C     C_3   0.726059 0.762709 0.397653 -0.482932
C23   C     C_R   0.876482 0.698090 0.994137 -0.205889
C24   C     C_3   0.872019 0.182513 0.380892 -0.490036
C25   C     C_3   0.225462 0.262392 0.397872 -0.487234
C26   C     C_3   0.371743 0.682413 0.380754 -0.492744
C27   C     C_3   0.254499 0.186129 0.422674 0.170591
C28   C     C_3   0.338870 0.767915 0.404281 0.181937
C29   C     C_3   0.754581 0.686174 0.422656 0.133886
C30   C     C_3   0.838846 0.267907 0.404278 0.182069
C31   C     C_3   0.665523 0.772153 0.594443 0.209280
C32   C     C_3   0.748735 0.184447 0.580085 0.217781
C33   C     C_3   0.165092 0.271866 0.594686 0.242532
C34   C     C_R   0.838792 0.326544 0.052995 -0.199421
C35   C     C_3   0.248751 0.684435 0.580069 0.214722
C36   C     C_3   0.755800 0.760735 0.563884 0.420543
C37   C     C_3   0.795182 0.250727 0.595392 0.412342
C38   C     C_3   0.254900 0.259730 0.565044 0.425218
C39   C     C_3   0.295489 0.750493 0.595234 0.413161
C40   C     C_R   0.396170 0.801479 0.211130 -0.129579
C41   C     C_R   0.350518 0.171594 0.218666 -0.147045
C42   C     C_R   0.896175 0.301475 0.211124 -0.130067
C43   C     C_R   0.850548 0.671630 0.218665 -0.145615
C44   C     C_3   0.671695 0.811908 0.499006 -0.367460
C45   C     C_R   0.669081 0.917634 0.051752 -0.149355
C46   C     C_3   0.815711 0.131996 0.484117 -0.322984
C47   C     C_3   0.171967 0.312007 0.498969 -0.376789
C48   C     C_3   0.315494 0.631924 0.484002 -0.320243
C49   C     C_2   0.192740 0.738899 0.098504 -0.217197
C50   C     C_2   0.284678 0.316553 0.962953 -0.161006
C51   C     C_2   0.692732 0.238902 0.098515 -0.222170
C52   C     C_2   0.784677 0.816557 0.962957 -0.161756
C53   C     C_2   0.711173 0.311110 0.055042 -0.128218
C54   C     C_2   0.815650 0.752217 0.901932 -0.156148
C55   C     C_2   0.211176 0.811108 0.055037 -0.125261
C56   C     C_R   0.634215 0.104670 0.104699 -0.149902
C57   C     C_2   0.315654 0.252216 0.901922 -0.158626
C58   C     C_R   0.329352 0.910660 0.951947 0.467101
C59   C     C_R   0.370836 0.114375 0.890955 0.557007
C60   C     C_R   0.829351 0.410660 0.951948 0.465503
C61   C     C_R   0.870830 0.614375 0.890962 0.556353
C62   C     C_R   0.359969 0.079579 0.314982 -0.057456
C63   C     C_R   0.406768 0.893589 0.304136 -0.016561
C64   C     C_R   0.859958 0.579575 0.314981 -0.059292
C65   C     C_R   0.906748 0.393593 0.304145 -0.016036
C66   C     C_R   0.351569 0.190565 0.928361 -0.029983
C67   C     C_R   0.169079 0.417629 0.051756 -0.149952
C68   C     C_R   0.285753 0.851990 0.028670 0.070148
C69   C     C_R   0.851555 0.690562 0.928379 -0.029725
C70   C     C_R   0.785752 0.351990 0.028672 0.072980
C71   C     C_R   0.385939 0.816725 0.306366 0.049189
C72   C     C_R   0.311086 0.141037 0.322375 0.074182
C73   C     C_R   0.885907 0.316731 0.306377 0.049482
C74   C     C_R   0.811094 0.641050 0.322366 0.076501
C75   C     C_R   0.623676 0.199558 0.011451 -0.115012
C76   C     C_R   0.660199 0.822206 0.956061 -0.119508
C77   C     C_R   0.123684 0.699556 0.011440 -0.114532
C78   C     C_R   0.134218 0.604669 0.104694 -0.148487
C79   C     C_R   0.160195 0.322201 0.956065 -0.108099
C80   C     C_R   0.606246 0.803031 0.787788 -0.187599
C81   C     C_R   0.650228 0.171086 0.782492 -0.111107
C82   C     C_R   0.106060 0.302974 0.787917 -0.148315
C83   C     C_R   0.150224 0.671095 0.782474 -0.111929
C84   C     C_R   0.642756 0.077774 0.685917 -0.127776
C85   C     C_R   0.595771 0.896548 0.694401 -0.110007
C86   C     C_R   0.142733 0.577789 0.685907 -0.114904
C87   C     C_R   0.095692 0.396485 0.694450 -0.092377
C88   C     C_R   0.651648 0.183000 0.072811 0.153564
Cl1   Cl    Cl    0.193181 0.048245 0.550885 -0.631025
Cl2   Cl    Cl    0.201255 0.863085 0.462168 -0.587535
Cl3   Cl    Cl    0.692047 0.547597 0.549377 -0.630214
Cl4   Cl    Cl    0.701035 0.362460 0.461348 -0.590349
H1    H     H_    0.385720 0.252349 0.021727 0.122274
H2    H     H_    0.653842 0.177363 0.546404 0.173239
H3    H     H_    0.056351 0.200602 0.637019 0.185745
H4    H     H_    0.153728 0.677740 0.546611 0.173679
H5    H     H_    0.111954 0.162402 0.686496 0.215358
H6    H     H_    0.145330 0.762257 0.620433 0.227514
H7    H     H_    0.614468 0.662240 0.685556 0.213337
H8    H     H_    0.645274 0.262054 0.620061 0.227132
H9    H     H_    0.329972 0.157946 0.482574 0.158575
H10   H     H_    0.321762 0.861389 0.514513 0.191457
H11   H     H_    0.828010 0.656855 0.484936 0.145716
H12   H     H_    0.329244 0.778418 0.104509 0.125603
H13   H     H_    0.821068 0.361564 0.514647 0.191683
H14   H     H_    0.751758 0.729724 0.631034 0.032586
H15   H     H_    0.748209 0.290370 0.661854 0.048268
H16   H     H_    0.249347 0.227654 0.632520 0.039738
H17   H     H_    0.248684 0.790208 0.661723 0.048492
H18   H     H_    0.781889 0.799015 0.336638 0.191294
H19   H     H_    0.938508 0.181595 0.353941 0.201986
H20   H     H_    0.280981 0.298665 0.336086 0.189734
H21   H     H_    0.438318 0.681237 0.353469 0.201965
H22   H     H_    0.690020 0.748617 0.364834 0.165511
H23   H     H_    0.885695 0.752343 0.021762 0.122416
H24   H     H_    0.871452 0.156644 0.315075 0.157198
H25   H     H_    0.188686 0.247907 0.366201 0.165492
H26   H     H_    0.370829 0.656689 0.315136 0.157176
H27   H     H_    0.607556 0.818738 0.518943 0.153466
H28   H     H_    0.784384 0.085831 0.468447 0.143395
H29   H     H_    0.107986 0.319923 0.518767 0.151434
H30   H     H_    0.283985 0.585869 0.468466 0.143412
H31   H     H_    0.700804 0.871211 0.481883 0.192995
H32   H     H_    0.855429 0.101922 0.503388 0.216454
H33   H     H_    0.202025 0.370873 0.481682 0.196660
H34   H     H_    0.829243 0.278419 0.104512 0.126084
H35   H     H_    0.355276 0.601710 0.503064 0.216974
H36   H     H_    0.364891 0.243138 0.398440 0.195286
H37   H     H_    0.414450 0.803001 0.460690 0.177225
H38   H     H_    0.866026 0.740859 0.398502 0.199731
H39   H     H_    0.913988 0.303583 0.461106 0.177141
H40   H     H_    0.392504 0.744941 0.182853 0.079932
H41   H     H_    0.331689 0.221207 0.194316 0.101277
H42   H     H_    0.892515 0.244930 0.182854 0.079667
H43   H     H_    0.831809 0.721349 0.194359 0.101348
H44   H     H_    0.220424 0.715525 0.136470 0.133176
H45   H     H_    0.134685 0.126882 0.484079 0.105238
H46   H     H_    0.301817 0.333218 0.015589 0.122901
H47   H     H_    0.720416 0.215528 0.136482 0.133694
H48   H     H_    0.801812 0.833221 0.015598 0.123108
H49   H     H_    0.681618 0.335333 0.020011 0.157725
H50   H     H_    0.799882 0.738339 0.847242 0.114345
H51   H     H_    0.181619 0.835332 0.020008 0.157555
H52   H     H_    0.299879 0.238334 0.847240 0.114325
H53   H     H_    0.352935 0.045714 0.379129 0.156985
H54   H     H_    0.414676 0.923833 0.359176 0.075683
H55   H     H_    0.852875 0.545711 0.379171 0.156406
H56   H     H_    0.239870 0.736588 0.386444 0.067947
H57   H     H_    0.914647 0.423837 0.359195 0.075377
H58   H     H_    0.616762 0.255873 0.985539 0.089809
H59   H     H_    0.670859 0.770782 0.909024 0.094249
H60   H     H_    0.116776 0.755870 0.985520 0.090027
H61   H     H_    0.170853 0.270781 0.909019 0.093929
H62   H     H_    0.611347 0.746448 0.815148 0.103423
H63   H     H_    0.668262 0.220872 0.807500 0.107198
H64   H     H_    0.110969 0.246369 0.815418 0.090836
H65   H     H_    0.168251 0.720902 0.807462 0.107312
H66   H     H_    0.653457 0.043972 0.619732 0.098276
H67   H     H_    0.634024 0.628594 0.484134 0.107515
H68   H     H_    0.587800 0.926467 0.638964 0.086371
H69   H     H_    0.153398 0.543990 0.619741 0.098240
H70   H     H_    0.087798 0.426417 0.638949 0.078043
H71   H     H_    0.690059 0.951562 0.090957 0.099519
H72   H     H_    0.638734 0.077392 0.164678 0.090382
H73   H     H_    0.190059 0.451557 0.090960 0.099639
H74   H     H_    0.138739 0.577392 0.164673 0.090702
H75   H     H_    0.784657 0.851935 0.612145 0.320724
H76   H     H_    0.862138 0.261664 0.649696 0.315062
H77   H     H_    0.342460 0.322639 0.553380 0.321371
H78   H     H_    0.740215 0.235884 0.386043 0.066912
H79   H     H_    0.362649 0.761069 0.649288 0.315150
H80   H     H_    0.364125 0.949151 0.815183 0.349643
H81   H     H_    0.359574 0.125901 0.774697 0.309489
H82   H     H_    0.864124 0.449153 0.815185 0.349281
H83   H     H_    0.859549 0.625898 0.774721 0.310936
H84   H     H_    0.556482 0.700144 0.639248 0.185454
N1    N     N_R   0.408680 0.130160 0.995800 -0.069772
N2    N     N_R   0.403730 0.078230 0.935950 -0.080735
N3    N     N_R   0.903730 0.421770 0.935950 -0.107815
N4    N     N_R   0.903730 0.578230 0.935950 -0.080855
N5    N     N_R   0.426630 0.075970 0.212960 -0.060018
N6    N     N_R   0.426630 0.924030 0.212960 -0.042336
N7    N     N_R   0.926630 0.575970 0.212960 -0.060040
N8    N     N_R   0.926630 0.424030 0.212960 -0.042113
N9    N     N_R   0.591320 0.134600 0.004200 -0.044195
N10   N     N_R   0.591320 0.865400 0.004200 -0.047143
N11   N     N_R   0.091320 0.634600 0.004200 -0.043820
N12   N     N_R   0.408680 0.869840 0.995800 -0.068699
N13   N     N_R   0.091320 0.365400 0.004200 -0.048776
N14   N     N_R   0.578320 0.867660 0.846880 -0.033006
N15   N     N_R   0.578320 0.132340 0.846880 -0.049093
N16   N     N_R   0.078320 0.367660 0.846880 -0.034728
N17   N     N_R   0.078320 0.632340 0.846880 -0.049476
N18   N     N_R   0.573370 0.074390 0.787040 -0.039476
N19   N     N_R   0.573370 0.925610 0.787040 -0.039692
N20   N     N_R   0.073370 0.574390 0.787040 -0.041133
N21   N     N_R   0.073370 0.425610 0.787040 -0.040175
N22   N     N_R   0.596270 0.927870 0.064040 -0.047453
N23   N     N_R   0.908680 0.630160 0.995800 -0.069767
N24   N     N_R   0.596270 0.072130 0.064040 -0.040143
N25   N     N_R   0.096270 0.427870 0.064040 -0.047658
N26   N     N_R   0.096270 0.572130 0.064040 -0.039820
N27   N     N_R   0.908680 0.369840 0.995800 -0.071171
N28   N     N_R   0.421680 0.867580 0.153120 -0.030788
N29   N     N_R   0.421680 0.132420 0.153120 -0.040998
N30   N     N_R   0.921680 0.367580 0.153120 -0.030924
N31   N     N_R   0.921680 0.632420 0.153120 -0.041332
N32   N     N_R   0.403730 0.921770 0.935950 -0.105564
Ni1   Ni    Ni4+2 0.500000 0.131190 0.000000 0.211029
Ni2   Ni    Ni4+2 0.500000 0.868810 0.000000 0.213936
Ni3   Ni    Ni4+2 1.000000 0.631190 0.000000 0.212399
Ni4   Ni    Ni4+2 1.000000 0.368810 0.000000 0.213715
Ni5   Ni    Ni4+2 0.488650 1.000000 0.862740 0.246218
Ni6   Ni    Ni4+2 0.988650 0.500000 0.862740 0.246756
Ni7   Ni    Ni4+2 0.511350 1.000000 0.137260 0.210369
Ni8   Ni    Ni4+2 0.011350 0.500000 0.137260 0.211742
O1    O     O_3   0.797314 0.833273 0.542872 -0.748498
O2    O     O_3   0.848010 0.218629 0.619613 -0.753143
O3    O     O_3   0.294960 0.332385 0.548697 -0.751684
O4    O     O_3   0.348288 0.718131 0.619338 -0.752423
O5    O     O_3   0.309502 0.937732 0.885565 -0.747258
O6    O     O_3   0.380931 0.086506 0.800131 -0.779197
O7    O     O_3   0.809501 0.437732 0.885567 -0.747510
O8    O     O_3   0.880924 0.586509 0.800138 -0.778721

loop_
_geom_bond_atom_site_label_1
_geom_bond_atom_site_label_2
_ccdc_geom_bond_type
C19   H37   S    
C6    C32   S    
C38   H16   S    
N32   Ni5   S    
C40   C71   A    
C8    C83   A    
N7    N31   A    
C23   C69   A    
N5    N29   A    
C57   C66   S    
C14   C33   S    
C41   H41   S    
C55   C68   S    
C3    C49   S    
C11   H67   S    
C20   H11   S    
C16   C31   S    
C12   C68   A    
N11   N26   A    
C65   H57   S    
N6    N28   A    
C22   C29   S    
C48   H35   S    
C37   H15   S    
C10   C15   S    
C59   C66   A    
C48   H30   S    
C19   H10   S    
N17   Ni3   S    
N22   Ni7   S    
C75   H58   S    
C61   C69   A    
C12   N12   A    
C23   N23   A    
N24   Ni7   S    
C65   C73   A    
N1    Ni1   S    
C86   N20   A    
N16   Ni4   S    
C81   N15   A    
C12   H12   S    
H80   O5    S    
C25   H20   S    
C18   H36   S    
C64   N7    A    
C9    H45   S    
C7    C87   A    
C47   H29   S    
C40   N28   A    
C84   N18   A    
C22   H18   S    
C62   H53   S    
C56   C88   A    
H83   O8    S    
C85   H68   S    
C60   C70   A    
C25   C47   S    
C63   H54   S    
N23   Ni3   S    
H79   O4    S    
N2    Ni5   S    
C26   C48   S    
C82   H64   S    
C67   H73   S    
C43   C74   A    
C40   H40   S    
C63   N6    A    
N31   Ni3   S    
C7    C33   S    
C46   H32   S    
C75   N9    A    
C24   H19   S    
N12   Ni2   S    
C37   O2    S    
N18   Ni5   S    
C53   C70   S    
C77   H60   S    
C15   C35   S    
C58   O5    S    
C52   C54   D    
C47   H33   S    
C20   C29   S    
C2    C45   A    
C22   C44   S    
C78   H74   S    
C55   H51   S    
C31   C44   S    
H82   O7    S    
N8    N30   A    
C36   H14   S    
C58   N32   A    
C26   H26   S    
C39   O4    S    
C6    C84   A    
C4    C79   A    
C9    Cl1   S    
C15   H4    S    
C30   C73   S    
C84   H66   S    
C85   N19   A    
C76   N10   A    
C29   C74   S    
C44   H27   S    
N13   N25   A    
C45   N22   A    
N16   N21   A    
C43   N31   A    
C4    C50   S    
C60   N3    A    
C8    C35   S    
C83   N17   A    
C35   C39   S    
C9    C14   S    
N25   Ni8   S    
C67   N25   A    
C59   O6    S    
C11   Cl3   S    
C79   H61   S    
N20   Ni6   S    
C11   C16   S    
C13   C30   S    
C26   H21   S    
C83   H65   S    
C18   C38   S    
N29   Ni1   S    
C34   N27   A    
C34   H34   S    
N17   N20   A    
C87   H70   S    
C1    C66   A    
C46   H28   S    
N5    Ni7   S    
C86   H69   S    
C32   C37   S    
C5    C80   A    
C43   H43   S    
C19   C28   S    
C22   H22   S    
C10   Cl2   S    
C35   C48   S    
C19   C39   S    
N14   N19   A    
N15   Ni1   S    
C41   C72   A    
C58   C68   A    
C13   H78   S    
C54   H50   S    
C49   H44   S    
C63   C71   A    
N3    N27   A    
N10   Ni2   S    
C13   Cl4   S    
N26   Ni8   S    
N6    Ni7   S    
C77   N11   A    
N9    Ni1   S    
N27   Ni4   S    
C28   C71   S    
C87   N21   A    
C15   H6    S    
C3    C77   A    
C60   O7    S    
C14   H3    S    
C2    C76   A    
C9    C27   S    
C14   H5    S    
H81   O6    S    
C80   N14   A    
N11   Ni3   S    
C10   C28   S    
N7    Ni8   S    
C34   C70   A    
N12   N32   A    
C42   C73   A    
C57   H52   S    
C82   N16   A    
N14   Ni2   S    
C50   C57   D    
C32   C46   S    
C38   O3    S    
C59   N2    A    
C18   C27   S    
C78   N26   A    
C20   H38   S    
N13   Ni4   S    
C25   H25   S    
C51   C88   S    
C4    C67   A    
C50   H46   S    
C16   H7    S    
C24   H24   S    
H77   O3    S    
C25   C27   S    
C21   C30   S    
C56   H72   S    
C44   H31   S    
C26   C28   S    
C33   C38   S    
C81   H63   S    
C2    C52   S    
C13   C17   S    
C62   C72   A    
C24   C46   S    
N4    Ni6   S    
C45   H71   S    
N15   N18   A    
C5    C85   A    
C64   H55   S    
N4    N23   A    
C49   C55   D    
H76   O2    S    
C62   N5    A    
C8    C86   A    
C16   H84   S    
C76   H59   S    
C54   C69   S    
C5    C31   S    
C21   H39   S    
C80   H62   S    
N3    Ni6   S    
C52   H48   S    
H75   O1    S    
C42   H42   S    
C42   N30   A    
C53   H49   S    
N9    N24   A    
C41   N29   A    
C17   H8    S    
C24   C30   S    
C61   O8    S    
N8    Ni8   S    
N21   Ni6   S    
C36   O1    S    
C23   H23   S    
C20   C36   S    
N30   Ni4   S    
C75   C88   A    
C39   H17   S    
C7    C82   A    
C21   C37   S    
C11   C29   S    
C61   N4    A    
C1    H1    S    
N1    N2    A    
C79   N13   A    
N28   Ni2   S    
C6    C81   A    
C17   C32   S    
C64   C74   A    
C31   C36   S    
N10   N22   A    
C17   H2    S    
C51   C53   D    
C33   C47   S    
C3    C78   A    
C1    N1    A    
C18   H9    S    
C21   H13   S    
C27   C72   S    
N19   Ni5   S    
C10   H56   S    
C56   N24   A    
C65   N8    A    
C51   H47   S    
