data_mof_unit_20804.cif
_audit_creation_date              2012-12-10T18:52:13-0500
_audit_creation_method            fapswitch 2.2
_symmetry_space_group_name_H-M    P1
_symmetry_Int_Tables_number       1
_space_group_crystal_system       triclinic
_cell_length_a                    15.749397
_cell_length_b                    10.634729
_cell_length_c                    9.910463
_cell_angle_alpha                 90.667154
_cell_angle_beta                  90.967356
_cell_angle_gamma                 91.140271
_cell_volume                      1659.22469393

loop_
_atom_site_label
_atom_site_type_symbol
_atom_type_description
_atom_site_fract_x
_atom_site_fract_y
_atom_site_fract_z
_atom_type_partial_charge
C1    C     C_R   0.501240 0.260580 0.499389 0.943345
C2    C     C_R   0.498761 0.739420 0.500611 0.943350
C3    C     C_R   0.565513 0.933764 0.439072 0.719333
C4    C     C_R   0.434492 0.066236 0.560931 0.719321
C5    C     C_R   0.497799 0.871969 0.501257 -0.369587
C6    C     C_R   0.502205 0.128031 0.498743 -0.369582
C7    C     C_R   0.559274 0.568355 0.075801 0.739829
C8    C     C_R   0.440726 0.431645 0.924199 0.739832
C9    C     C_R   0.560063 0.568708 0.931961 -0.286666
C10   C     C_R   0.439936 0.431292 0.068039 -0.286669
C11   C     C_R   0.338125 0.499519 0.498936 0.880645
C12   C     C_R   0.661875 0.500480 0.501064 0.880638
C13   C     C_3   0.975947 0.505889 0.629237 -0.392519
C14   C     C_3   0.024053 0.494108 0.370762 -0.392520
C15   C     C_3   0.028532 0.400272 0.566259 0.582831
C16   C     C_3   0.971468 0.599725 0.433741 0.582824
C17   C     C_1   0.249433 0.499429 0.496603 -0.062058
C18   C     C_1   0.750567 0.500569 0.503397 -0.062055
C19   C     C_3   0.031445 0.605180 0.558248 0.561678
C20   C     C_3   0.968555 0.394817 0.441752 0.561685
C21   C     C_3   0.083636 0.499575 0.495538 -0.263482
C22   C     C_3   0.916364 0.500422 0.504462 -0.263484
C23   C     C_1   0.174306 0.499432 0.495459 0.254935
C24   C     C_1   0.825695 0.500566 0.504540 0.254940
C25   C     C_R   0.568898 0.063923 0.437476 -0.274545
C26   C     C_R   0.431107 0.936077 0.562526 -0.274556
N1    N     N_R   0.499980 0.499970 0.857200 -0.221190
N2    N     N_R   0.500020 0.500030 0.142800 -0.221190
O1    O     O_R   0.499990 0.316750 0.614620 -0.533169
O2    O     O_R   0.500010 0.683250 0.385380 -0.533174
O3    O     O_R   0.500000 0.316780 0.385290 -0.680536
O4    O     O_R   0.500000 0.683220 0.614710 -0.680529
O5    O     O_R   0.376780 0.499970 0.614640 -0.544569
O6    O     O_R   0.623220 0.500030 0.385360 -0.544574
O7    O     O_R   0.376780 0.500000 0.385310 -0.653278
O8    O     O_R   0.623220 0.500000 0.614690 -0.653277
Zn1   Zn    Zn3+2 0.500000 0.499980 0.653120 1.034422
Zn2   Zn    Zn3+2 0.500000 0.500020 0.346880 1.034415
F1    F     F_    0.059097 0.296851 0.633455 -0.538337
F2    F     F_    0.940904 0.703146 0.366545 -0.538338
C27   C     C_2   0.951835 0.512528 0.774600 0.684347
H1    H     H_    0.001093 0.515623 0.852448 0.086395
O9    O     O_2   0.877343 0.514485 0.806231 -0.512270
C28   C     C_2   0.048163 0.487470 0.225400 0.684346
H2    H     H_    0.998906 0.484386 0.147552 0.086394
O10   O     O_2   0.122655 0.485502 0.193768 -0.512266
F3    F     F_    0.934948 0.285887 0.382851 -0.554779
F4    F     F_    0.065053 0.714110 0.617149 -0.554785
C29   C     C_2   0.642703 0.132044 0.377551 0.602852
H3    H     H_    0.652142 0.232264 0.394184 0.018141
O11   O     O_2   0.694232 0.077269 0.308770 -0.403849
C30   C     C_2   0.357302 0.867957 0.622451 0.602931
H4    H     H_    0.347841 0.767748 0.605761 0.018101
O12   O     O_2   0.305801 0.922720 0.691298 -0.403881
F5    F     F_    0.629150 0.865879 0.384689 -0.552720
F6    F     F_    0.370853 0.134119 0.615313 -0.552726
F7    F     F_    0.616537 0.639012 0.148891 -0.539306
F8    F     F_    0.383462 0.360988 0.851109 -0.539303
C31   C     C_2   0.626223 0.644991 0.864556 0.608079
H5    H     H_    0.616321 0.680034 0.764412 0.101676
O13   O     O_2   0.693917 0.670609 0.921255 -0.435635
C32   C     C_2   0.373776 0.355008 0.135444 0.608079
H6    H     H_    0.383679 0.319966 0.235588 0.101675
O14   O     O_2   0.306083 0.329390 0.078745 -0.435630

loop_
_geom_bond_atom_site_label_1
_geom_bond_atom_site_label_2
_ccdc_geom_bond_type
C1    O3    A    
C28   H2    S    
C4    C26   A    
C32   H6    S    
C26   C30   S    
C12   O8    A    
C27   H1    S    
O3    Zn2   S    
C11   O5    A    
C2    O2    A    
C16   C22   S    
C9    N1    A    
O7    Zn2   S    
C29   O11   D    
C11   O7    A    
C3    C5    A    
C31   H5    S    
C10   C32   S    
O4    Zn1   S    
C4    F6    S    
C10   N2    A    
C6    C25   A    
C27   O9    D    
C15   F1    S    
C1    O1    A    
C17   C23   T    
C16   F2    S    
C16   C19   S    
C18   C24   T    
C2    O4    A    
C13   C27   S    
O8    Zn1   S    
C19   C21   S    
C20   C22   S    
C13   C22   S    
C29   H3    S    
C14   C16   S    
C13   C15   S    
C21   C23   S    
C15   C20   S    
C22   C24   S    
C31   O13   D    
C2    C5    S    
O1    Zn1   S    
C13   C19   S    
C12   O6    A    
C5    C26   A    
C20   F3    S    
C14   C20   S    
C15   C21   S    
C3    C25   A    
C30   H4    S    
C14   C21   S    
C14   C28   S    
C4    C6    A    
C12   C18   S    
C1    C6    S    
C7    C9    A    
C8    N1    A    
C19   F4    S    
C11   C17   S    
C32   O14   D    
C28   O10   D    
O2    Zn2   S    
C8    F8    S    
N2    Zn2   S    
O6    Zn2   S    
C3    F5    S    
C7    F7    S    
C8    C10   A    
O5    Zn1   S    
C7    N2    A    
N1    Zn1   S    
C30   O12   D    
C9    C31   S    
C25   C29   S    
