data_mof_unit_52692.cif
_audit_creation_date              2013-03-05T15:48:34-0500
_audit_creation_method            fapswitch 2.2
_symmetry_space_group_name_H-M    P1
_symmetry_Int_Tables_number       1
_space_group_crystal_system       triclinic
_cell_length_a                    16.609029
_cell_length_b                    16.611695
_cell_length_c                    43.037445
_cell_angle_alpha                 89.955288
_cell_angle_beta                  89.981349
_cell_angle_gamma                 119.940309
_cell_volume                      10289.5393487

loop_
_atom_site_label
_atom_site_type_symbol
_atom_site_description
_atom_site_fract_x
_atom_site_fract_y
_atom_site_fract_z
_atom_type_partial_charge
O1    O     O_R   0.509640 0.171340 0.784000 -0.509673
O2    O     O_R   0.661700 0.490360 0.716000 -0.428450
O3    O     O_R   0.828660 0.338300 0.784000 -0.494212
O4    O     O_R   0.509640 0.171340 0.716000 -0.510979
O5    O     O_R   0.661700 0.490360 0.784000 -0.430347
O6    O     O_R   0.828660 0.338300 0.716000 -0.494733
O7    O     O_R   0.171340 0.509640 0.284000 -0.488033
O8    O     O_R   0.490360 0.661700 0.216000 -0.497539
O9    O     O_R   0.338300 0.828660 0.284000 -0.429149
O10   O     O_R   0.171340 0.509640 0.216000 -0.487203
O11   O     O_R   0.490360 0.661700 0.284000 -0.507916
O12   O     O_R   0.338300 0.828660 0.216000 -0.489111
O13   O     O_R   0.539230 0.345420 0.781810 -0.511756
O14   O     O_R   0.806190 0.460770 0.718190 -0.449507
O15   O     O_R   0.654580 0.193810 0.781810 -0.448469
O16   O     O_R   0.539230 0.345420 0.718190 -0.512347
O17   O     O_R   0.806190 0.460770 0.781810 -0.451116
O18   O     O_R   0.654580 0.193810 0.718190 -0.446826
O19   O     O_R   0.345420 0.539230 0.281810 -0.449819
O20   O     O_R   0.460770 0.806190 0.218190 -0.463317
O21   O     O_R   0.193810 0.654580 0.281810 -0.436249
O22   O     O_R   0.345420 0.539230 0.218190 -0.450508
O23   O     O_R   0.460770 0.806190 0.281810 -0.505092
O24   O     O_R   0.193810 0.654580 0.218190 -0.460809
C1    C     C_R   0.582716 0.426860 0.794202 0.565296
C2    C     C_R   0.843464 0.416907 0.705546 0.561783
C3    C     C_R   0.573464 0.156264 0.794410 0.568419
C4    C     C_R   0.582902 0.426772 0.705724 0.566558
C5    C     C_R   0.843197 0.416698 0.794453 0.563598
C6    C     C_R   0.573480 0.156408 0.705573 0.569377
C7    C     C_R   0.426343 0.583453 0.294574 0.568019
C8    C     C_R   0.416331 0.842455 0.205379 0.569069
C9    C     C_R   0.157332 0.573685 0.294526 0.577377
C10   C     C_R   0.426249 0.583890 0.205310 0.568345
C11   C     C_R   0.415368 0.840960 0.295085 0.559245
C12   C     C_R   0.157216 0.573747 0.205463 0.566744
Cr1   Cr    Cr6+3 0.530290 0.262330 0.750000 1.057342
Cr2   Cr    Cr6+3 0.732040 0.469710 0.750000 1.224807
Cr3   Cr    Cr6+3 0.737670 0.267960 0.750000 1.168136
Cr4   Cr    Cr6+3 0.262330 0.530290 0.250000 1.173265
Cr5   Cr    Cr6+3 0.469710 0.732040 0.250000 1.105306
Cr6   Cr    Cr6+3 0.267960 0.737670 0.250000 1.193973
O25   O     O_3   0.666667 0.333333 0.750000 -0.302984
O26   O     O_3   0.333333 0.666667 0.250000 -0.311104
H1    H     H_    0.759283 0.397930 0.985919 0.159089
H2    H     H_    0.596709 0.235546 0.515593 0.162987
H3    H     H_    0.691394 0.515129 0.979094 0.173366
H4    H     H_    0.766846 0.375452 0.514690 0.159130
H5    H     H_    0.609873 0.228376 0.984541 0.165363
H6    H     H_    0.669103 0.460411 0.518468 0.169436
H7    H     H_    0.587894 0.210414 0.460298 0.171635
H8    H     H_    0.788679 0.412178 0.041039 0.171300
H9    H     H_    0.652103 0.465649 0.463047 0.169175
H10   H     H_    0.598275 0.200744 0.039740 0.171951
H11   H     H_    0.795055 0.391762 0.459529 0.170071
H12   H     H_    0.675282 0.519490 0.034579 0.171228
C13   C     C_R   0.890939 0.449580 0.824673 -0.003249
C14   C     C_R   0.558109 0.106534 0.675635 -0.000340
C15   C     C_R   0.545776 0.443567 0.823263 -0.000494
C16   C     C_R   0.892883 0.450784 0.675513 -0.004370
C17   C     C_R   0.558059 0.105198 0.824145 -0.001325
C18   C     C_R   0.546971 0.442471 0.676263 -0.000514
C19   C     C_R   0.449205 0.887433 0.325662 -0.008135
C20   C     C_R   0.111465 0.559824 0.174924 -0.004898
C21   C     C_R   0.441150 0.551901 0.325145 -0.002714
C22   C     C_R   0.447776 0.886597 0.174582 0.000226
C23   C     C_R   0.112963 0.560100 0.325242 0.008008
C24   C     C_R   0.440537 0.554519 0.174289 -0.004398
C25   C     C_R   0.104584 0.607669 0.027315 0.022777
C26   C     C_R   0.535859 0.910880 0.471340 0.026348
C27   C     C_R   0.382412 0.485590 0.026549 0.020692
C28   C     C_R   0.101687 0.622076 0.472224 0.021324
C29   C     C_R   0.525814 0.895817 0.027422 0.023134
C30   C     C_R   0.391252 0.495939 0.472839 0.023548
C31   C     C_R   0.548149 0.942154 0.536819 0.024372
C32   C     C_R   0.068647 0.593730 0.962167 0.025094
C33   C     C_R   0.415703 0.497085 0.538494 0.021828
C34   C     C_R   0.534357 0.926352 0.961891 0.026721
C35   C     C_R   0.067069 0.603084 0.537548 0.025348
C36   C     C_R   0.403374 0.485225 0.960736 0.020975
C37   C     C_R   0.117944 0.612490 0.060061 0.423752
C38   C     C_R   0.526850 0.898716 0.438460 0.426885
C39   C     C_R   0.378863 0.494322 0.059325 0.423070
C40   C     C_R   0.114747 0.626640 0.439390 0.429688
C41   C     C_R   0.507798 0.879481 0.059808 0.418333
C42   C     C_R   0.387131 0.503351 0.440027 0.421832
C43   C     C_R   0.541118 0.955721 0.569130 0.415914
C44   C     C_R   0.049216 0.575413 0.929943 0.418557
C45   C     C_R   0.427016 0.490100 0.571003 0.423048
C46   C     C_R   0.536745 0.945513 0.929427 0.424547
C47   C     C_R   0.050240 0.582434 0.569798 0.417056
C48   C     C_R   0.414662 0.478253 0.928216 0.423936
O27   O     O_2   0.194169 0.664284 0.071296 -0.511112
O28   O     O_2   0.514698 0.826853 0.426562 -0.526726
O29   O     O_2   0.313546 0.496817 0.071357 -0.523879
O30   O     O_2   0.187722 0.685330 0.427760 -0.499302
O31   O     O_2   0.478178 0.801613 0.070539 -0.516502
O32   O     O_2   0.328878 0.518098 0.428218 -0.530235
O33   O     O_2   0.518555 0.891705 0.587421 -0.507088
O34   O     O_2   0.112133 0.607695 0.910896 -0.512871
O35   O     O_2   0.371814 0.490984 0.589537 -0.502085
O36   O     O_2   0.523592 0.886281 0.910194 -0.510385
O37   O     O_2   0.113575 0.619834 0.588528 -0.510099
O38   O     O_2   0.352557 0.464393 0.910083 -0.503459
N1    N     N_R   0.044527 0.560166 0.079800 -0.387468
N2    N     N_R   0.531271 0.967839 0.419392 -0.383900
N3    N     N_R   0.451216 0.504622 0.077905 -0.381768
N4    N     N_R   0.044598 0.565546 0.419995 -0.386753
N5    N     N_R   0.519679 0.950426 0.079390 -0.386076
N6    N     N_R   0.451496 0.498230 0.421068 -0.383561
N7    N     N_R   0.555249 0.039939 0.580101 -0.385674
N8    N     N_R   0.959574 0.517292 0.919808 -0.385338
N9    N     N_R   0.498521 0.478449 0.582043 -0.389669
N10   N     N_R   0.554320 0.031643 0.919109 -0.384992
N11   N     N_R   0.963233 0.516624 0.580250 -0.385360
N12   N     N_R   0.494835 0.483788 0.916736 -0.389475
C49   C     C_R   0.955342 0.507759 0.068833 0.434862
C50   C     C_R   0.550707 0.052547 0.431182 0.432407
C51   C     C_R   0.529061 0.508131 0.065292 0.430205
C52   C     C_R   0.957679 0.504253 0.431267 0.432021
C53   C     C_R   0.548468 0.038244 0.068189 0.435046
C54   C     C_R   0.521237 0.485976 0.433176 0.433443
C55   C     C_R   0.573245 0.111559 0.559942 0.427719
C56   C     C_R   0.886769 0.475646 0.940513 0.435034
C57   C     C_R   0.560599 0.473007 0.562204 0.430856
C58   C     C_R   0.575267 0.102913 0.939679 0.425309
C59   C     C_R   0.891414 0.467650 0.559705 0.434420
C60   C     C_R   0.565944 0.496117 0.936114 0.431959
O39   O     O_2   0.891463 0.463814 0.087010 -0.474508
O40   O     O_2   0.557652 0.113621 0.413611 -0.476996
O41   O     O_2   0.591030 0.514733 0.082324 -0.484251
O42   O     O_2   0.896140 0.452996 0.413363 -0.480953
O43   O     O_2   0.561235 0.100535 0.086158 -0.477734
O44   O     O_2   0.576017 0.479671 0.415744 -0.478967
O45   O     O_2   0.589880 0.187055 0.570141 -0.485800
O46   O     O_2   0.807385 0.427650 0.930902 -0.466689
O47   O     O_2   0.624316 0.464370 0.572731 -0.469192
O48   O     O_2   0.595203 0.179881 0.929918 -0.493109
O49   O     O_2   0.813839 0.412575 0.569493 -0.466866
O50   O     O_2   0.636798 0.502191 0.925181 -0.471622
C61   C     C_R   0.937861 0.503779 0.036866 0.036872
C62   C     C_R   0.561623 0.068659 0.463236 0.036452
C63   C     C_R   0.537882 0.505039 0.033034 0.032236
C64   C     C_R   0.940084 0.499299 0.463240 0.038544
C65   C     C_R   0.560662 0.055700 0.036157 0.036044
C66   C     C_R   0.530216 0.481811 0.465394 0.034770
C67   C     C_R   0.571881 0.098034 0.527774 0.037997
C68   C     C_R   0.903502 0.487228 0.972550 0.035397
C69   C     C_R   0.550485 0.476350 0.530047 0.035272
C70   C     C_R   0.573818 0.087755 0.971712 0.037704
C71   C     C_R   0.907100 0.480082 0.527623 0.036801
C72   C     C_R   0.556754 0.500050 0.968298 0.034065
C73   C     C_R   0.012763 0.552913 0.015926 -0.048275
C74   C     C_R   0.552318 0.997169 0.483511 -0.049949
C75   C     C_R   0.464942 0.495190 0.013462 -0.054864
C76   C     C_R   0.012680 0.556878 0.483926 -0.048573
C77   C     C_R   0.546133 0.983228 0.015510 -0.048631
C78   C     C_R   0.466220 0.488847 0.485409 -0.051547
C79   C     C_R   0.557281 0.012128 0.516054 -0.048666
C80   C     C_R   0.995270 0.544631 0.983514 -0.047080
C81   C     C_R   0.476909 0.486922 0.518027 -0.051306
C82   C     C_R   0.552217 0.999056 0.982980 -0.048476
C83   C     C_R   0.995933 0.546825 0.516391 -0.046990
C84   C     C_R   0.474570 0.493035 0.980795 -0.053440
C85   C     C_R   0.178928 0.655766 0.005706 -0.008062
C86   C     C_R   0.529667 0.840978 0.492361 -0.003197
C87   C     C_R   0.307902 0.470537 0.006481 0.002157
C88   C     C_R   0.173420 0.679973 0.493627 -0.004115
C89   C     C_R   0.521810 0.827382 0.006598 0.001911
C90   C     C_R   0.325211 0.498399 0.493423 0.001227
C91   C     C_R   0.544780 0.860843 0.524676 0.003730
C92   C     C_R   0.158923 0.656993 0.973707 -0.002511
C93   C     C_R   0.344102 0.510760 0.525757 -0.007014
C94   C     C_R   0.515914 0.838377 0.974038 -0.003061
C95   C     C_R   0.152727 0.676254 0.525826 -0.001260
C96   C     C_R   0.322803 0.481702 0.973911 -0.006555
C97   C     C_R   0.847080 0.449705 0.025460 -0.126237
C98   C     C_R   0.579430 0.154425 0.475377 -0.122308
C99   C     C_R   0.618649 0.512030 0.020064 -0.126825
C100  C     C_R   0.851795 0.435783 0.474913 -0.125558
C101  C     C_R   0.585486 0.143859 0.024405 -0.119195
C102  C     C_R   0.602546 0.471473 0.477897 -0.125808
C103  C     C_R   0.584532 0.168916 0.507173 -0.126948
C104  C     C_R   0.830163 0.441507 0.993770 -0.134346
C105  C     C_R   0.612418 0.468611 0.509754 -0.125492
C106  C     C_R   0.592156 0.159701 0.992658 -0.121163
C107  C     C_R   0.835540 0.426384 0.506631 -0.132501
C108  C     C_R   0.627976 0.509655 0.988167 -0.124203
C109  C     C_R   0.097997 0.500933 0.122351 -0.060173
C110  C     C_R   0.565138 0.933615 0.366808 -0.059777
C111  C     C_R   0.511379 0.606192 0.123330 -0.052458
C112  C     C_R   0.113203 0.516492 0.379130 -0.064953
C113  C     C_R   0.403461 0.891395 0.121039 -0.056202
C114  C     C_R   0.515542 0.599448 0.375716 -0.056404
C115  C     C_R   0.485412 0.075652 0.624636 -0.064973
C116  C     C_R   0.910715 0.405716 0.876814 -0.063510
C117  C     C_R   0.474723 0.377152 0.626503 -0.059482
C118  C     C_R   0.485874 0.072004 0.875287 -0.068692
C119  C     C_R   0.920855 0.408222 0.624206 -0.061576
C120  C     C_R   0.470944 0.380402 0.872951 -0.060464
C121  C     C_R   0.121955 0.502042 0.153362 -0.155470
C122  C     C_R   0.536437 0.904057 0.336430 -0.165223
C123  C     C_R   0.507396 0.623440 0.154689 -0.157048
C124  C     C_R   0.136867 0.515457 0.348203 -0.156169
C125  C     C_R   0.379454 0.869500 0.152149 -0.159896
C126  C     C_R   0.510987 0.618396 0.344526 -0.156428
C127  C     C_R   0.489008 0.101819 0.655554 -0.165563
C128  C     C_R   0.885511 0.382572 0.845899 -0.160444
C129  C     C_R   0.494596 0.365245 0.656970 -0.167577
C130  C     C_R   0.489673 0.100375 0.844594 -0.165306
C131  C     C_R   0.894008 0.385271 0.655059 -0.159029
C132  C     C_R   0.492054 0.367138 0.842770 -0.168280
C133  C     C_R   0.070717 0.613065 0.165096 0.172818
C134  C     C_R   0.393236 0.906674 0.345872 0.192910
C135  C     C_R   0.380512 0.464726 0.161975 0.171863
C136  C     C_R   0.059709 0.602079 0.333558 0.208334
C137  C     C_R   0.542574 0.931398 0.165490 0.181348
C138  C     C_R   0.379080 0.462392 0.337369 0.170810
C139  C     C_R   0.619225 0.076170 0.664657 0.175464
C140  C     C_R   0.928929 0.543068 0.834616 0.179569
C141  C     C_R   0.573210 0.532761 0.665096 0.185018
C142  C     C_R   0.618565 0.073329 0.834532 0.172746
C143  C     C_R   0.926637 0.543175 0.664909 0.179132
C144  C     C_R   0.572147 0.534397 0.833839 0.185943
C145  C     C_R   0.047532 0.611579 0.133620 -0.033979
C146  C     C_R   0.423779 0.937750 0.376131 -0.025865
C147  C     C_R   0.384628 0.448895 0.130072 -0.037158
C148  C     C_R   0.036710 0.602829 0.364989 -0.006077
C149  C     C_R   0.565466 0.952408 0.133928 -0.040659
C150  C     C_R   0.383475 0.445151 0.369112 -0.036505
C151  C     C_R   0.615936 0.051915 0.633223 -0.036270
C152  C     C_R   0.952734 0.564933 0.866039 -0.027125
C153  C     C_R   0.553552 0.543588 0.634112 -0.034064
C154  C     C_R   0.615295 0.047146 0.865770 -0.033137
C155  C     C_R   0.951786 0.564664 0.633533 -0.029935
C156  C     C_R   0.551630 0.546591 0.864549 -0.031745
C157  C     C_R   0.062573 0.556975 0.112287 0.198137
C158  C     C_R   0.507903 0.948423 0.386983 0.200817
C159  C     C_R   0.449032 0.519685 0.110746 0.201690
C160  C     C_R   0.064670 0.561538 0.387712 0.198670
C161  C     C_R   0.496125 0.931140 0.111747 0.197169
C162  C     C_R   0.450506 0.513880 0.388271 0.202984
C163  C     C_R   0.550955 0.053977 0.613008 0.198548
C164  C     C_R   0.941794 0.496181 0.887224 0.199445
C165  C     C_R   0.506352 0.466297 0.614737 0.204416
C166  C     C_R   0.550624 0.048379 0.886346 0.196642
C167  C     C_R   0.946837 0.496958 0.613019 0.198467
C168  C     C_R   0.502923 0.470118 0.884185 0.204997
H13   H     H_    0.979208 0.635384 0.874186 0.174745
H14   H     H_    0.664960 0.032691 0.624267 0.174068
H15   H     H_    0.574603 0.615672 0.873456 0.166250
H16   H     H_    0.974207 0.633927 0.624870 0.173595
H17   H     H_    0.663912 0.026774 0.874263 0.182061
H18   H     H_    0.576217 0.612216 0.624792 0.165310
H19   H     H_    0.379279 0.948605 0.391934 0.164784
H20   H     H_    0.018123 0.653171 0.125560 0.174081
H21   H     H_    0.335087 0.378117 0.379008 0.171655
H22   H     H_    0.637284 0.985497 0.126478 0.171826
H23   H     H_    0.997289 0.635685 0.371928 0.176013
H24   H     H_    0.338333 0.381241 0.120204 0.172121
H25   H     H_    0.153736 0.461376 0.160067 0.180958
H26   H     H_    0.581377 0.890623 0.321738 0.160633
H27   H     H_    0.553936 0.692930 0.163168 0.174062
H28   H     H_    0.178487 0.483901 0.342496 0.171065
H29   H     H_    0.306493 0.834315 0.158368 0.167034
H30   H     H_    0.559451 0.687425 0.336068 0.158241
H31   H     H_    0.440737 0.123648 0.663193 0.147620
H32   H     H_    0.856641 0.310614 0.839066 0.176255
H33   H     H_    0.473628 0.295520 0.664796 0.141769
H34   H     H_    0.442097 0.123595 0.837417 0.147578
H35   H     H_    0.868934 0.314247 0.662375 0.179779
H36   H     H_    0.470947 0.297048 0.835367 0.141629
H37   H     H_    0.109632 0.458547 0.105860 0.160006
H38   H     H_    0.630656 0.942250 0.374970 0.157118
H39   H     H_    0.561304 0.661269 0.108501 0.159145
H40   H     H_    0.134614 0.484152 0.396643 0.160987
H41   H     H_    0.349667 0.875335 0.103952 0.163566
H42   H     H_    0.567623 0.652732 0.390495 0.153854
H43   H     H_    0.434113 0.076348 0.609283 0.145858
H44   H     H_    0.902986 0.352386 0.893016 0.152886
H45   H     H_    0.438523 0.317218 0.611507 0.144739
H46   H     H_    0.435016 0.072405 0.890943 0.145315
H47   H     H_    0.917715 0.355652 0.608582 0.154428
H48   H     H_    0.433816 0.321114 0.888189 0.144265
N13   N     N_R   0.944447 0.616095 0.813287 0.096246
O51   O     O_R   0.938971 0.687537 0.822824 -0.269074
O52   O     O_R   0.977041 0.618087 0.785623 -0.244225
N14   N     N_R   0.684231 0.069191 0.684917 0.094370
O53   O     O_R   0.658166 0.032907 0.712455 -0.225170
O54   O     O_R   0.764375 0.085434 0.674318 -0.304318
N15   N     N_R   0.618712 0.614129 0.813869 0.107480
O55   O     O_R   0.592623 0.609239 0.785097 -0.224445
O56   O     O_R   0.677095 0.694983 0.825444 -0.251328
N16   N     N_R   0.936316 0.615548 0.685498 0.095504
O57   O     O_R   0.970818 0.622620 0.713163 -0.240090
O58   O     O_R   0.924173 0.682378 0.675167 -0.270706
N17   N     N_R   0.682836 0.066548 0.813839 0.094456
O59   O     O_R   0.656070 0.031521 0.786209 -0.225791
O60   O     O_R   0.762891 0.081575 0.824076 -0.300353
N18   N     N_R   0.618781 0.613261 0.684722 0.108632
O61   O     O_R   0.592288 0.609076 0.713422 -0.223656
O62   O     O_R   0.676759 0.693913 0.672860 -0.253735
N19   N     N_R   0.302583 0.888748 0.337213 0.104360
O63   O     O_R   0.234901 0.803300 0.335584 -0.292299
O64   O     O_R   0.282973 0.955261 0.339049 -0.251925
N20   N     N_R   0.051749 0.667754 0.186578 0.092415
O65   O     O_R   0.019704 0.635713 0.214169 -0.227618
O66   O     O_R   0.053743 0.743275 0.177255 -0.290311
N21   N     N_R   0.312516 0.388593 0.318066 0.091621
O67   O     O_R   0.337050 0.374028 0.290863 -0.236280
O68   O     O_R   0.232352 0.327273 0.329407 -0.300547
N22   N     N_R   0.615779 0.956690 0.187820 0.093085
O69   O     O_R   0.609712 0.985908 0.215298 -0.281051
O70   O     O_R   0.693682 0.962066 0.179529 -0.295945
N23   N     N_R   0.028194 0.643134 0.310614 0.110038
O71   O     O_R   0.005200 0.607356 0.282939 -0.247694
O72   O     O_R   0.011255 0.708957 0.318374 -0.244773
N24   N     N_R   0.316551 0.389211 0.181353 0.090508
O73   O     O_R   0.342706 0.376422 0.208528 -0.239695
O74   O     O_R   0.237478 0.325313 0.170152 -0.302201
C169  C     C_3   0.231942 0.730674 0.952609 -0.337391
H49   H     H_    0.199592 0.759740 0.936982 0.183868
H50   H     H_    0.285174 0.791598 0.965700 0.118231
H51   H     H_    0.266645 0.700495 0.938720 0.168004
C170  C     C_3   0.567552 0.800643 0.545369 -0.335619
H52   H     H_    0.617808 0.842441 0.563806 0.188172
H53   H     H_    0.503107 0.743839 0.555892 0.162305
H54   H     H_    0.604151 0.770856 0.532284 0.120704
C171  C     C_3   0.255841 0.496446 0.953942 -0.338073
H55   H     H_    0.294903 0.555179 0.937629 0.175194
H56   H     H_    0.209017 0.432064 0.940955 0.190943
H57   H     H_    0.212934 0.517242 0.967782 0.119134
C172  C     C_3   0.218450 0.755339 0.546913 -0.333063
H58   H     H_    0.179243 0.771114 0.564437 0.184454
H59   H     H_    0.267297 0.737684 0.558566 0.177652
H60   H     H_    0.258389 0.821565 0.533957 0.120325
C173  C     C_3   0.485944 0.754726 0.952925 -0.346039
H61   H     H_    0.427593 0.745077 0.937917 0.172147
H62   H     H_    0.545415 0.763810 0.938541 0.190146
H63   H     H_    0.457564 0.688067 0.965629 0.104018
C174  C     C_3   0.292604 0.545808 0.545754 -0.335093
H64   H     H_    0.341608 0.601433 0.561595 0.177856
H65   H     H_    0.261513 0.579500 0.531786 0.117046
H66   H     H_    0.236917 0.487746 0.559266 0.193155
C175  C     C_3   0.504516 0.744428 0.480963 -0.345450
H67   H     H_    0.440448 0.714323 0.466749 0.184963
H68   H     H_    0.562733 0.747695 0.467268 0.176684
H69   H     H_    0.487179 0.693207 0.499873 0.110361
C176  C     C_3   0.279833 0.700029 0.015841 -0.337725
H70   H     H_    0.302327 0.768124 0.027088 0.182926
H71   H     H_    0.290157 0.653626 0.031838 0.198000
H72   H     H_    0.326845 0.709833 0.996181 0.109041
C177  C     C_3   0.231252 0.479938 0.481606 -0.344756
H73   H     H_    0.202283 0.420994 0.464987 0.177132
H74   H     H_    0.178443 0.457843 0.500319 0.119949
H75   H     H_    0.237787 0.542735 0.470218 0.167248
C178  C     C_3   0.531672 0.746719 0.018704 -0.343883
H76   H     H_    0.462513 0.687469 0.024921 0.162658
H77   H     H_    0.565801 0.723797 0.001475 0.123193
H78   H     H_    0.578647 0.767916 0.039125 0.178104
C179  C     C_3   0.273065 0.742457 0.482836 -0.350195
H79   H     H_    0.279553 0.804153 0.470506 0.182356
H80   H     H_    0.324308 0.766320 0.502021 0.110908
H81   H     H_    0.295038 0.703583 0.467458 0.176678
C180  C     C_3   0.210085 0.432953 0.019134 -0.342532
H82   H     H_    0.194669 0.378641 0.036907 0.179225
H83   H     H_    0.201721 0.489590 0.029318 0.164687
H84   H     H_    0.156100 0.397135 0.001079 0.120695

loop_
_geom_bond_atom_site_label_1
_geom_bond_atom_site_label_2
_geom_bond_distance
_ccdc_geom_bond_type
C88   C95   1.421516 A    
C127  H31   1.082856 S    
C178  H76   1.109325 S    
C38   O28   1.220069 D    
C19   C122  1.411170 A    
C51   C63   1.399651 A    
H11   C100  1.083751 S    
N4    C52   1.373918 Am   
N15   O55   1.301188 A    
C52   C64   1.400442 A    
C109  C157  1.395255 A    
C120  C168  1.395752 A    
C173  H61   1.107993 S    
C124  H28   1.083857 S    
C148  H23   1.082876 S    
N19   O64   1.300962 A    
C172  H58   1.109897 S    
C33   C45   1.424076 A    
C139  N14   1.436940 S    
C42   N6    1.380642 Am   
N8    C56   1.377738 Am   
C90   C177  1.520218 S    
O21   C9    1.287769 A    
C145  C157  1.398371 A    
O10   Cr4   2.006859 S    
C68   C80   1.416129 A    
C18   C141  1.420136 A    
O12   Cr6   2.005852 S    
H5    C106  1.083643 S    
C88   C179  1.521869 S    
C89   C94   1.422702 A    
H7    C98   1.083718 S    
O1    Cr1   2.005536 S    
N21   O68   1.301376 A    
O3    Cr3   2.007939 S    
N2    C50   1.374603 Am   
C131  H35   1.083260 S    
O7    C9    1.280229 A    
C111  C123  1.388263 A    
C122  H26   1.083015 S    
C177  H74   1.109223 S    
C113  H41   1.083070 S    
C179  H81   1.106346 S    
C45   N9    1.379603 Am   
C115  H43   1.082999 S    
C10   C24   1.480930 S    
C56   O46   1.223425 D    
C99   C108  1.384245 A    
C102  C105  1.384467 A    
C36   C48   1.424480 A    
C100  C107  1.384923 A    
O14   Cr2   1.895997 S    
C179  H80   1.107871 S    
N6    C162  1.436631 S    
O15   C3    1.287792 A    
N19   O63   1.300328 A    
N20   O65   1.300949 A    
C112  C124  1.390266 A    
N21   O67   1.301455 A    
O14   C2    1.288790 A    
C175  H69   1.106077 S    
C48   N12   1.379501 Am   
O15   Cr3   1.896123 S    
C92   C169  1.519613 S    
C28   C40   1.425775 A    
C57   C69   1.398563 A    
O5    C1    1.282193 A    
C125  H29   1.083635 S    
C178  H78   1.109877 S    
C61   C97   1.403728 A    
C173  H63   1.106865 S    
N18   O61   1.301168 A    
C134  N19   1.430932 S    
C172  H60   1.109752 S    
C7    C21   1.481226 S    
C109  H37   1.083188 S    
C142  C154  1.405357 A    
N7    C163  1.442976 S    
C45   O35   1.220669 D    
C47   O37   1.221193 D    
C97   C104  1.385645 A    
C65   C77   1.417392 A    
O23   Cr5   1.896985 S    
C85   C176  1.520054 S    
Cr2   O25   1.963627 S    
N13   O52   1.301264 A    
C180  H82   1.110314 S    
C112  H40   1.083233 S    
N5    C53   1.375353 Am   
N9    C165  1.436481 S    
C117  C165  1.395490 A    
C17   C130  1.406926 A    
C46   N10   1.382567 Am   
C26   C38   1.426886 A    
C41   O31   1.221566 D    
C15   C144  1.420272 A    
C48   O38   1.220569 D    
O21   Cr6   1.896107 S    
N8    C164  1.440292 S    
C169  H49   1.110348 S    
N1    C157  1.436456 S    
C11   C19   1.487483 S    
C12   C20   1.477873 S    
C77   C82   1.418486 A    
N6    C54   1.374891 Am   
H1    C104  1.083553 S    
C64   C76   1.418472 A    
C176  H70   1.110198 S    
C28   C76   1.418622 A    
C156  C168  1.398010 A    
C138  N21   1.436886 S    
C153  C165  1.398465 A    
C136  C148  1.407215 A    
N15   O56   1.301424 A    
C148  C160  1.399901 A    
C22   C137  1.419677 A    
N10   C58   1.377345 Am   
C112  C160  1.395874 A    
C29   C77   1.412358 A    
C87   C180  1.520593 S    
N22   O69   1.301483 A    
C170  H53   1.109962 S    
C24   C135  1.420183 A    
H8    C97   1.083682 S    
C54   O44   1.223275 D    
N24   O74   1.301379 A    
C59   C71   1.400892 A    
C60   C72   1.398607 A    
C138  C150  1.404990 A    
C64   C100  1.403662 A    
N22   O70   1.301438 A    
C51   O41   1.223353 D    
C63   C99   1.403037 A    
C49   O39   1.223116 D    
C35   C47   1.423188 A    
C149  H22   1.082952 S    
C54   C66   1.399961 A    
O22   Cr4   1.895963 S    
C27   C87   1.425517 A    
C171  H56   1.109968 S    
C23   C136  1.418675 A    
C155  H16   1.083072 S    
C111  H39   1.083247 S    
C27   C39   1.422373 A    
C174  H65   1.108808 S    
O22   C10   1.290212 A    
C37   N1    1.379967 Am   
C113  C125  1.392136 A    
C20   C133  1.419956 A    
O8    Cr5   2.006611 S    
C180  H84   1.109250 S    
C22   C125  1.407074 A    
C110  C122  1.394784 A    
C55   O45   1.223471 D    
N14   O54   1.301389 A    
C116  C128  1.390608 A    
C150  C162  1.398612 A    
O2    Cr2   2.006010 S    
C63   C75   1.416652 A    
C150  H21   1.083050 S    
C130  H34   1.082947 S    
C169  H51   1.108835 S    
H10   C101  1.083658 S    
C91   C170  1.520736 S    
O8    C10   1.282032 A    
C62   C74   1.418004 A    
C29   C41   1.422667 A    
C147  H24   1.083043 S    
C135  N24   1.437100 S    
C153  H18   1.083077 S    
C31   C43   1.422972 A    
C146  H19   1.083635 S    
C114  H42   1.083152 S    
C176  H72   1.106611 S    
C142  N17   1.436957 S    
C117  H45   1.083051 S    
C16   C143  1.420546 A    
O20   C8    1.286563 A    
C115  C163  1.398688 A    
C141  C153  1.405586 A    
C113  C161  1.396220 A    
C139  C151  1.405156 A    
C70   C106  1.404406 A    
C101  C106  1.385126 A    
C66   C78   1.417414 A    
C13   C140  1.419902 A    
C73   C80   1.417699 A    
C60   O50   1.223711 D    
C74   C79   1.417872 A    
H9    C102  1.083773 S    
C58   C70   1.399260 A    
C61   C73   1.417944 A    
O6    C2    1.283163 A    
C126  H30   1.083117 S    
C135  C147  1.406219 A    
O17   Cr2   1.896406 S    
C38   N2    1.382628 Am   
C19   C134  1.421044 A    
C118  C130  1.392946 A    
C25   C85   1.428757 A    
C133  C145  1.405290 A    
O19   Cr4   1.896775 S    
Cr4   O26   1.963716 S    
C110  H38   1.082889 S    
C152  H13   1.083045 S    
C1    C15   1.479091 S    
C2    C16   1.482605 S    
C4    C18   1.478895 S    
C20   C121  1.407488 A    
C141  N18   1.437499 S    
C69   C105  1.403229 A    
O17   C5    1.287887 A    
C110  C158  1.396894 A    
C72   C108  1.403030 A    
O19   C7    1.289740 A    
C177  H73   1.110356 S    
C34   C46   1.428894 A    
C71   C107  1.402931 A    
C56   C68   1.400919 A    
C13   C128  1.407064 A    
Cr6   O26   1.961754 S    
C120  H48   1.082988 S    
C41   N5    1.381131 Am   
N16   O57   1.301243 A    
C43   N7    1.381507 Am   
C132  H36   1.083162 S    
C67   C103  1.402809 A    
C171  H55   1.110191 S    
C36   C84   1.417063 A    
C78   C81   1.417363 A    
C118  H46   1.082984 S    
C136  N23   1.438685 S    
C58   O48   1.223639 D    
N12   C168  1.436297 S    
C76   C83   1.417947 A    
N20   O66   1.301404 A    
C175  H68   1.110169 S    
C98   C103  1.384893 A    
O16   Cr1   1.895717 S    
N23   O71   1.300984 A    
C178  H77   1.109850 S    
C26   C74   1.419095 A    
O5    Cr2   2.005846 S    
C86   C175  1.523167 S    
N1    C49   1.374312 Am   
N3    C51   1.376227 Am   
C173  H62   1.110105 S    
N18   O62   1.301422 A    
N11   C167  1.442199 S    
C172  H59   1.110542 S    
C33   C81   1.417318 A    
C70   C82   1.416349 A    
C66   C102  1.403011 A    
N7    C55   1.378702 Am   
C27   C75   1.415191 A    
H4    C107  1.083324 S    
C30   C78   1.415530 A    
C57   O47   1.223739 D    
C128  H32   1.083416 S    
N3    C159  1.439160 S    
C25   C73   1.417714 A    
Cr1   O25   1.963410 S    
C49   C61   1.400955 A    
O18   Cr3   1.898162 S    
N13   O51   1.301412 A    
C50   O40   1.223272 D    
C149  C161  1.399119 A    
N5    C161  1.438351 S    
C119  H47   1.083016 S    
N17   O60   1.301382 A    
O24   C12   1.288078 A    
C44   O34   1.221027 D    
C5    C13   1.479212 S    
O23   C11   1.289813 A    
Cr5   O26   1.963303 S    
C69   C81   1.416431 A    
C29   C89   1.423436 A    
C177  H75   1.107389 S    
C8    C22   1.477515 S    
C33   C93   1.426964 A    
C152  C164  1.399925 A    
C89   C178  1.520469 S    
C93   C174  1.519423 S    
C94   C173  1.521912 S    
C180  H83   1.108002 S    
C144  C156  1.404658 A    
C154  C166  1.399892 A    
O3    C5    1.282122 A    
N10   C166  1.444199 S    
C118  C166  1.399444 A    
C40   N4    1.380525 Am   
C47   N11   1.381189 Am   
C170  H52   1.109608 S    
C42   O32   1.221130 D    
C16   C131  1.407643 A    
C25   C37   1.422808 A    
C44   N8    1.380324 Am   
C115  C127  1.392155 A    
O4    Cr1   2.007419 S    
N2    C158  1.440908 S    
C28   C88   1.432202 A    
O9    C11   1.283466 A    
O6    Cr3   2.005892 S    
O10   C12   1.281963 A    
C96   C171  1.519127 S    
C90   C93   1.418972 A    
O16   C4    1.288562 A    
C146  C158  1.398262 A    
C65   C101  1.402295 A    
N17   O59   1.301330 A    
C67   C79   1.416144 A    
O20   Cr5   1.895670 S    
C62   C98   1.403929 A    
O24   Cr6   1.898243 S    
O9    Cr6   2.008126 S    
C120  C132  1.391354 A    
C116  C164  1.397282 A    
C121  H25   1.083493 S    
C26   C86   1.434061 A    
C21   C138  1.420840 A    
C123  H27   1.083208 S    
N9    C57   1.375794 Am   
C143  N16   1.437079 S    
N11   C59   1.378291 Am   
C32   C92   1.423958 A    
C40   O30   1.220406 D    
C23   C124  1.406097 A    
C3    C17   1.484637 S    
C137  C149  1.406410 A    
C17   C142  1.421645 A    
C46   O36   1.219773 D    
N4    C160  1.438027 S    
C169  H50   1.109661 S    
O7    Cr4   2.005751 S    
O18   C6    1.288752 A    
C32   C44   1.422343 A    
O13   Cr1   1.897338 S    
C119  C167  1.398107 A    
C85   C92   1.419266 A    
C129  H33   1.083036 S    
C147  C159  1.400398 A    
C86   C91   1.422794 A    
C176  H71   1.108474 S    
O12   C8    1.282224 A    
C24   C123  1.408650 A    
O13   C1    1.289315 A    
C59   O49   1.223487 D    
C155  C167  1.400203 A    
C43   O33   1.221338 D    
C111  C159  1.395314 A    
C114  C126  1.389180 A    
N23   O72   1.301480 A    
C140  C152  1.405319 A    
C137  N22   1.438712 S    
C35   C95   1.424217 A    
C36   C96   1.427245 A    
Cr3   O25   1.961736 S    
C21   C126  1.408713 A    
C109  C121  1.390343 A    
C140  N13   1.437593 S    
H2    C103  1.083747 S    
C170  H54   1.109933 S    
C151  C163  1.400145 A    
N24   O73   1.301443 A    
C116  H44   1.083039 S    
C37   O27   1.220907 D    
C14   C139  1.420949 A    
C68   C104  1.403317 A    
C39   O29   1.221200 D    
C30   C42   1.422036 A    
C154  H17   1.083022 S    
C72   C84   1.416592 A    
C143  C155  1.405479 A    
C55   C67   1.401091 A    
C34   C82   1.419384 A    
C71   C83   1.416212 A    
C31   C91   1.423509 A    
C171  H57   1.108025 S    
C53   C65   1.402198 A    
C156  H15   1.083097 S    
C15   C132  1.407116 A    
C9    C23   1.474577 S    
O1    C3    1.285415 A    
C174  H66   1.110061 S    
C31   C79   1.412483 A    
C32   C80   1.414366 A    
C114  C162  1.394622 A    
C52   O42   1.223193 D    
C35   C83   1.413604 A    
C133  N20   1.437413 S    
C50   C62   1.399934 A    
C75   C84   1.417413 A    
C179  H79   1.110169 S    
C144  N15   1.437484 S    
N14   O53   1.301317 A    
C175  H67   1.107405 S    
N16   O58   1.301400 A    
C151  H14   1.083081 S    
C14   C127  1.407568 A    
C145  H20   1.082998 S    
C6    C14   1.484078 S    
C18   C129  1.407151 A    
C39   N3    1.381438 Am   
O11   Cr5   2.005443 S    
C119  C131  1.391547 A    
C134  C146  1.399902 A    
C30   C90   1.426099 A    
C117  C129  1.390107 A    
C95   C172  1.520557 S    
O11   C7    1.283098 A    
N12   C60   1.375415 Am   
C34   C94   1.433421 A    
C174  H64   1.109829 S    
O2    C4    1.282715 A    
C53   O43   1.223132 D    
H3    C108  1.083625 S    
H6    C105  1.083403 S    
O4    C6    1.284359 A    
C87   C96   1.419157 A    
H12   C99   1.083747 S    
