data_mof_unit_25075.cif
_audit_creation_date              2012-12-11T17:36:08-0500
_audit_creation_method            fapswitch 2.2
_symmetry_space_group_name_H-M    P1
_symmetry_Int_Tables_number       1
_space_group_crystal_system       triclinic
_cell_length_a                    25.926106
_cell_length_b                    6.895227
_cell_length_c                    21.642234
_cell_angle_alpha                 90.043091
_cell_angle_beta                  96.180511
_cell_angle_gamma                 90.341891
_cell_volume                      3846.34424238

loop_
_atom_site_label
_atom_site_type_symbol
_atom_type_description
_atom_site_fract_x
_atom_site_fract_y
_atom_site_fract_z
_atom_type_partial_charge
O1    O     O_R   0.208650 0.594520 0.175450 -0.530029
O2    O     O_R   0.791350 0.405480 0.824550 -0.530028
O3    O     O_R   0.291350 0.094520 0.324550 -0.539561
O4    O     O_R   0.708650 0.905480 0.675450 -0.539564
O5    O     O_R   0.192980 0.260780 0.300160 -0.531144
O6    O     O_R   0.807020 0.739220 0.699840 -0.531137
O7    O     O_R   0.307020 0.760780 0.199840 -0.527646
O8    O     O_R   0.692980 0.239220 0.800160 -0.527617
C1    C     C_R   0.177827 0.433041 0.317045 0.683871
C2    C     C_R   0.822171 0.566960 0.682952 0.683874
C3    C     C_R   0.320505 0.933651 0.180569 0.692973
C4    C     C_R   0.679497 0.066350 0.819437 0.692992
O9    O     O_R   0.202550 0.264660 0.174420 -0.535649
O10   O     O_R   0.797450 0.735340 0.825580 -0.535644
O11   O     O_R   0.297450 0.764660 0.325580 -0.537772
O12   O     O_R   0.702550 0.235340 0.674420 -0.537771
O13   O     O_R   0.300990 0.096480 0.197920 -0.540194
O14   O     O_R   0.699010 0.903520 0.802080 -0.540192
O15   O     O_R   0.199010 0.596480 0.302080 -0.541974
O16   O     O_R   0.800990 0.403520 0.697920 -0.541975
C5    C     C_R   0.190914 0.432670 0.151023 0.762250
C6    C     C_R   0.809082 0.567330 0.848979 0.762225
C7    C     C_R   0.308985 0.933845 0.348904 0.716116
C8    C     C_R   0.691015 0.066155 0.651096 0.716120
O17   O     O_3   0.282290 0.427760 0.257860 -0.364694
O18   O     O_3   0.717710 0.572240 0.742140 -0.364679
O19   O     O_3   0.217710 0.927760 0.242140 -0.357006
O20   O     O_3   0.782290 0.072240 0.757860 -0.357003
V1    V     V_3+5 0.244010 0.152080 0.248540 1.496178
V2    V     V_3+5 0.755990 0.847920 0.751460 1.496208
V3    V     V_3+5 0.255990 0.652080 0.251460 1.496660
V4    V     V_3+5 0.744010 0.347920 0.748540 1.496697
C9    C     C_R   0.657487 0.058485 0.591633 -0.115813
C10   C     C_R   0.342513 0.941515 0.408367 -0.115811
C11   C     C_R   0.842723 0.566004 0.908594 -0.124906
C12   C     C_R   0.157266 0.433992 0.091411 -0.124893
C13   C     C_R   0.648602 0.082250 0.479541 0.410824
C14   C     C_R   0.351399 0.917747 0.520458 0.410822
C15   C     C_R   0.855694 0.657865 0.017159 0.403340
C16   C     C_R   0.144280 0.342088 0.982850 0.403315
C17   C     C_R   0.679069 0.094456 0.536550 -0.197414
C18   C     C_R   0.320931 0.905542 0.463450 -0.197409
C19   C     C_R   0.824426 0.648962 0.960724 -0.172936
C20   C     C_R   0.175548 0.350952 0.039285 -0.172898
C21   C     C_R   0.604016 0.022337 0.589831 -0.198586
C22   C     C_R   0.395984 0.977664 0.410168 -0.198590
C23   C     C_R   0.894474 0.504186 0.912150 -0.202498
C24   C     C_R   0.105521 0.495888 0.087856 -0.202516
C25   C     C_R   0.570666 0.031377 0.533150 0.035762
C26   C     C_R   0.429334 0.968624 0.466849 0.035764
C27   C     C_R   0.929590 0.535920 0.966676 0.037652
C28   C     C_R   0.070400 0.464169 0.033333 0.037648
C29   C     C_R   0.594696 0.043971 0.477353 0.028258
C30   C     C_R   0.405304 0.956028 0.522647 0.028258
C31   C     C_R   0.907912 0.596440 0.020971 0.031012
C32   C     C_R   0.092071 0.403607 0.979039 0.031026
C33   C     C_R   0.514815 0.018011 0.529629 0.030140
C34   C     C_R   0.485185 0.981991 0.470370 0.030139
C35   C     C_R   0.984804 0.503088 0.970024 0.031176
C36   C     C_R   0.015187 0.497040 0.029988 0.031170
C37   C     C_R   0.512987 0.956478 0.417613 -0.074633
C38   C     C_R   0.487013 0.043523 0.582386 -0.074637
C39   C     C_R   0.988573 0.518745 0.083871 -0.076569
C40   C     C_R   0.011419 0.481401 0.916140 -0.076586
C41   C     C_R   0.565475 0.003894 0.420737 -0.152645
C42   C     C_R   0.434526 0.996107 0.579262 -0.152642
C43   C     C_R   0.937544 0.583371 0.078591 -0.146878
C44   C     C_R   0.062442 0.416723 0.921418 -0.146855
H1    H     H_    0.584418 0.993172 0.378619 0.196733
H2    H     H_    0.415582 0.006828 0.621380 0.196733
H3    H     H_    0.919766 0.609457 0.120891 0.196398
H4    H     H_    0.080218 0.390634 0.879117 0.196395
H5    H     H_    0.410025 0.020339 0.367108 0.128976
H6    H     H_    0.589975 0.979662 0.632891 0.128978
H7    H     H_    0.094143 0.571151 0.127791 0.137058
H8    H     H_    0.905862 0.428967 0.872211 0.137034
H9    H     H_    0.279783 0.874686 0.462208 0.146193
H10   H     H_    0.720218 0.125310 0.537791 0.146191
H11   H     H_    0.214854 0.296846 0.042062 0.166830
H12   H     H_    0.785110 0.702973 0.957947 0.166781
C45   C     C_R   0.435871 0.806101 0.092365 -0.114536
C46   C     C_R   0.564176 0.194001 0.907717 -0.114582
C47   C     C_R   0.087140 0.308337 0.439355 -0.111180
C48   C     C_R   0.912856 0.691686 0.560641 -0.111180
H13   H     H_    0.461726 0.684460 0.089274 0.121547
H14   H     H_    0.538358 0.315723 0.910863 0.121487
H15   H     H_    0.082214 0.190902 0.471459 0.123873
H16   H     H_    0.917784 0.809127 0.528539 0.123870
C49   C     C_R   0.396248 0.793633 0.131723 -0.122181
C50   C     C_R   0.603806 0.206497 0.868368 -0.122097
C51   C     C_R   0.125744 0.294500 0.398653 -0.135911
C52   C     C_R   0.874253 0.705514 0.601344 -0.135887
H17   H     H_    0.392896 0.662475 0.158514 0.144136
H18   H     H_    0.607209 0.337791 0.841650 0.144202
H19   H     H_    0.149988 0.166767 0.400790 0.128695
H20   H     H_    0.850009 0.833247 0.599209 0.128697
C53   C     C_R   0.361954 0.949259 0.137231 -0.097140
C54   C     C_R   0.638049 0.050740 0.862776 -0.097140
C55   C     C_R   0.134007 0.445727 0.356950 -0.085193
C56   C     C_R   0.865988 0.554278 0.643043 -0.085196
C57   C     C_R   0.368532 0.118895 0.101057 -0.043909
C58   C     C_R   0.631420 0.880968 0.898869 -0.043893
C59   C     C_R   0.100817 0.609727 0.355725 -0.047048
C60   C     C_R   0.899176 0.390272 0.644259 -0.047059
C61   C     C_R   0.408410 0.129382 0.062199 -0.147294
C62   C     C_R   0.591533 0.870448 0.937714 -0.147313
C63   C     C_R   0.062466 0.622029 0.396824 -0.146101
C64   C     C_R   0.937528 0.377979 0.603163 -0.146106
H21   H     H_    0.413099 0.259428 0.035061 0.123727
H22   H     H_    0.586791 0.740281 0.964773 0.123645
H23   H     H_    0.037667 0.748475 0.395764 0.124202
H24   H     H_    0.962324 0.251529 0.604218 0.124201
C65   C     C_R   0.442184 0.974517 0.057645 0.110466
C66   C     C_R   0.557811 0.025441 0.942350 0.110546
C67   C     C_R   0.055671 0.473173 0.439142 0.110667
C68   C     C_R   0.944325 0.526848 0.560851 0.110669
C69   C     C_1   0.483054 0.991307 0.017069 -0.022649
C70   C     C_1   0.516936 0.008639 0.982914 -0.022636
C71   C     C_1   0.016411 0.491389 0.482129 -0.022773
C72   C     C_1   0.983586 0.508638 0.517864 -0.022773
Cl1   Cl    Cl    0.680106 0.116163 0.412014 -0.584376
Cl2   Cl    Cl    0.319895 0.883830 0.587985 -0.584380
Cl3   Cl    Cl    0.827687 0.752082 0.081552 -0.580899
Cl4   Cl    Cl    0.172273 0.247784 0.918459 -0.580910
C73   C     C_1   0.491819 0.857928 0.361410 0.320307
N1    N     N_1   0.475266 0.778378 0.316392 -0.348756
C74   C     C_1   0.508181 0.142074 0.638589 0.320301
N2    N     N_1   0.524734 0.221624 0.683607 -0.348712
C75   C     C_1   0.008941 0.453515 0.145158 0.327687
N3    N     N_1   0.024834 0.400896 0.194306 -0.330078
C76   C     C_1   0.991057 0.546704 0.854858 0.327681
N4    N     N_1   0.975168 0.599383 0.805716 -0.330041
C77   C     C_1   0.334846 0.284905 0.101128 0.308949
N5    N     N_1   0.308139 0.418771 0.100941 -0.357615
C78   C     C_1   0.665079 0.714887 0.898760 0.308814
N6    N     N_1   0.691771 0.580988 0.898922 -0.357625
C79   C     C_1   0.103573 0.765237 0.311494 0.312287
N7    N     N_1   0.105474 0.890053 0.276073 -0.318766
C80   C     C_1   0.896412 0.234733 0.688478 0.312238
N8    N     N_1   0.894504 0.109891 0.723889 -0.318735

loop_
_geom_bond_atom_site_label_1
_geom_bond_atom_site_label_2
_ccdc_geom_bond_type
O17   V3    S    
C55   C59   A    
O1    C5    A    
O19   V1    S    
C9    C21   A    
O3    C7    A    
C10   C18   A    
O1    V3    S    
O15   V3    S    
C15   Cl3   S    
C78   N6    T    
C5    C12   S    
C42   H2    S    
O18   V4    S    
C6    C11   S    
C35   C40   A    
C26   C30   A    
C62   C66   A    
C36   C39   A    
C40   C44   A    
C61   C65   A    
C23   H8    S    
C14   C18   A    
C59   C79   S    
C62   H22   S    
C38   C74   S    
O4    C8    A    
C25   C29   A    
C52   H20   S    
O13   V1    S    
O2    V4    S    
O3    V1    S    
C58   C78   S    
C28   C36   A    
C13   C17   A    
C1    O15   A    
C56   C60   A    
C15   C31   A    
C2    O16   A    
C16   C32   A    
O2    C6    A    
C58   C62   A    
C10   C22   A    
C11   C19   A    
C16   C20   A    
C43   H3    S    
C44   H4    S    
C45   C49   A    
C34   C37   A    
O11   C7    A    
C11   C23   A    
C35   C36   A    
O12   C8    A    
C57   C61   A    
C24   H7    S    
O10   V2    S    
C50   H18   S    
O5    V1    S    
O17   V1    S    
C16   Cl4   S    
C80   N8    T    
C39   C43   A    
O7    V3    S    
C38   C42   A    
O19   V3    S    
C26   C34   A    
C47   C67   A    
O20   V4    S    
C46   C66   A    
C17   H10   S    
C23   C27   A    
C33   C38   A    
C19   H12   S    
C54   C58   A    
O4    V2    S    
C64   H24   S    
C49   C53   A    
C21   H6    S    
O8    V4    S    
O7    C3    A    
O5    C1    A    
C37   C41   A    
C14   C30   A    
C40   C76   S    
C21   C25   A    
O8    C4    A    
C7    C10   S    
O9    C5    A    
C66   C70   S    
C2    C56   S    
C63   C67   A    
C14   Cl2   S    
C65   C69   S    
O6    V2    S    
O18   V2    S    
C67   C71   S    
C73   N1    T    
C13   Cl1   S    
C48   C68   A    
C12   C20   A    
C27   C35   A    
C4    O14   A    
C76   N4    T    
C60   C64   A    
C29   C41   A    
C52   C56   A    
C75   N3    T    
O16   V4    S    
O9    V1    S    
C61   H21   S    
C37   C73   S    
C3    O13   A    
C63   H23   S    
C20   H11   S    
C48   H16   S    
C47   H15   S    
O6    C2    A    
C25   C33   A    
C31   C43   A    
C71   C72   T    
O11   V3    S    
C30   C42   A    
C57   C77   S    
O12   V4    S    
C47   C51   A    
C79   N7    T    
C22   C26   A    
C8    C9    S    
C46   C50   A    
C60   C80   S    
C3    C53   S    
C9    C17   A    
O10   C6    A    
O20   V2    S    
C13   C29   A    
C32   C44   A    
C69   C70   T    
C46   H14   S    
C64   C68   A    
C33   C34   A    
C77   N5    T    
C28   C32   A    
C41   H1    S    
C12   C24   A    
C27   C31   A    
C39   C75   S    
C49   H17   S    
C45   H13   S    
O14   V2    S    
C51   H19   S    
C68   C72   S    
C24   C28   A    
C15   C19   A    
C18   H9    S    
C1    C55   S    
C45   C65   A    
C4    C54   S    
C59   C63   A    
C48   C52   A    
C51   C55   A    
C50   C54   A    
C22   H5    S    
C53   C57   A    
C74   N2    T    
