data_mof_unit_66157.cif
_audit_creation_date              2012-12-10T16:58:18-0500
_audit_creation_method            fapswitch 2.2
_symmetry_space_group_name_H-M    P1
_symmetry_Int_Tables_number       1
_space_group_crystal_system       triclinic
_cell_length_a                    21.746766
_cell_length_b                    21.765647
_cell_length_c                    22.083306
_cell_angle_alpha                 60.17699
_cell_angle_beta                  118.734926
_cell_angle_gamma                 90.193869
_cell_volume                      7560.36733954

loop_
_atom_site_label
_atom_site_type_symbol
_atom_type_description
_atom_site_fract_x
_atom_site_fract_y
_atom_site_fract_z
_atom_type_partial_charge
C1    C     C_R   0.618106 0.500489 0.499265 0.777407
C2    C     C_R   0.817853 0.329293 0.722387 0.153713
C3    C     C_R   0.882349 0.322024 0.722786 0.041111
C4    C     C_R   0.419775 0.580201 0.339828 0.802366
C5    C     C_R   0.880822 0.373446 0.650450 -0.212531
C6    C     C_R   0.817434 0.434880 0.578035 0.061045
C7    C     C_R   0.752435 0.439737 0.577656 0.051502
C8    C     C_R   0.687105 0.497479 0.504923 -0.057542
C9    C     C_R   0.686148 0.551288 0.434882 -0.189517
C10   C     C_R   0.749664 0.548350 0.435124 -0.181751
C11   C     C_R   0.815716 0.491364 0.505458 -0.093237
C12   C     C_3   0.289092 0.708323 0.083079 0.119435
C13   C     C_3   0.711613 0.218015 0.029766 -0.158749
C14   C     C_3   0.696414 0.302951 0.973017 -0.150971
C15   C     C_1   0.625574 0.374597 0.750182 -0.172713
C16   C     C_R   0.379568 0.501610 0.496503 0.779770
C17   C     C_1   0.876555 0.125691 0.249714 -0.142171
C18   C     C_3   0.725313 0.206559 0.972890 -0.159752
C19   C     C_3   0.710771 0.290834 0.917492 0.183865
C20   C     C_3   0.808309 0.196601 0.026797 -0.145595
C21   C     C_3   0.793884 0.208761 0.082286 0.178066
C22   C     C_3   0.793054 0.281601 0.969933 -0.153780
C23   C     C_3   0.194210 0.805135 0.973114 0.176364
C24   C     C_3   0.779372 0.293035 0.026860 -0.152444
C25   C     C_1   0.664029 0.336761 0.825671 -0.067796
C26   C     C_1   0.839524 0.163164 0.174178 -0.051328
C27   C     C_R   0.253102 0.485443 0.375957 -0.141150
C28   C     C_R   0.580002 0.419747 0.660293 0.809334
C29   C     C_R   0.196818 0.468670 0.326159 -0.090544
C30   C     C_R   0.138248 0.456863 0.335643 -0.146013
C31   C     C_R   0.134194 0.464481 0.392782 -0.171805
C32   C     C_R   0.189180 0.484312 0.441746 0.101194
C33   C     C_R   0.251606 0.490799 0.436549 0.084093
C34   C     C_3   0.205815 0.791507 0.916986 0.156518
C35   C     C_R   0.310092 0.503622 0.491228 -0.090968
C36   C     C_R   0.304060 0.514886 0.545411 -0.199163
C37   C     C_R   0.241756 0.511624 0.548007 -0.209674
C38   C     C_R   0.184325 0.496618 0.496822 -0.096464
C39   C     C_R   0.997161 0.883914 0.494354 0.772023
C40   C     C_3   0.216705 0.707681 0.972096 -0.324353
C41   C     C_R   0.079590 0.919892 0.660201 0.813119
C42   C     C_R   0.000337 0.118421 0.500254 0.788264
C43   C     C_R   0.920344 0.080866 0.339674 0.798810
C44   C     C_R   0.999387 0.618813 0.500038 0.763662
C45   C     C_3   0.277832 0.792309 0.027397 -0.197415
C46   C     C_R   0.881348 0.495925 0.501423 0.767811
C47   C     C_R   0.997211 0.380774 0.500329 0.786410
C48   C     C_R   0.118616 0.498092 0.499227 0.782293
C49   C     C_R   0.038408 0.861670 0.390651 -0.039604
C50   C     C_R   0.082373 0.838949 0.370725 -0.118830
C51   C     C_R   0.103172 0.764965 0.397582 0.172291
C52   C     C_3   0.300253 0.695074 0.026345 0.035531
C53   C     C_R   0.076175 0.714327 0.440242 -0.161128
C54   C     C_R   0.032856 0.735336 0.462241 0.058540
C55   C     C_R   0.021381 0.807193 0.446313 0.004451
C56   C     C_3   0.289282 0.778806 0.970064 -0.241843
C57   C     C_R   0.992511 0.820895 0.485911 -0.157283
C58   C     C_R   0.963777 0.769522 0.525818 -0.149232
C59   C     C_R   0.964771 0.703378 0.530346 -0.036853
C60   C     C_R   0.000568 0.685855 0.499511 -0.155463
C61   C     C_R   0.004180 0.116411 0.633806 -0.151362
C62   C     C_R   0.995937 0.117488 0.692032 -0.146663
C63   C     C_R   0.982736 0.183982 0.684659 -0.111067
C64   C     C_1   0.374185 0.625254 0.250169 -0.116736
C65   C     C_R   0.980997 0.248997 0.621266 -0.131688
C66   C     C_R   0.992292 0.248802 0.563446 0.085395
C67   C     C_1   0.335772 0.662892 0.174816 0.078455
C68   C     C_R   0.999471 0.182488 0.566743 0.053259
C69   C     C_R   0.001897 0.183736 0.503228 -0.101995
C70   C     C_R   0.001142 0.249159 0.439541 0.152845
C71   C     C_R   0.998590 0.312704 0.440091 -0.191140
C72   C     C_R   0.994878 0.313168 0.501288 -0.145060
C73   C     C_1   0.123301 0.875143 0.749913 -0.172099
C74   C     C_3   0.205847 0.721549 0.029187 0.025445
C75   C     C_2   0.358976 0.634225 0.053116 0.364943
C76   C     C_2   0.952066 0.261467 0.798577 0.313829
C77   C     C_2   0.000514 0.942420 0.340863 0.426307
C78   C     C_1   0.160349 0.837451 0.825305 -0.031810
C79   C     C_3   0.150332 0.740255 0.376757 -0.845779
C80   C     C_2   0.928121 0.653392 0.567347 0.375263
C81   C     C_3   0.001649 0.252765 0.369685 -0.824444
C82   C     C_3   0.133546 0.868484 0.942055 -0.889131
C83   C     C_2   0.157168 0.690792 0.059410 0.357079
C84   C     C_3   0.816005 0.275934 0.798062 -0.908458
C85   C     C_R   0.753798 0.387366 0.650013 -0.160904
Cu1   Cu    Cu3+1 0.500040 0.438210 0.499990 0.979341
Cu2   Cu    Cu3+1 0.499960 0.561790 0.500010 0.974359
Cu3   Cu    Cu3+1 0.061810 0.999860 0.500010 0.997025
Cu4   Cu    Cu3+1 0.938190 0.999990 0.499990 0.968495
Cu5   Cu    Cu3+1 0.958570 0.541460 0.417120 0.954798
Cu6   Cu    Cu3+1 0.041430 0.458560 0.582880 0.987024
H1    H     H_    0.929993 0.362734 0.652575 0.199768
H2    H     H_    0.191685 0.673016 0.949205 0.153767
H3    H     H_    0.296875 0.495147 0.365418 0.156814
H4    H     H_    0.198976 0.464250 0.280462 0.154224
H5    H     H_    0.095440 0.442274 0.298120 0.136962
H6    H     H_    0.088144 0.453704 0.398636 0.146358
H7    H     H_    0.238036 0.521562 0.589786 0.157412
H8    H     H_    0.940620 0.781031 0.554320 0.202022
H9    H     H_    0.097562 0.879627 0.330705 0.176694
H10   H     H_    0.090249 0.658077 0.456974 0.141806
H11   H     H_    0.323594 0.802274 0.945164 0.148167
H12   H     H_    0.747083 0.591847 0.379868 0.166681
H13   H     H_    0.014540 0.063272 0.642329 0.140857
H14   H     H_    0.998785 0.066732 0.742346 0.140337
H15   H     H_    0.974055 0.185053 0.728434 0.165731
H16   H     H_    0.969127 0.299306 0.617139 0.144111
H17   H     H_    0.000216 0.362365 0.392643 0.151849
H18   H     H_    0.302624 0.827060 0.050241 0.152026
H19   H     H_    0.635618 0.595505 0.379316 0.144424
H20   H     H_    0.704983 0.391904 0.651226 0.139479
H21   H     H_    0.360557 0.631560 0.006117 0.067531
H22   H     H_    0.953118 0.217734 0.852601 0.093490
H23   H     H_    0.649913 0.347150 0.949982 0.137601
H24   H     H_    0.949678 0.961050 0.333333 0.026262
H25   H     H_    0.166890 0.786603 0.341787 0.232087
H26   H     H_    0.201058 0.694732 0.435418 0.240612
H27   H     H_    0.119416 0.719286 0.337781 0.243405
H28   H     H_    0.924772 0.603450 0.567883 0.084288
H29   H     H_    0.995861 0.309842 0.322381 0.217637
H30   H     H_    0.054482 0.215076 0.395407 0.250605
H31   H     H_    0.955015 0.236091 0.337103 0.220146
H32   H     H_    0.138490 0.864690 0.996303 0.243402
H33   H     H_    0.138659 0.922690 0.902697 0.242949
H34   H     H_    0.678554 0.191394 0.055287 0.139089
H35   H     H_    0.078841 0.864691 0.904274 0.229485
H36   H     H_    0.098913 0.704928 0.014327 0.072586
H37   H     H_    0.760871 0.289994 0.786723 0.245950
H38   H     H_    0.829294 0.218492 0.814285 0.228937
H39   H     H_    0.856615 0.277734 0.851937 0.230410
H40   H     H_    0.802095 0.328143 0.049993 0.137194
H41   H     H_    0.826029 0.308236 0.944286 0.140430
H42   H     H_    0.854821 0.152406 0.049840 0.148453
H43   H     H_    0.702605 0.171469 0.949726 0.138857
H44   H     H_    0.348453 0.525101 0.587026 0.157316
O1    O     O_R   0.590210 0.447820 0.500000 -0.578469
O2    O     O_R   0.034940 0.555150 0.570020 -0.583307
O3    O     O_R   0.874830 0.535020 0.430000 -0.582765
O4    O     O_R   0.590150 0.552170 0.500020 -0.577530
O5    O     O_R   0.944810 0.465010 0.569970 -0.599206
O6    O     O_R   0.965060 0.444870 0.429980 -0.591771
O7    O     O_R   0.035040 0.374860 0.569950 -0.582202
O8    O     O_R   0.055190 0.535000 0.430030 -0.592265
O9    O     O_R   0.125170 0.465000 0.570000 -0.573337
O10   O     O_R   0.439580 0.508290 0.379070 -0.570616
O11   O     O_R   0.439510 0.612640 0.379090 -0.583866
O12   O     O_R   0.947780 0.909820 0.499990 -0.584351
O13   O     O_R   0.409850 0.447830 0.499980 -0.589388
O14   O     O_R   0.409790 0.552180 0.500000 -0.581376
O15   O     O_R   0.560490 0.387360 0.620910 -0.581133
O16   O     O_R   0.560420 0.491710 0.620930 -0.574449
O17   O     O_R   0.052170 0.909710 0.500000 -0.571845
O18   O     O_2   0.404998 0.587660 0.127185 -0.532844
O19   O     O_2   0.009900 0.259997 0.802126 -0.553509
O20   O     O_2   0.024251 0.988869 0.305717 -0.545446
O21   O     O_2   0.900452 0.667717 0.597423 -0.537228
O22   O     O_2   0.182395 0.650054 0.134153 -0.549819
O23   O     O_R   0.112650 0.939420 0.620930 -0.574719
O24   O     O_R   0.008260 0.939530 0.620910 -0.583563
O25   O     O_R   0.052220 0.090030 0.500010 -0.582813
O26   O     O_R   0.947830 0.090140 0.500000 -0.587627
O27   O     O_R   0.991740 0.060320 0.379090 -0.551547
O28   O     O_R   0.887350 0.060430 0.379070 -0.583803
O29   O     O_R   0.964960 0.625150 0.430050 -0.574270

loop_
_geom_bond_atom_site_label_1
_geom_bond_atom_site_label_2
_ccdc_geom_bond_type
C84   H37   S    
C66   C68   A    
C21   C26   S    
C63   C65   A    
C34   C56   S    
C44   O2    A    
C23   C45   S    
C23   C82   S    
C12   C74   S    
C27   C29   A    
C1    C8    S    
C2    C84   S    
C35   C36   A    
C61   C68   A    
C40   H2    S    
C52   C75   S    
C57   C58   A    
C42   O26   A    
C7    C8    A    
C62   H14   S    
C54   C60   A    
C53   C54   A    
C27   C33   A    
C28   O15   A    
C47   O7    A    
C75   H21   S    
C37   C38   A    
C13   C18   S    
C34   C40   S    
C17   C26   T    
C40   C52   S    
C36   C37   A    
Cu2   O11   S    
Cu1   O15   S    
C16   C35   S    
C30   C31   A    
C45   H18   S    
C15   C25   T    
C14   C24   S    
C39   C57   S    
C79   H27   S    
C84   H38   S    
C48   O9    A    
C2    C85   A    
C18   C19   S    
C82   H33   S    
C70   C81   S    
C82   H35   S    
C30   H5    S    
C13   C14   S    
Cu5   O3    S    
Cu6   O2    S    
C66   C72   A    
C45   C56   S    
C53   H10   S    
C8    C9    A    
C83   O22   D    
C73   C78   T    
C80   O21   D    
C70   C71   A    
Cu3   O23   S    
C20   H42   S    
C1    O1    A    
C9    C10   A    
C74   C83   S    
C38   C48   S    
Cu5   O8    S    
C1    O4    A    
C46   O3    A    
Cu6   O7    S    
C13   H34   S    
C31   H6    S    
C80   H28   S    
C59   C60   A    
Cu2   O16   S    
C71   H17   S    
Cu3   O17   S    
C69   C70   A    
Cu4   O26   S    
C37   H7    S    
C12   C52   S    
Cu4   O24   S    
C65   H16   S    
C12   C67   S    
Cu5   O6    S    
C64   C67   T    
C61   H13   S    
Cu5   O29   S    
Cu2   O4    S    
C6    C11   A    
C29   H4    S    
Cu1   Cu2   S    
C68   C69   A    
C50   C51   A    
C58   C59   A    
C49   C55   A    
C41   C73   S    
C39   O17   A    
C42   C69   S    
Cu6   O5    S    
C48   O8    A    
C81   H30   S    
C51   C53   A    
C17   C43   S    
C62   C63   A    
C75   O18   D    
C31   C32   A    
C81   H29   S    
C23   C34   S    
C4    O11   A    
C19   C22   S    
C76   H22   S    
C13   C21   S    
Cu3   Cu4   S    
C63   H15   S    
C3    C76   S    
C16   O14   A    
Cu1   O1    S    
C20   C22   S    
C65   C66   A    
C32   C38   A    
C55   C57   A    
C22   C24   S    
C34   C78   S    
C23   C74   S    
Cu5   Cu6   S    
C36   H44   S    
C3    C5    A    
C82   H32   S    
C46   O5    A    
Cu6   O9    S    
C9    H19   S    
Cu4   O12   S    
C4    C64   S    
C54   C55   A    
C10   H12   S    
C22   H41   S    
C14   C19   S    
C42   O25   A    
C58   H8    S    
C83   H36   S    
C12   C45   S    
C85   H20   S    
Cu1   O13   S    
C59   C80   S    
C6    C7    A    
C76   O19   D    
C47   O6    A    
C50   H9    S    
C81   H31   S    
C16   O13   A    
C32   C33   A    
C2    C3    A    
C27   H3    S    
C56   H11   S    
C71   C72   A    
C14   H23   S    
C49   C77   S    
C77   O20   D    
C79   H25   S    
C24   H40   S    
C15   C28   S    
C5    C6    A    
C44   C60   S    
Cu3   O27   S    
C4    O10   A    
C79   H26   S    
C84   H39   S    
C33   C35   A    
C40   C74   S    
C18   H43   S    
C18   C20   S    
Cu3   O25   S    
C61   C62   A    
C19   C25   S    
C51   C79   S    
C47   C72   S    
C5    H1    S    
C10   C11   A    
C29   C30   A    
C41   O23   A    
C43   O27   A    
C7    C85   A    
C20   C21   S    
C28   O16   A    
C49   C50   A    
Cu2   O14   S    
C21   C24   S    
C39   O12   A    
Cu1   O10   S    
C11   C46   S    
C44   O29   A    
C77   H24   S    
Cu4   O28   S    
C41   O24   A    
C52   C56   S    
C43   O28   A    
