data_mof_unit_11209.cif
_audit_creation_date              2012-12-10T19:42:58-0500
_audit_creation_method            fapswitch 2.2
_symmetry_space_group_name_H-M    P1
_symmetry_Int_Tables_number       1
_space_group_crystal_system       triclinic
_cell_length_a                    10.813697
_cell_length_b                    12.948178
_cell_length_c                    11.651441
_cell_angle_alpha                 100.096249
_cell_angle_beta                  93.791534
_cell_angle_gamma                 90.879276
_cell_volume                      1602.02665622

loop_
_atom_site_label
_atom_site_type_symbol
_atom_type_description
_atom_site_fract_x
_atom_site_fract_y
_atom_site_fract_z
_atom_type_partial_charge
C1    C     C_R   0.503635 0.299181 0.478203 0.793667
C2    C     C_R   0.496364 0.700819 0.521796 0.793668
C3    C     C_R   0.871575 0.494205 0.499308 -0.081751
C4    C     C_R   0.128425 0.505795 0.500692 -0.081751
C5    C     C_R   0.944325 0.457672 0.588564 0.003107
C6    C     C_R   0.055675 0.542328 0.411436 0.003106
C7    C     C_R   0.485767 0.814208 0.534551 -0.109194
C8    C     C_R   0.514233 0.185792 0.465448 -0.109195
C9    C     C_R   0.591813 0.018440 0.375585 -0.189540
C10   C     C_R   0.408187 0.981560 0.624414 -0.189540
C11   C     C_R   0.584500 0.127180 0.378900 0.123987
C12   C     C_R   0.415500 0.872820 0.621100 0.123986
C13   C     C_R   0.456949 0.136888 0.546533 -0.294587
C14   C     C_R   0.543051 0.863112 0.453466 -0.294586
C15   C     C_R   0.466240 0.029722 0.543036 0.117782
C16   C     C_R   0.533760 0.970277 0.456963 0.117782
C17   C     C_R   0.380984 0.402450 0.021294 -0.351054
C18   C     C_R   0.619016 0.597550 0.978705 -0.351052
C19   C     C_R   0.392652 0.411697 0.143661 0.103645
C20   C     C_R   0.607348 0.588303 0.856339 0.103643
C21   C     C_R   0.551602 0.542157 0.157397 0.026304
C22   C     C_R   0.448398 0.457843 0.842603 0.026304
C23   C     C_R   0.262266 0.503108 0.500461 0.788277
C24   C     C_R   0.737734 0.496892 0.499539 0.788277
C25   C     C_R   0.543280 0.535433 0.034427 0.063416
C26   C     C_R   0.456720 0.464567 0.965573 0.063417
C27   C     C_R   0.241183 0.725069 0.262621 -0.109799
C28   C     C_R   0.758817 0.274925 0.737374 -0.109800
C29   C     C_R   0.185866 0.682198 0.349434 -0.103542
C30   C     C_R   0.814133 0.317801 0.650562 -0.103539
C31   C     C_R   0.109915 0.591070 0.319331 0.125450
C32   C     C_R   0.890085 0.408928 0.680667 0.125449
C33   C     C_R   0.087691 0.545190 0.201043 -0.161296
C34   C     C_R   0.912312 0.454804 0.798957 -0.161297
C35   C     C_R   0.142929 0.588507 0.114488 -0.138890
C36   C     C_R   0.857076 0.411483 0.885510 -0.138889
C37   C     C_R   0.220130 0.678022 0.145291 -0.109139
C38   C     C_R   0.779873 0.321968 0.854705 -0.109141
C39   C     C_R   0.927570 0.534847 0.411302 -0.242868
C40   C     C_R   0.072430 0.465153 0.588698 -0.242867
Cu1   Cu    Cu3+1 0.509250 0.507730 0.615930 0.932874
Cu2   Cu    Cu3+1 0.490750 0.492270 0.384070 0.932874
H1    H     H_    0.263576 0.710925 0.078238 0.124384
H2    H     H_    0.736429 0.289062 0.921756 0.124384
H3    H     H_    0.382183 0.403504 0.788722 0.112679
H4    H     H_    0.617817 0.596496 0.211278 0.112679
H5    H     H_    0.666210 0.636363 0.814190 0.124875
H6    H     H_    0.333790 0.363637 0.185809 0.124875
H7    H     H_    0.313181 0.347282 0.970826 0.134094
H8    H     H_    0.686819 0.652718 0.029174 0.134094
H9    H     H_    0.300787 0.794506 0.286390 0.133741
H10   H     H_    0.699213 0.205490 0.713603 0.133742
H11   H     H_    0.203367 0.719057 0.440056 0.097000
H12   H     H_    0.796630 0.280944 0.559939 0.096999
H13   H     H_    0.029491 0.474945 0.176179 0.118617
H14   H     H_    0.970513 0.525047 0.823823 0.118617
H15   H     H_    0.126745 0.552137 0.023610 0.124456
H16   H     H_    0.873262 0.447850 0.976389 0.124456
H17   H     H_    0.871285 0.564527 0.344284 0.148804
H18   H     H_    0.128715 0.435473 0.655716 0.148804
H19   H     H_    0.595687 0.817186 0.387362 0.147130
H20   H     H_    0.404312 0.182813 0.612637 0.147130
H21   H     H_    0.642913 0.970165 0.310604 0.146463
H22   H     H_    0.357086 0.029835 0.689395 0.146464
N1    N     N_R   0.523180 0.519350 0.790130 -0.176415
N2    N     N_R   0.476820 0.480650 0.209870 -0.176414
O1    O     O_R   0.506570 0.354460 0.582000 -0.576922
O2    O     O_R   0.493430 0.645540 0.418000 -0.576923
O3    O     O_R   0.490940 0.341410 0.386200 -0.600012
O4    O     O_R   0.509060 0.658590 0.613800 -0.600012
O5    O     O_R   0.327460 0.506540 0.597900 -0.596656
O6    O     O_R   0.672540 0.493460 0.402100 -0.596656
O7    O     O_R   0.311830 0.493480 0.402100 -0.569390
O8    O     O_R   0.688170 0.506520 0.597900 -0.569390
C41   C     C_3   0.347627 0.818123 0.705599 -0.358313
C42   C     C_3   0.255106 0.884188 0.778665 -0.891496
H23   H     H_    0.304019 0.948848 0.841225 0.248828
H24   H     H_    0.185239 0.916414 0.721186 0.256155
H25   H     H_    0.205726 0.833993 0.830034 0.246031
H26   H     H_    0.294753 0.748859 0.654684 0.198037
H27   H     H_    0.417083 0.789982 0.766810 0.221061
C43   C     C_3   0.652373 0.181877 0.294401 -0.358315
C44   C     C_3   0.744895 0.115812 0.221337 -0.891501
H28   H     H_    0.814761 0.083587 0.278816 0.256156
H29   H     H_    0.695984 0.051152 0.158777 0.248829
H30   H     H_    0.794275 0.166008 0.169969 0.246031
H31   H     H_    0.582917 0.210016 0.233189 0.221061
H32   H     H_    0.705245 0.251142 0.345315 0.198038

loop_
_geom_bond_atom_site_label_1
_geom_bond_atom_site_label_2
_ccdc_geom_bond_type
C33   H13   S    
C34   H14   S    
C8    C13   A    
C40   H18   S    
C21   N2    A    
C27   C29   A    
C1    C8    S    
Cu1   Cu2   S    
C2    C7    S    
C42   H25   S    
Cu1   O1    S    
C30   H12   S    
C24   O6    A    
C17   C26   A    
C35   C37   A    
C9    C16   A    
C42   H24   S    
C2    O2    A    
C10   C15   A    
C15   C16   A    
C19   N2    A    
C1    O1    A    
Cu1   O8    S    
C7    C14   A    
C13   H20   S    
C4    C40   A    
C31   C33   A    
C41   H26   S    
C34   C36   A    
Cu1   O5    S    
C5    C32   S    
C6    C31   S    
C3    C39   A    
Cu2   O2    S    
C3    C24   S    
C18   C25   A    
C23   O7    A    
C27   H9    S    
C11   C43   S    
C7    C12   A    
C23   O5    A    
C20   N1    A    
C42   H23   S    
C4    C6    A    
C17   H7    S    
C4    C23   S    
C19   H6    S    
C41   H27   S    
Cu1   N1    S    
C25   C26   A    
C14   H19   S    
Cu2   O3    S    
C1    O3    A    
C32   C34   A    
C37   H1    S    
C41   C42   S    
C22   N1    A    
C38   H2    S    
C44   H28   S    
C28   C38   A    
C39   H17   S    
C22   H3    S    
Cu2   O6    S    
C9    C11   A    
C10   C12   A    
C44   H29   S    
C13   C15   A    
C14   C16   A    
C12   C41   S    
C17   C19   A    
C18   H8    S    
C21   H4    S    
C21   C25   A    
Cu2   O7    S    
C9    H21   S    
C10   H22   S    
C3    C5    A    
C36   H16   S    
C35   H15   S    
C36   C38   A    
C29   C31   A    
C30   C32   A    
C28   H10   S    
C24   O8    A    
C29   H11   S    
C27   C37   A    
C8    C11   A    
C43   H32   S    
C28   C30   A    
C33   C35   A    
C18   C20   A    
C20   H5    S    
C44   H30   S    
C43   C44   S    
C22   C26   A    
C5    C40   A    
Cu2   N2    S    
C6    C39   A    
C2    O4    A    
C43   H31   S    
Cu1   O4    S    
