data_mof_unit_43705.cif
_audit_creation_date              2012-12-11T15:42:57-0500
_audit_creation_method            fapswitch 2.2
_symmetry_space_group_name_H-M    P1
_symmetry_Int_Tables_number       1
_space_group_crystal_system       triclinic
_cell_length_a                    18.989261
_cell_length_b                    10.974499
_cell_length_c                    18.773601
_cell_angle_alpha                 89.670445
_cell_angle_beta                  89.944094
_cell_angle_gamma                 90.001655
_cell_volume                      3912.30729522

loop_
_atom_site_label
_atom_site_type_symbol
_atom_type_description
_atom_site_fract_x
_atom_site_fract_y
_atom_site_fract_z
_atom_type_partial_charge
C1    C     C_R   0.711290 0.329469 0.138751 0.568880
C2    C     C_R   0.269859 0.375620 0.854267 0.548091
C3    C     C_R   0.211290 0.829469 0.138751 0.568880
C4    C     C_R   0.769859 0.875620 0.854267 0.548091
C5    C     C_R   0.489603 0.396563 0.931987 -0.086547
C6    C     C_R   0.471162 0.379449 0.078892 -0.095787
C7    C     C_R   0.989603 0.896563 0.931987 -0.086547
C8    C     C_R   0.971162 0.879449 0.078892 -0.095787
C9    C     C_R   0.977352 0.001209 0.971943 -0.138618
C10   C     C_R   0.966485 0.992276 0.044955 -0.129227
C11   C     C_R   0.477352 0.501209 0.971943 -0.138618
C12   C     C_R   0.466485 0.492276 0.044955 -0.129227
C13   C     C_R   0.752578 0.906682 0.926632 0.018762
C14   C     C_R   0.220957 0.843192 0.061951 0.014506
C15   C     C_R   0.252578 0.406682 0.926632 0.018762
C16   C     C_R   0.720957 0.343192 0.061951 0.014506
C17   C     C_R   0.722192 0.817398 0.970886 0.039479
C18   C     C_R   0.285163 0.817811 0.028741 0.007997
C19   C     C_R   0.222192 0.317398 0.970886 0.039479
C20   C     C_R   0.785163 0.317811 0.028741 0.007997
C21   C     C_R   0.721880 0.830293 0.044070 0.007593
C22   C     C_R   0.295501 0.844579 0.957301 0.004074
C23   C     C_R   0.221880 0.330293 0.044070 0.007593
C24   C     C_R   0.795501 0.344579 0.957301 0.004074
C25   C     C_R   0.792863 0.010963 0.031132 -0.138211
C26   C     C_R   0.174143 0.904516 0.946768 -0.157385
C27   C     C_R   0.292863 0.510963 0.031132 -0.138211
C28   C     C_R   0.674142 0.404516 0.946768 -0.157385
C29   C     C_R   0.790520 0.001214 0.957982 -0.143799
C30   C     C_R   0.163977 0.878275 0.018998 -0.157542
C31   C     C_R   0.290520 0.501214 0.957982 -0.143799
C32   C     C_R   0.663977 0.378275 0.018998 -0.157542
C33   C     C_3   0.649393 0.765362 0.971396 -0.270867
C34   C     C_3   0.357722 0.857766 0.048307 -0.268371
C35   C     C_3   0.149393 0.265361 0.971396 -0.270867
C36   C     C_3   0.857722 0.357766 0.048307 -0.268371
C37   C     C_3   0.650246 0.777032 0.052066 -0.280251
C38   C     C_3   0.368898 0.887348 0.970146 -0.261796
C39   C     C_3   0.150246 0.277032 0.052066 -0.280251
C40   C     C_3   0.868898 0.387348 0.970146 -0.261796
C41   C     C_R   0.753894 0.931097 0.075089 0.021829
C42   C     C_R   0.241938 0.898206 0.916799 0.015003
C43   C     C_R   0.253894 0.431097 0.075089 0.021829
C44   C     C_R   0.741938 0.398206 0.916799 0.015003
C45   C     C_R   0.530997 0.155152 0.147013 0.532682
C46   C     C_R   0.468719 0.156354 0.853150 0.537578
C47   C     C_R   0.030997 0.655152 0.147013 0.532682
C48   C     C_R   0.968719 0.656354 0.853150 0.537578
C49   C     C_R   0.501963 0.162076 0.577488 0.019099
C50   C     C_R   0.512005 0.165047 0.428191 0.017463
C51   C     C_R   0.001963 0.662076 0.577488 0.019099
C52   C     C_R   0.012005 0.665047 0.428191 0.017463
C53   C     C_R   0.508469 0.053971 0.538851 0.025548
C54   C     C_R   0.511396 0.056731 0.466341 0.021085
C55   C     C_R   0.008469 0.553971 0.538851 0.025548
C56   C     C_R   0.011396 0.556731 0.466341 0.021085
C57   C     C_R   0.516636 0.274684 0.466683 -0.163081
C58   C     C_R   0.512822 0.272943 0.541472 -0.173789
C59   C     C_R   0.016636 0.774684 0.466683 -0.163081
C60   C     C_R   0.012822 0.772943 0.541472 -0.173789
C61   C     C_3   0.464504 0.940338 0.537381 -0.266107
C62   C     C_3   0.467766 0.945732 0.456938 -0.283159
C63   C     C_3   0.964504 0.440338 0.537381 -0.266107
C64   C     C_3   0.967766 0.445732 0.456938 -0.283159
C65   C     C_R   0.748933 0.943570 0.582724 0.009129
C66   C     C_R   0.251426 0.918654 0.421979 0.006377
C67   C     C_R   0.248933 0.443570 0.582724 0.009129
C68   C     C_R   0.751426 0.418654 0.421979 0.006377
C69   C     C_R   0.800348 0.010550 0.545374 0.043662
C70   C     C_R   0.218840 0.018044 0.453492 0.028503
C71   C     C_R   0.300348 0.510550 0.545374 0.043662
C72   C     C_R   0.718840 0.518044 0.453492 0.028503
C73   C     C_R   0.791872 0.036158 0.474191 0.002277
C74   C     C_R   0.220455 0.032813 0.526023 0.028453
C75   C     C_R   0.291872 0.536158 0.474191 0.002277
C76   C     C_R   0.720455 0.532813 0.526023 0.028453
C77   C     C_R   0.674169 0.956898 0.478101 -0.168217
C78   C     C_R   0.291353 0.852543 0.539053 -0.178746
C79   C     C_R   0.174169 0.456898 0.478101 -0.168217
C80   C     C_R   0.791353 0.352543 0.539053 -0.178746
C81   C     C_R   0.682987 0.926668 0.550496 -0.165101
C82   C     C_R   0.292961 0.841446 0.464967 -0.172107
C83   C     C_R   0.182987 0.426668 0.550496 -0.165101
C84   C     C_R   0.792961 0.341446 0.464967 -0.172107
C85   C     C_3   0.877302 0.983118 0.534585 -0.123584
C86   C     C_3   0.145432 0.066070 0.447667 -0.142007
C87   C     C_3   0.377302 0.483118 0.534585 -0.123584
C88   C     C_3   0.645432 0.566070 0.447667 -0.142007
C89   C     C_R   0.741896 0.970006 0.147527 0.549165
C90   C     C_R   0.257866 0.967112 0.851902 0.544898
C91   C     C_R   0.241896 0.470006 0.147527 0.549165
C92   C     C_R   0.757866 0.467112 0.851902 0.544898
C93   C     C_3   0.867005 0.009768 0.456176 -0.246401
C94   C     C_3   0.147504 0.084071 0.527796 -0.244824
C95   C     C_3   0.367005 0.509768 0.456176 -0.246401
C96   C     C_3   0.647504 0.584071 0.527796 -0.244824
C97   C     C_R   0.731035 0.002934 0.438062 0.002380
C98   C     C_R   0.251906 0.945419 0.570227 0.016802
C99   C     C_R   0.231035 0.502934 0.438062 0.002380
C100  C     C_R   0.751906 0.445420 0.570227 0.016802
C101  C     C_R   0.729952 0.377808 0.352332 0.553970
C102  C     C_R   0.269920 0.381499 0.648359 0.541938
C103  C     C_R   0.229952 0.877808 0.352332 0.553970
C104  C     C_R   0.769919 0.881499 0.648359 0.541938
C105  C     C_R   0.533078 0.157219 0.354156 0.540674
C106  C     C_R   0.468476 0.156806 0.646935 0.542691
C107  C     C_R   0.033078 0.657219 0.354156 0.540674
C108  C     C_R   0.968476 0.656806 0.646935 0.542691
C109  C     C_R   0.727391 0.022899 0.361227 0.567795
C110  C     C_R   0.258694 0.973870 0.644802 0.543925
C111  C     C_R   0.227390 0.522899 0.361227 0.567796
C112  C     C_R   0.758694 0.473870 0.644802 0.543925
C113  C     C_R   0.497811 0.169119 0.925126 -0.001720
C114  C     C_R   0.503159 0.161557 0.074335 -0.001577
C115  C     C_R   0.997811 0.669119 0.925126 -0.001720
C116  C     C_R   0.003158 0.661557 0.074335 -0.001577
C117  C     C_R   0.491588 0.279788 0.964631 0.030743
C118  C     C_R   0.488128 0.273446 0.040045 0.011198
C119  C     C_R   0.991588 0.779788 0.964631 0.030743
C120  C     C_R   0.988128 0.773446 0.040045 0.011198
C121  C     C_R   0.511389 0.055791 0.033730 -0.155319
C122  C     C_R   0.511539 0.060278 0.960845 -0.169293
C123  C     C_R   0.011389 0.555791 0.033730 -0.155319
C124  C     C_R   0.011539 0.560279 0.960845 -0.169293
Cr1   Cr    Cr6+3 0.772010 0.169670 0.250090 0.995494
Cr2   Cr    Cr6+3 0.227990 0.169670 0.749910 1.005718
Cr3   Cr    Cr6+3 0.272010 0.669670 0.250090 0.995494
Cr4   Cr    Cr6+3 0.727990 0.669670 0.749910 1.005718
Cr5   Cr    Cr6+3 0.615000 0.323260 0.249260 0.989063
Cr6   Cr    Cr6+3 0.385000 0.323260 0.750740 0.995434
Cr7   Cr    Cr6+3 0.115000 0.823260 0.249260 0.989063
Cr8   Cr    Cr6+3 0.885000 0.823260 0.750740 0.995434
Cr9   Cr    Cr6+3 0.616710 0.010760 0.250840 0.994448
Cr10  Cr    Cr6+3 0.383290 0.010760 0.749160 1.003091
Cr11  Cr    Cr6+3 0.116710 0.510760 0.250840 0.994448
Cr12  Cr    Cr6+3 0.883290 0.510760 0.749160 1.003091
H1    H     H_    0.519819 0.967779 0.058232 0.137154
H2    H     H_    0.517182 0.975207 0.932457 0.130045
H3    H     H_    0.019819 0.467779 0.058232 0.137154
H4    H     H_    0.017182 0.475207 0.932457 0.130045
H5    H     H_    0.521063 0.360824 0.439102 0.121389
H6    H     H_    0.512666 0.357624 0.570426 0.122050
H7    H     H_    0.021063 0.860824 0.439102 0.121389
H8    H     H_    0.012666 0.857624 0.570426 0.122050
H9    H     H_    0.910926 0.456085 0.558341 0.179588
H10   H     H_    0.997671 0.369149 0.433249 0.132844
H11   H     H_    0.410926 0.956085 0.558341 0.179588
H12   H     H_    0.497671 0.869149 0.433249 0.132844
H13   H     H_    0.492666 0.860527 0.560416 0.124615
H14   H     H_    0.416401 0.966353 0.431293 0.147427
H15   H     H_    0.992666 0.360527 0.560416 0.124615
H16   H     H_    0.916400 0.466353 0.431293 0.147427
H17   H     H_    0.625573 0.933995 0.451968 0.143048
H18   H     H_    0.319940 0.788991 0.572172 0.126699
H19   H     H_    0.125573 0.433995 0.451968 0.143048
H20   H     H_    0.819940 0.288991 0.572172 0.126699
H21   H     H_    0.640609 0.882279 0.579168 0.120907
H22   H     H_    0.322019 0.767045 0.441893 0.142759
H23   H     H_    0.140608 0.382279 0.579168 0.120907
H24   H     H_    0.822019 0.267045 0.441893 0.142759
H25   H     H_    0.889636 0.886086 0.545697 0.166268
H26   H     H_    0.106193 0.997114 0.431643 0.162176
H27   H     H_    0.389636 0.386086 0.545697 0.166269
H28   H     H_    0.606193 0.497114 0.431643 0.162176
H29   H     H_    0.895510 0.091436 0.435945 0.134958
H30   H     H_    0.146937 0.180479 0.544754 0.146687
H31   H     H_    0.395510 0.591436 0.435945 0.134958
H32   H     H_    0.646937 0.680479 0.544754 0.146687
H33   H     H_    0.873092 0.927189 0.422629 0.143766
H34   H     H_    0.110223 0.024029 0.557216 0.120212
H35   H     H_    0.373092 0.427189 0.422629 0.143766
H36   H     H_    0.610223 0.524029 0.557216 0.120212
H37   H     H_    0.501326 0.410079 0.876236 0.131488
H38   H     H_    0.461201 0.376063 0.135590 0.134921
H39   H     H_    0.001326 0.910079 0.876236 0.131488
H40   H     H_    0.961201 0.876063 0.135590 0.134921
H41   H     H_    0.976034 0.089593 0.946060 0.100065
H42   H     H_    0.955380 0.073262 0.075601 0.105206
H43   H     H_    0.476034 0.589593 0.946060 0.100065
H44   H     H_    0.455380 0.573262 0.075601 0.105206
H45   H     H_    0.821859 0.086847 0.052715 0.145745
H46   H     H_    0.130779 0.942190 0.916591 0.130089
H47   H     H_    0.321859 0.586847 0.052715 0.145745
H48   H     H_    0.630779 0.442190 0.916591 0.130089
H49   H     H_    0.819869 0.066291 0.926003 0.138054
H50   H     H_    0.113075 0.894798 0.042486 0.153560
H51   H     H_    0.319869 0.566291 0.926003 0.138054
H52   H     H_    0.613074 0.394798 0.042486 0.153560
H53   H     H_    0.148440 0.169239 0.953265 0.156972
H54   H     H_    0.890944 0.280986 0.067457 0.123996
H55   H     H_    0.648439 0.669239 0.953265 0.156972
H56   H     H_    0.390944 0.780987 0.067457 0.123996
H57   H     H_    0.610503 0.826067 0.944905 0.122740
H58   H     H_    0.358011 0.939745 0.082876 0.156234
H59   H     H_    0.110503 0.326067 0.944905 0.122740
H60   H     H_    0.858011 0.439745 0.082876 0.156234
H61   H     H_    0.611404 0.842847 0.073028 0.151452
H62   H     H_    0.374644 0.986545 0.959545 0.167514
H63   H     H_    0.111404 0.342847 0.073028 0.151452
H64   H     H_    0.874644 0.486545 0.959545 0.167514
H65   H     H_    0.651408 0.687484 0.080047 0.151850
H66   H     H_    0.408647 0.827888 0.944203 0.128403
H67   H     H_    0.151408 0.187484 0.080047 0.151850
H68   H     H_    0.908647 0.327888 0.944203 0.128403
O1    O     O_R   0.787520 0.042810 0.170440 -0.535532
O2    O     O_R   0.212480 0.042810 0.829560 -0.529980
O3    O     O_R   0.287520 0.542810 0.170440 -0.535532
O4    O     O_R   0.712480 0.542810 0.829560 -0.529980
O5    O     O_R   0.556610 0.252880 0.323980 -0.509914
O6    O     O_R   0.443390 0.252880 0.676020 -0.511278
O7    O     O_R   0.056610 0.752880 0.323980 -0.509914
O8    O     O_R   0.943390 0.752880 0.676020 -0.511278
O9    O     O_R   0.545950 0.051210 0.330860 -0.524317
O10   O     O_R   0.454050 0.051210 0.669140 -0.524066
O11   O     O_R   0.045950 0.551210 0.330860 -0.524317
O12   O     O_R   0.954050 0.551210 0.669140 -0.524066
O13   O     O_R   0.681390 0.959480 0.325510 -0.508871
O14   O     O_R   0.318610 0.959480 0.674490 -0.512586
O15   O     O_R   0.181390 0.459480 0.325510 -0.508871
O16   O     O_R   0.818610 0.459480 0.674490 -0.512587
O17   O     O_3   0.667900 0.167900 0.250060 -0.281195
O18   O     O_3   0.332100 0.167900 0.749940 -0.240233
O19   O     O_3   0.167900 0.667900 0.250060 -0.281195
O20   O     O_3   0.832100 0.667900 0.749940 -0.240233
O21   O     O_R   0.765640 0.292100 0.175020 -0.500796
O22   O     O_R   0.234360 0.292100 0.824980 -0.500184
O23   O     O_R   0.265640 0.792100 0.175020 -0.500796
O24   O     O_R   0.734360 0.792100 0.824980 -0.500184
O25   O     O_R   0.670190 0.408840 0.168540 -0.520264
O26   O     O_R   0.329810 0.408840 0.831460 -0.522105
O27   O     O_R   0.170190 0.908840 0.168540 -0.520264
O28   O     O_R   0.829810 0.908840 0.831460 -0.522105
O29   O     O_R   0.556620 0.251410 0.175160 -0.523641
O30   O     O_R   0.443380 0.251410 0.824840 -0.509676
O31   O     O_R   0.056620 0.751410 0.175160 -0.523641
O32   O     O_R   0.943380 0.751410 0.824840 -0.509676
O33   O     O_R   0.545960 0.049620 0.170320 -0.524475
O34   O     O_R   0.454040 0.049620 0.829680 -0.525251
O35   O     O_R   0.045960 0.549620 0.170320 -0.524475
O36   O     O_R   0.954040 0.549620 0.829680 -0.525251
O37   O     O_R   0.681390 0.958010 0.176690 -0.497353
O38   O     O_R   0.318610 0.958010 0.823310 -0.497673
O39   O     O_R   0.181390 0.458010 0.176690 -0.497353
O40   O     O_R   0.818610 0.458010 0.823310 -0.497673
O41   O     O_R   0.787510 0.044390 0.330970 -0.522455
O42   O     O_R   0.212490 0.044390 0.669030 -0.520777
O43   O     O_R   0.287510 0.544390 0.330970 -0.522455
O44   O     O_R   0.712490 0.544390 0.669030 -0.520777
O45   O     O_R   0.765630 0.293570 0.323840 -0.519434
O46   O     O_R   0.234370 0.293570 0.676160 -0.504720
O47   O     O_R   0.265630 0.793570 0.323840 -0.519434
O48   O     O_R   0.734370 0.793570 0.676160 -0.504720
O49   O     O_R   0.670190 0.410420 0.329080 -0.522519
O50   O     O_R   0.329810 0.410420 0.670920 -0.526494
O51   O     O_R   0.170190 0.910420 0.329080 -0.522519
O52   O     O_R   0.829810 0.910420 0.670920 -0.526494
C125  C     C_3   0.927035 0.073653 0.570853 -0.404779
H69   H     H_    0.926544 0.059893 0.629407 0.165621
H70   H     H_    0.981430 0.059812 0.551045 0.109374
H71   H     H_    0.912443 0.169041 0.558573 0.126435
C126  C     C_3   0.141986 0.182656 0.403275 -0.388612
H72   H     H_    0.187807 0.242163 0.414441 0.165414
H73   H     H_    0.142805 0.159529 0.345803 0.163102
H74   H     H_    0.092271 0.231443 0.414949 0.114289
C127  C     C_3   0.427035 0.573653 0.570853 -0.404779
H75   H     H_    0.426543 0.559894 0.629407 0.165621
H76   H     H_    0.481430 0.559812 0.551045 0.109374
H77   H     H_    0.412443 0.669041 0.558573 0.126435
C128  C     C_3   0.641986 0.682656 0.403275 -0.388612
H78   H     H_    0.687807 0.742163 0.414441 0.165414
H79   H     H_    0.642805 0.659529 0.345803 0.163102
H80   H     H_    0.592271 0.731443 0.414949 0.114289

loop_
_geom_bond_atom_site_label_1
_geom_bond_atom_site_label_2
_ccdc_geom_bond_type
C87   H27   S    
C55   C56   A    
C88   C96   S    
C67   C83   A    
C93   H29   S    
C98   C110  S    
C116  C123  A    
C39   H67   S    
Cr2   O42   S    
C103  O51   A    
C14   C18   A    
C101  O49   A    
Cr8   O8    S    
C73   C93   S    
C72   C76   A    
C7    H39   S    
C94   H30   S    
C31   H51   S    
C84   H24   S    
C75   C95   S    
C123  C124  A    
C74   C98   A    
C22   C42   A    
C53   C54   A    
C65   C69   A    
C15   C19   A    
Cr4   O20   S    
C93   H33   S    
Cr4   O48   S    
C17   C33   S    
C64   H16   S    
C59   H7    S    
C36   H54   S    
C30   H50   S    
C13   C29   A    
C16   C20   A    
C65   C104  S    
C45   O29   A    
Cr2   O46   S    
C5    C11   A    
Cr7   O19   S    
C6    C12   A    
C126  H72   S    
C82   H22   S    
Cr7   O51   S    
C107  O7    A    
Cr6   O26   S    
C11   H43   S    
C121  H1    S    
Cr11  O19   S    
C22   C38   S    
Cr5   O25   S    
Cr2   O18   S    
C105  O5    A    
Cr6   O30   S    
C112  O44   A    
C125  H69   S    
Cr11  O39   S    
C4    C13   S    
Cr3   O3    S    
C85   H25   S    
Cr10  O38   S    
C86   C94   S    
Cr9   O37   S    
C79   C99   A    
C114  C121  A    
C85   C93   S    
C45   C114  S    
C89   O1    A    
C113  C122  A    
C40   H68   S    
C52   C107  S    
C29   H49   S    
C51   C108  S    
Cr10  O18   S    
C55   C63   S    
C70   C74   A    
C50   C105  S    
Cr9   O17   S    
C96   H32   S    
C69   C73   A    
C99   C111  S    
C86   H26   S    
C89   O37   A    
C37   H61   S    
C127  H75   S    
C67   C102  S    
C86   C126  S    
Cr3   O47   S    
C44   C92   S    
Cr3   O19   S    
C58   H6    S    
C77   H17   S    
C34   H58   S    
C46   O34   A    
C72   C88   S    
C109  O41   A    
C59   C60   A    
C35   H53   S    
C62   H12   S    
C128  H78   S    
C80   C100  A    
Cr3   O23   S    
Cr10  O34   S    
Cr8   O20   S    
C38   H62   S    
Cr2   O22   S    
Cr9   O33   S    
C14   C30   A    
C111  O15   A    
Cr1   O21   S    
Cr8   O28   S    
C75   C99   A    
C34   C38   S    
C108  O8    A    
C25   H45   S    
C80   H20   S    
C47   O31   A    
C18   C34   S    
C38   H66   S    
C25   C29   A    
C47   C116  S    
C106  O10   A    
Cr11  O11   S    
C71   C75   A    
C105  O9    A    
C32   H52   S    
C27   C31   A    
C80   C84   A    
C10   H42   S    
C11   C12   A    
C20   C24   A    
C76   C100  A    
C28   C32   A    
Cr6   O18   S    
C81   H21   S    
C68   C101  S    
C122  H2    S    
Cr5   O17   S    
C3    O27   A    
C126  H73   S    
Cr12  O40   S    
C78   H18   S    
C20   C36   S    
C6    H38   S    
C51   C55   A    
Cr7   O31   S    
C42   C90   S    
Cr10  O14   S    
C79   H19   S    
C15   C31   A    
C28   C44   A    
C43   C91   S    
C49   C58   A    
C116  C120  A    
Cr5   O29   S    
C68   C72   A    
C102  O50   A    
C68   C84   A    
C19   C23   A    
C17   C21   A    
C36   H60   S    
C78   C98   A    
Cr7   O27   S    
C92   O4    A    
C52   C59   A    
C7    C119  A    
C66   C82   A    
C97   C109  S    
C78   C82   A    
C65   C81   A    
Cr12  O20   S    
C36   C40   S    
Cr4   O24   S    
Cr3   O43   S    
Cr11  O15   S    
C46   O30   A    
C56   C64   S    
C112  O16   A    
Cr1   O17   S    
C83   H23   S    
C1    C16   S    
C108  O12   A    
C77   C97   A    
C2    C15   S    
C127  H76   S    
C63   H15   S    
C121  C122  A    
C114  C118  A    
Cr4   O44   S    
C40   H64   S    
C87   C127  S    
C48   C115  S    
C21   C41   A    
Cr6   O50   S    
C8    C10   A    
C12   H44   S    
Cr5   O49   S    
C73   C97   A    
C115  C119  A    
C94   H34   S    
C128  H79   S    
C102  O46   A    
Cr7   O7    S    
C24   C44   A    
C123  H3    S    
C71   C87   S    
Cr6   O6    S    
C3    C14   S    
Cr8   O52   S    
Cr5   O5    S    
C70   C86   S    
C3    O23   A    
C26   H46   S    
C69   C85   S    
C8    C120  A    
C4    O28   A    
C33   C37   S    
C9    C10   A    
C113  C117  A    
C1    O21   A    
C104  O48   A    
C7    C9    A    
C27   C43   A    
C39   H63   S    
C87   C95   S    
C24   C40   S    
C115  C124  A    
C62   H14   S    
C46   C113  S    
C64   H10   S    
C41   C89   S    
C18   C22   A    
C23   C43   A    
C5    H37   S    
C66   C103  S    
C124  H4    S    
C101  O45   A    
C90   O2    A    
C91   O39   A    
C63   C64   S    
Cr1   O1    S    
C107  O11   A    
C95   H31   S    
C126  H74   S    
C91   O3    A    
C119  C120  A    
C8    H40   S    
C100  C112  S    
C49   C106  S    
Cr12  O16   S    
C35   H59   S    
C16   C32   A    
C45   O33   A    
C54   C62   S    
C48   O36   A    
C104  O52   A    
C57   H5    S    
C33   H55   S    
C125  H71   S    
Cr9   O9    S    
C90   O38   A    
C61   H11   S    
C103  O47   A    
C50   C54   A    
Cr12  O36   S    
C88   H28   S    
C117  C118  A    
C60   H8    S    
C79   C83   A    
C50   C57   A    
C110  O42   A    
C57   C58   A    
C66   C70   A    
C61   H13   S    
Cr1   O45   S    
Cr2   O2    S    
C92   O40   A    
C23   C39   S    
C35   C39   S    
C34   H56   S    
C48   O32   A    
C47   O35   A    
Cr11  O35   S    
C67   C71   A    
C53   C61   S    
C4    O24   A    
C26   C42   A    
C28   H48   S    
C61   C62   S    
C110  O14   A    
C127  H77   S    
C27   H47   S    
C49   C53   A    
C109  O13   A    
C2    O26   A    
C33   H57   S    
C13   C17   A    
Cr8   O32   S    
C1    O25   A    
C88   C128  S    
C21   C37   S    
C2    O22   A    
Cr10  O10   S    
C111  O43   A    
C77   C81   A    
C96   H36   S    
C128  H80   S    
C5    C117  A    
C74   C94   S    
C37   H65   S    
C25   C41   A    
C19   C35   S    
C51   C60   A    
Cr4   O4    S    
Cr1   O41   S    
C85   C125  S    
C125  H70   S    
C95   H35   S    
C63   H9    S    
C76   C96   S    
C52   C56   A    
C9    H41   S    
C6    C118  A    
Cr9   O13   S    
Cr12  O12   S    
C26   C30   A    
C106  O6    A    
