data_mof_unit_41915.cif
_audit_creation_date              2012-12-11T14:52:35-0500
_audit_creation_method            fapswitch 2.2
_symmetry_space_group_name_H-M    P1
_symmetry_Int_Tables_number       1
_space_group_crystal_system       triclinic
_cell_length_a                    8.249671
_cell_length_b                    15.069882
_cell_length_c                    26.977849
_cell_angle_alpha                 97.226268
_cell_angle_beta                  92.525702
_cell_angle_gamma                 80.68643
_cell_volume                      3282.46329968

loop_
_atom_site_label
_atom_site_type_symbol
_atom_type_description
_atom_site_fract_x
_atom_site_fract_y
_atom_site_fract_z
_atom_type_partial_charge
Ba1   Ba    Ba6+2 0.860900 0.457020 0.523210 1.661974
Ba2   Ba    Ba6+2 0.328940 0.542910 0.476780 1.663154
C1    C     C_3   0.787109 0.131025 0.664441 -0.301619
C2    C     C_R   0.975197 0.592978 0.185560 0.584426
C3    C     C_2   0.772448 0.577049 0.275003 -0.107216
C4    C     C_3   0.227479 0.224344 0.655770 0.276570
C5    C     C_3   0.739505 0.598791 0.330332 -0.055512
C6    C     C_1   0.984696 0.485940 0.343853 0.030168
C7    C     C_2   0.022391 0.474841 0.295706 -0.088775
C8    C     C_2   0.911180 0.522432 0.258442 0.216641
C9    C     C_R   0.024363 0.506119 0.103350 -0.078342
C10   C     C_R   0.009617 0.427165 0.124756 -0.038709
C11   C     C_R   0.028515 0.344202 0.094102 -0.055028
C12   C     C_3   0.732693 0.217626 0.640603 0.360227
C13   C     C_R   0.006263 0.589520 0.134160 -0.033046
C14   C     C_2   0.851888 0.539047 0.362307 -0.271249
C15   C     C_2   0.347143 0.470831 0.639193 -0.261748
C16   C     C_3   0.345655 0.145843 0.674447 -0.276962
C17   C     C_R   0.110411 0.412609 0.968562 0.018883
C18   C     C_R   0.104094 0.578150 0.978297 0.019148
C19   C     C_R   0.124292 0.493241 0.947716 0.051794
C20   C     C_R   0.131259 0.330064 0.936264 -0.099396
C21   C     C_R   0.165135 0.326722 0.885849 -0.049618
C22   C     C_R   0.180080 0.405352 0.864906 -0.036268
C23   C     C_3   0.490497 0.668346 0.628331 0.284863
C24   C     C_R   0.159067 0.488908 0.895685 -0.079292
C25   C     C_R   0.173036 0.568103 0.874411 -0.036089
C26   C     C_R   0.209673 0.562652 0.823126 0.596538
C27   C     C_R   0.216175 0.401871 0.813770 0.598800
C28   C     C_3   0.224941 0.266478 0.415420 0.302328
C29   C     C_2   0.420574 0.424273 0.724952 -0.099509
C30   C     C_3   0.452920 0.405611 0.669563 -0.058783
C31   C     C_1   0.206183 0.515973 0.656523 0.034850
C32   C     C_2   0.163727 0.521149 0.704044 -0.079560
C33   C     C_2   0.277305 0.474441 0.741251 0.218705
C34   C     C_3   0.479986 0.689840 0.684803 -0.328413
C35   C     C_R   0.076576 0.416912 0.020578 0.019226
C36   C     C_R   0.057445 0.501766 0.051200 0.050832
C37   C     C_R   0.071026 0.582391 0.030309 0.020634
C38   C     C_R   0.061247 0.339008 0.043428 -0.096587
C39   C     C_R   0.019286 0.668219 0.113060 -0.076223
C40   C     C_3   0.248845 0.164202 0.401696 -0.355613
C41   C     C_R   0.117960 0.656247 0.955459 -0.097801
C42   C     C_R   0.151509 0.651161 0.904922 -0.054340
C43   C     C_R   0.051051 0.664932 0.062576 -0.099697
C44   C     C_R   0.754679 0.767097 0.483047 -0.267818
C45   C     C_3   0.953884 0.765784 0.346085 0.352018
C46   C     C_R   0.844291 0.827209 0.466145 0.000309
C47   C     C_R   0.785323 0.920487 0.472656 -0.132673
C48   C     C_R   0.637293 0.955115 0.498494 0.017323
C49   C     C_R   0.557246 0.891880 0.518708 -0.105518
C50   C     C_R   0.615633 0.799474 0.510891 0.045999
C51   C     C_R   0.418859 0.087802 0.530601 -0.134383
C52   C     C_3   0.971490 0.734825 0.585244 0.302488
C53   C     C_R   0.355891 0.179904 0.537228 0.001787
C54   C     C_R   0.582836 0.212257 0.493349 0.062909
C55   C     C_R   0.647991 0.119902 0.486547 -0.122905
C56   C     C_3   0.912528 0.818781 0.301675 -0.272688
C57   C     C_R   0.569319 0.055208 0.505988 0.008446
C58   C     C_R   0.441361 0.242180 0.520555 -0.283389
C59   C     C_3   0.952997 0.836840 0.599739 -0.357488
C60   C     C_3   0.698967 0.345517 0.374622 0.290685
C61   C     C_3   0.710213 0.322639 0.318218 -0.336884
C62   C     C_2   0.332567 0.919561 0.300245 0.757897
C63   C     C_3   0.372341 0.767381 0.227449 0.296541
C64   C     C_3   0.421808 0.684640 0.189601 -0.324261
C65   C     C_2   0.256002 0.083100 0.698155 0.943248
C66   C     C_3   0.445899 0.780176 0.346461 0.344888
C67   C     C_3   0.467143 0.838742 0.304548 0.264649
C68   C     C_R   0.974534 0.432933 0.176269 0.595967
H1    H     H_    0.785757 0.209416 0.602844 0.084651
H2    H     H_    0.815795 0.365936 0.389707 0.004072
H3    H     H_    0.597251 0.402623 0.382833 0.087295
H4    H     H_    0.922704 0.116152 0.667327 0.175498
H5    H     H_    0.816494 0.268519 0.308894 0.138216
H6    H     H_    0.726488 0.383463 0.300902 0.079486
H7    H     H_    0.595594 0.299095 0.302582 0.138859
H8    H     H_    0.596657 0.226548 0.636339 -0.094439
H9    H     H_    0.741949 0.073347 0.641221 0.054257
H10   H     H_    0.371897 0.649555 0.613344 0.012224
H11   H     H_    0.590608 0.610265 0.619830 0.072349
H12   H     H_    0.329689 0.144228 0.368994 0.144416
H13   H     H_    0.376884 0.745713 0.694549 0.156696
H14   H     H_    0.458736 0.629103 0.701425 0.074911
H15   H     H_    0.596710 0.710394 0.700692 0.134340
H16   H     H_    0.736709 0.138133 0.702467 0.125140
H17   H     H_    0.432496 0.173509 0.702615 0.064584
H18   H     H_    0.014418 0.696023 0.332751 0.062928
H19   H     H_    0.836423 0.763096 0.363846 -0.088145
H20   H     H_    0.024058 0.818761 0.280436 0.141556
H21   H     H_    0.822344 0.787516 0.276503 0.158445
H22   H     H_    0.859304 0.889950 0.314714 0.110975
H23   H     H_    0.306202 0.129603 0.433405 0.062693
H24   H     H_    0.564292 0.769497 0.367841 -0.136720
H25   H     H_    0.359464 0.817968 0.374762 0.098251
H26   H     H_    0.575782 0.871415 0.316680 -0.024310
H27   H     H_    0.156849 0.263593 0.687646 0.129666
H28   H     H_    0.136130 0.432750 0.283140 0.107550
H29   H     H_    0.017873 0.282187 0.109258 0.127687
H30   H     H_    0.504324 0.388944 0.750799 0.097239
H31   H     H_    0.180226 0.261396 0.863172 0.144279
H32   H     H_    0.122649 0.265877 0.948601 0.075928
H33   H     H_    0.073579 0.272094 0.023263 0.073217
H34   H     H_    0.128129 0.141866 0.392318 0.132959
H35   H     H_    0.693104 0.614049 0.249087 0.121040
H36   H     H_    0.005362 0.733527 0.135758 0.118771
H37   H     H_    0.103665 0.723295 0.975480 0.072123
H38   H     H_    0.300243 0.271225 0.641777 -0.048055
H39   H     H_    0.161072 0.713345 0.889781 0.128298
H40   H     H_    0.046917 0.559933 0.716428 0.108729
H41   H     H_    0.059484 0.729146 0.050265 0.072635
H42   H     H_    0.831726 0.550266 0.402231 0.079711
H43   H     H_    0.379942 0.471033 0.600692 0.072275
H44   H     H_    0.343394 0.043916 0.543444 0.069397
H45   H     H_    0.849651 0.715565 0.575560 -0.004723
H46   H     H_    0.859354 0.963724 0.458371 0.080167
H47   H     H_    0.756910 0.100667 0.464697 0.082871
H48   H     H_    0.452041 0.911635 0.542025 0.059209
H49   H     H_    0.390174 0.313420 0.524952 0.068451
H50   H     H_    0.800398 0.695158 0.477966 0.057804
H51   H     H_    0.418435 0.108193 0.642620 0.009077
H52   H     H_    0.345883 0.287762 0.424241 0.001041
H53   H     H_    0.145792 0.284381 0.448568 0.064519
H54   H     H_    0.117747 0.992636 0.324467 0.316045
H55   H     H_    0.329700 0.826161 0.206513 0.079906
H56   H     H_    0.052476 0.716143 0.552582 0.063254
H57   H     H_    0.268992 0.754230 0.248924 0.080736
H58   H     H_    0.438380 0.622166 0.208321 0.117080
H59   H     H_    0.324066 0.679777 0.160323 0.074808
H60   H     H_    0.537753 0.689854 0.171514 0.135890
H61   H     H_    0.311077 0.978720 0.643459 0.264084
H62   H     H_    0.867689 0.857711 0.631317 0.136826
H63   H     H_    0.903540 0.873141 0.567821 0.053108
H64   H     H_    0.074575 0.856485 0.611132 0.153973
N1    N     N_R   0.955783 0.515589 0.206046 -0.423251
N2    N     N_R   0.232535 0.479955 0.793463 -0.427351
O1    O     O_2   0.905540 0.548000 0.618290 -0.455051
O2    O     O_2   0.183791 0.821607 0.468910 -0.474962
O3    O     O_3   0.061594 0.809089 0.378704 -0.558609
O4    O     O_3   0.137550 0.547930 0.558110 -0.496935
O5    O     O_3   0.574690 0.391440 0.474610 -0.496334
O6    O     O_2   0.341330 0.720570 0.525000 -0.456139
O7    O     O_3   0.522677 0.744888 0.608149 -0.637458
O8    O     O_2   0.446888 0.521590 0.324237 -0.491156
O9    O     O_3   0.388595 0.698855 0.326970 -0.578712
O10   O     O_2   0.958708 0.364538 0.194360 -0.588252
O11   O     O_2   0.232321 0.329180 0.787232 -0.586773
O12   O     O_3   0.669951 0.269005 0.395298 -0.632075
O13   O     O_2   0.966654 0.665164 0.212244 -0.628533
O14   O     O_2   0.223433 0.631446 0.805101 -0.587751
O15   O     O_3   0.688580 0.383890 0.587540 -0.482871
O16   O     O_2   0.760590 0.469125 0.676959 -0.479308
O17   O     O_3   0.038255 0.692541 0.626299 -0.625147
O18   O     O_3   0.787018 0.291288 0.670560 -0.568992
O19   O     O_2   0.848360 0.279400 0.474970 -0.457660
O20   O     O_3   0.104690 0.337720 0.562900 -0.473539
O21   O     O_2   0.021780 0.177240 0.526630 -0.484222
O22   O     O_2   0.347457 0.972623 0.270594 -0.586070
O23   O     O_3   0.115653 0.190766 0.620124 -0.607321
O24   O     O_R   0.196317 0.935992 0.330945 -0.769764
O25   O     O_3   0.509994 0.784438 0.258378 -0.648557
O26   O     O_2   0.186009 0.110015 0.737431 -0.545636
O27   O     O_R   0.251781 0.994277 0.676264 -0.726819
O28   O     O_2   0.284150 0.451970 0.381680 -0.454457
O29   O     O_3   0.052160 0.451990 0.441880 -0.499043
O30   O     O_3   0.501140 0.616030 0.412450 -0.462516
O31   O     O_3   0.152134 0.307196 0.374428 -0.625162
O32   O     O_3   0.615020 0.608480 0.525380 -0.484868
O33   O     O_3   0.085020 0.662210 0.437090 -0.484748
P1    P     P_3+3 0.070480 0.574800 0.610950 0.995884
P2    P     P_3+3 0.668430 0.292880 0.460530 0.983367
P3    P     P_3+3 0.149801 0.220106 0.561211 0.960846
P4    P     P_3+3 0.119230 0.425130 0.389040 0.993751
P5    P     P_3+3 0.044418 0.780529 0.438747 0.980126
P6    P     P_3+3 0.673093 0.390730 0.652340 0.976248
P7    P     P_3+3 0.524903 0.720690 0.542990 0.952082
P8    P     P_3+3 0.519548 0.606225 0.347467 0.986423

loop_
_geom_bond_atom_site_label_1
_geom_bond_atom_site_label_2
_ccdc_geom_bond_type
C19   C24   A    
C26   O14   D    
C7    H28   S    
Ba1   O20   S    
C40   H23   S    
C12   H1    S    
C40   H12   S    
C67   H26   S    
C1    H9    S    
O12   P2    S    
C52   O17   S    
C4    O23   S    
C51   C57   A    
C59   H63   S    
C3    H35   S    
C2    O13   D    
C52   H56   S    
C24   C25   A    
C60   C61   S    
O18   P6    S    
C48   C57   S    
C63   H57   S    
C17   C19   A    
C67   O25   S    
C28   O31   S    
C32   C33   S    
C35   C38   A    
O21   P3    D    
C36   C37   A    
C55   C57   A    
C61   H6    S    
C34   H13   S    
O29   P4    S    
C23   H10   S    
C44   C50   A    
Ba1   P1    S    
O5    P2    S    
C49   H48   S    
C54   C55   A    
C5    P8    S    
C58   H49   S    
Ba1   Ba2   S    
C56   H21   S    
Ba1   O19   S    
C1    H4    S    
C22   C27   A    
C11   C38   A    
C17   C35   A    
C59   H62   S    
O16   P6    D    
C9    C13   A    
C25   C42   A    
C28   H52   S    
C64   H58   S    
C6    C7    D    
C62   O22   D    
O17   P1    S    
O2    P5    D    
O33   P5    S    
C60   H3    S    
C68   O10   D    
H61   O27   S    
C64   H60   S    
C7    C8    S    
Ba2   O30   S    
C37   C43   A    
C64   H59   S    
C42   H39   S    
C6    C14   D    
C60   O12   S    
C53   C58   A    
C12   O18   S    
C1    H16   S    
C23   H11   S    
C45   H19   S    
C23   O7    S    
C15   C31   D    
O7    P7    S    
C31   P1    S    
C59   H64   S    
C48   C49   A    
C46   P5    S    
C51   C53   A    
C4    C16   S    
C30   P6    S    
C44   C46   A    
C66   H25   S    
O15   P6    S    
C39   H36   S    
C44   H50   S    
C49   C50   A    
C4    H27   S    
C17   C20   A    
C8    N1    S    
C13   C39   A    
O23   P3    S    
Ba2   O28   S    
C15   C30   S    
C3    C5    S    
C18   C37   A    
C6    P4    S    
C66   C67   S    
O6    P7    D    
C23   C34   S    
Ba1   O32   S    
C16   C65   S    
C62   C67   S    
Ba1   P2    S    
C66   H24   S    
C54   C58   A    
C63   H55   S    
C11   H29   S    
C9    C36   A    
C41   C42   A    
C35   C36   A    
C47   H46   S    
C65   O27   S    
C29   C30   S    
Ba1   O29   S    
C21   C22   A    
C52   H45   S    
C62   O24   S    
C31   C32   D    
C60   H2    S    
O28   P4    D    
O30   P8    S    
C41   H37   S    
C29   H30   S    
C18   C19   A    
C28   H53   S    
C56   H20   S    
Ba2   O29   S    
O1    P1    D    
C15   H43   S    
Ba1   O4    S    
C2    N1    Am   
C46   C47   A    
C47   C48   A    
C54   P2    S    
C68   N1    Am   
Ba2   O6    S    
C29   C33   D    
C45   O3    S    
Ba2   O32   S    
C53   P3    S    
C18   C41   A    
Ba1   O1    S    
C51   H44   S    
C14   H42   S    
C55   H47   S    
C61   H7    S    
O32   P7    S    
C10   C68   A    
C5    C14   S    
O4    P1    S    
C26   N2    Am   
C20   C21   A    
C22   C24   A    
C40   H34   S    
C33   N2    S    
C27   O11   D    
C9    C10   A    
C43   H41   S    
C52   C59   S    
C1    C12   S    
C34   H15   S    
C16   H51   S    
C16   H17   S    
C20   H32   S    
O31   P4    S    
Ba2   O4    S    
C45   H18   S    
C2    C13   A    
C3    C8    D    
Ba2   P4    S    
C39   C43   A    
C38   H33   S    
C65   O26   D    
C63   O25   S    
C21   H31   S    
C61   H5    S    
C34   H14   S    
C32   H40   S    
H54   O24   S    
O20   P3    S    
Ba1   O15   S    
C12   H8    S    
Ba1   O5    S    
Ba2   O33   S    
O19   P2    D    
C27   N2    Am   
O8    P8    D    
C63   C64   S    
O9    P8    S    
C25   C26   A    
Ba2   O5    S    
C4    H38   S    
C50   P7    S    
C28   C40   S    
O3    P5    S    
C10   C11   A    
C56   H22   S    
C66   O9    S    
C45   C56   S    
