data_mof_unit_31410.cif
_audit_creation_date              2012-12-11T14:21:18-0500
_audit_creation_method            fapswitch 2.2
_symmetry_space_group_name_H-M    P1
_symmetry_Int_Tables_number       1
_space_group_crystal_system       triclinic
_cell_length_a                    22.113699
_cell_length_b                    7.260625
_cell_length_c                    14.851208
_cell_angle_alpha                 90.567232
_cell_angle_beta                  107.502402
_cell_angle_gamma                 89.090517
_cell_volume                      2273.78789575

loop_
_atom_site_label
_atom_site_type_symbol
_atom_type_description
_atom_site_fract_x
_atom_site_fract_y
_atom_site_fract_z
_atom_type_partial_charge
O1    O     O_R   0.584770 0.505770 0.002090 -0.525595
O2    O     O_R   0.415230 0.005770 0.997910 -0.514529
O3    O     O_R   0.467060 0.173340 0.861950 -0.523391
O4    O     O_R   0.532940 0.673340 0.138050 -0.534263
C1    C     C_R   0.457624 0.344857 0.825810 0.697577
C2    C     C_R   0.544631 0.845558 0.174319 0.706342
O5    O     O_R   0.587510 0.175890 0.993210 -0.531940
O6    O     O_R   0.412490 0.675890 0.006790 -0.533103
O7    O     O_R   0.536540 0.008150 0.130100 -0.539152
O8    O     O_R   0.463460 0.508150 0.869900 -0.545070
C3    C     C_R   0.613146 0.341177 0.003827 0.712366
C4    C     C_R   0.386628 0.844582 0.998003 0.717759
O9    O     O_3   0.483140 0.340040 0.044760 -0.375004
O10   O     O_3   0.516860 0.840040 0.955240 -0.377924
V1    V     V_3+5 0.503130 0.064190 0.991700 1.664544
V2    V     V_3+5 0.496870 0.564190 0.008300 1.634429
C5    C     C_2   0.213438 0.748513 0.992180 -0.111344
C6    C     C_2   0.781458 0.262467 0.987116 -0.179742
C7    C     C_2   0.183675 0.887489 0.023871 0.218589
C8    C     C_2   0.817531 0.412633 0.993800 0.287817
H1    H     H_    0.185714 0.636305 0.952186 0.176214
H2    H     H_    0.802764 0.127924 0.988759 0.175900
C9    C     C_2   0.283408 0.733540 0.013431 0.351894
C10   C     C_2   0.711380 0.273296 0.964354 0.361071
C11   C     C_2   0.316702 0.854002 0.977767 0.196783
C12   C     C_2   0.682472 0.334577 0.027220 0.254036
C13   C     C_R   0.926311 0.880682 0.718725 -0.327965
C14   C     C_R   0.078851 0.385909 0.277974 -0.343121
C15   C     C_R   0.572539 0.867320 0.276721 -0.064777
C16   C     C_R   0.434516 0.361675 0.723269 -0.071503
C17   C     C_R   0.939559 0.829432 0.560932 0.451515
C18   C     C_R   0.080714 0.274517 0.434121 0.436857
C19   C     C_R   0.965840 0.845051 0.660975 0.262902
C20   C     C_R   0.046428 0.321147 0.340171 0.279845
C21   C     C_R   0.859786 0.889494 0.676488 0.313837
C22   C     C_R   0.144443 0.430518 0.312979 0.339722
C23   C     C_R   0.834119 0.906162 0.576780 -0.076723
C24   C     C_R   0.178331 0.385405 0.409056 -0.059215
C25   C     C_R   0.873124 0.859628 0.519512 -0.200472
C26   C     C_R   0.147270 0.276028 0.459414 -0.199653
C27   C     C_R   0.769670 0.959748 0.531674 0.032699
C28   C     C_R   0.242972 0.430562 0.456802 0.040121
C29   C     C_R   0.739731 0.911113 0.436113 -0.045902
C30   C     C_R   0.278974 0.320723 0.533940 0.010253
C31   C     C_R   0.779309 0.867057 0.379603 0.359630
C32   C     C_R   0.249295 0.166701 0.559353 0.392749
C33   C     C_R   0.844271 0.844543 0.421099 0.006216
C34   C     C_R   0.183818 0.156555 0.528660 -0.050787
C35   C     C_R   0.736831 0.079869 0.576083 -0.101358
C36   C     C_R   0.270481 0.591486 0.436268 -0.110161
C37   C     C_R   0.672604 0.122970 0.534949 0.360937
C38   C     C_R   0.335433 0.623659 0.472576 0.477791
C39   C     C_R   0.638683 0.033521 0.450273 -0.019194
C40   C     C_R   0.372431 0.509759 0.545574 -0.047095
C41   C     C_R   0.672289 0.924365 0.400467 0.052690
C42   C     C_R   0.342137 0.371864 0.583360 0.041090
C43   C     C_R   0.572321 0.053909 0.412595 -0.048420
C44   C     C_R   0.437316 0.542931 0.589175 -0.016988
C45   C     C_R   0.540176 0.976282 0.325663 -0.105203
C46   C     C_R   0.468022 0.469117 0.677505 -0.075822
C47   C     C_R   0.637221 0.831149 0.317426 -0.117724
C48   C     C_R   0.372858 0.309365 0.675658 -0.060903
H3    H     H_    0.871131 0.815409 0.373010 0.242694
H4    H     H_    0.162628 0.040856 0.551874 0.221671
H5    H     H_    0.659617 0.734232 0.281603 0.184648
H6    H     H_    0.346793 0.240790 0.716168 0.178585
H7    H     H_    0.490225 0.008096 0.294338 0.172793
H8    H     H_    0.516214 0.509730 0.713840 0.181378
H9    H     H_    0.762124 0.145214 0.642098 0.203979
H10   H     H_    0.240892 0.695656 0.393435 0.199482
H11   H     H_    0.544713 0.135055 0.447739 0.201368
H12   H     H_    0.463740 0.635511 0.559150 0.214441
O11   O     O_R   0.036450 0.233070 0.130130 -0.551115
O12   O     O_R   0.963550 0.733070 0.869870 -0.509719
O13   O     O_R   0.912470 0.560570 0.006790 -0.512104
O14   O     O_R   0.087530 0.060570 0.993210 -0.525441
C49   C     C_R   0.886630 0.396365 0.001064 0.665466
C50   C     C_R   0.113484 0.891647 0.002346 0.641510
O15   O     O_R   0.032920 0.562940 0.138050 -0.522351
O16   O     O_R   0.967080 0.062940 0.861950 -0.539047
O17   O     O_R   0.084790 0.730500 0.002090 -0.520368
O18   O     O_R   0.915210 0.230500 0.997910 -0.544848
C51   C     C_R   0.044998 0.394805 0.175358 0.868192
C52   C     C_R   0.954218 0.893539 0.824209 0.882382
O19   O     O_3   0.016820 0.396170 0.955260 -0.369856
O20   O     O_3   0.983180 0.896170 0.044740 -0.393725
V3    V     V_3+5 0.996880 0.672090 0.008300 1.720211
V4    V     V_3+5 0.003120 0.172090 0.991700 1.665121
Cl1   Cl    Cl    0.047247 0.802768 0.718186 -0.448653
Cl2   Cl    Cl    0.963881 0.284753 0.295567 -0.449391
S1    S     S_3+6 0.810282 0.825318 0.745722 0.083935
O21   O     O_2   0.745792 0.766451 0.685470 -0.270200
O22   O     O_2   0.840051 0.665883 0.807615 -0.287216
O23   O     O_3   0.803167 0.006444 0.812989 -0.498164
H13   H     H_    0.763148 0.985235 0.827719 0.428751
S2    S     S_3+6 0.184680 0.509041 0.231848 0.064242
O24   O     O_2   0.251698 0.435513 0.259064 -0.236077
O25   O     O_2   0.152588 0.451044 0.131860 -0.299156
O26   O     O_3   0.185166 0.739463 0.233448 -0.528610
H14   H     H_    0.227613 0.770132 0.229057 0.414385
Cl3   Cl    Cl    0.755040 0.885761 0.255181 -0.503018
Cl4   Cl    Cl    0.290105 0.970352 0.618692 -0.590096
S3    S     S_3+6 0.226092 0.066168 0.099170 0.180338
O27   O     O_2   0.295464 0.022068 0.140857 -0.263263
O28   O     O_2   0.218882 0.239534 0.042425 -0.221773
O29   O     O_3   0.196412 0.100779 0.189922 -0.420187
H15   H     H_    0.150181 0.083367 0.164817 0.329359
S4    S     S_3+6 0.780618 0.638728 0.981238 0.119697
O30   O     O_2   0.728975 0.647203 0.888494 -0.235765
O31   O     O_2   0.751328 0.677293 0.058493 -0.282188
O32   O     O_3   0.831695 0.809036 0.984300 -0.465361
H16   H     H_    0.851213 0.837266 0.052222 0.351409
Cl5   Cl    Cl    0.320896 0.560009 0.094267 -0.408259
Cl6   Cl    Cl    0.666348 0.208308 0.849488 -0.480568
Cl7   Cl    Cl    0.276526 0.024239 0.896124 -0.504963
Cl8   Cl    Cl    0.724943 0.354553 0.148477 -0.496152
S5    S     S_3+6 0.636961 0.292871 0.589995 0.083867
O33   O     O_2   0.589584 0.202816 0.629105 -0.275688
O34   O     O_2   0.685902 0.387449 0.668839 -0.232420
O35   O     O_3   0.599040 0.451152 0.510083 -0.490461
H17   H     H_    0.632553 0.505962 0.487495 0.341677
S6    S     S_3+6 0.366772 0.820422 0.432809 0.061101
O36   O     O_2   0.411353 0.757410 0.379409 -0.310813
O37   O     O_2   0.314646 0.936354 0.369180 -0.277188
O38   O     O_3   0.406787 0.949062 0.525894 -0.486830
H18   H     H_    0.421806 0.056264 0.498237 0.377037
S7    S     S_3+6 0.986995 0.768541 0.485086 0.129629
O39   O     O_2   0.961545 0.593115 0.435314 -0.286770
O40   O     O_2   0.979280 0.913480 0.410948 -0.294917
O41   O     O_3   0.065096 0.740599 0.538745 -0.391842
H19   H     H_    0.083924 0.716818 0.486963 0.357496
S8    S     S_3+6 0.044251 0.251972 0.526825 0.157989
O42   O     O_2   0.067871 0.083616 0.584203 -0.277376
O43   O     O_2   0.063679 0.411106 0.593688 -0.253750
O44   O     O_3   0.964584 0.245506 0.488310 -0.406439
H20   H     H_    0.951108 0.251122 0.546161 0.357169

loop_
_geom_bond_atom_site_label_1
_geom_bond_atom_site_label_2
_ccdc_geom_bond_type
C24   C26   A    
C10   Cl6   S    
O32   H16   S    
O1    C3    A    
C17   S7    S    
O16   C52   A    
O2    C4    A    
C2    O7    A    
O15   V3    S    
O44   H20   S    
C13   C19   A    
O5    C3    A    
C32   Cl4   S    
C5    C9    S    
C8    C49   S    
C6    C10   S    
O14   C50   A    
C13   C52   S    
C21   C23   A    
C10   C12   D    
C24   C28   A    
S5    O34   D    
C33   H3    S    
C43   C45   A    
C9    Cl5   S    
O29   H15   S    
C44   C46   A    
S2    O26   S    
S4    O30   D    
C30   C42   A    
C45   H7    S    
C7    S3    S    
C15   C45   A    
C30   C32   A    
S8    O42   D    
C35   C37   A    
C16   C46   A    
C36   C38   A    
C17   C19   A    
O12   V3    S    
O14   V4    S    
C31   C33   A    
C14   C20   A    
O6    V2    S    
C15   C47   A    
C35   H9    S    
C14   C51   S    
C27   C29   A    
C28   C30   A    
C27   C35   A    
C38   C40   A    
C32   C34   A    
C39   C41   A    
C40   C42   A    
C48   H6    S    
O4    C2    A    
S5    O35   S    
S1    O21   D    
C39   C43   A    
O20   V3    S    
C3    C12   S    
C13   C21   A    
C5    H1    S    
S2    O25   D    
C37   C39   A    
C18   C20   A    
O4    V2    S    
C7    C50   S    
S7    O40   D    
O11   V4    S    
C19   Cl1   S    
S1    O22   D    
C29   C31   A    
C22   S2    S    
O26   H14   S    
O6    C4    A    
S2    O24   D    
C2    C15   S    
S3    O28   D    
O1    V2    S    
C43   H11   S    
O2    V1    S    
O13   C49   A    
C14   C22   A    
O17   V3    S    
C31   Cl3   S    
C28   C36   A    
S8    O43   D    
O13   V3    S    
C16   C48   A    
O38   H18   S    
C37   S5    S    
C42   C48   A    
S6    O37   D    
S7    O39   D    
C18   S8    S    
O3    V1    S    
O35   H17   S    
C25   C33   A    
C1    C16   S    
C40   C44   A    
O19   V4    S    
C29   C41   A    
C26   C34   A    
C20   Cl2   S    
C6    H2    S    
O12   C52   A    
O3    C1    A    
C38   S6    S    
S4    O32   S    
C4    C11   S    
S6    O38   S    
C11   Cl7   S    
O41   H19   S    
C36   H10   S    
S7    O41   S    
C1    O8    A    
O16   V4    S    
O8    V2    S    
S5    O33   D    
S1    O23   S    
O15   C51   A    
C50   O17   A    
C44   H12   S    
C49   O18   A    
S8    O44   S    
O18   V4    S    
C41   C47   A    
O5    V1    S    
C5    C7    D    
S4    O31   D    
S3    O29   S    
C6    C8    D    
C18   C26   A    
C23   C27   A    
O23   H13   S    
C12   Cl8   S    
C34   H4    S    
C22   C24   A    
C47   H5    S    
C9    C11   D    
C46   H8    S    
C23   C25   A    
O9    V2    S    
S3    O27   D    
C17   C25   A    
O10   V1    S    
S6    O36   D    
O11   C51   A    
O7    V1    S    
C8    S4    S    
C21   S1    S    
