data_mof_unit_15290.cif
_audit_creation_date              2012-12-10T20:58:05-0500
_audit_creation_method            fapswitch 2.2
_symmetry_space_group_name_H-M    P1
_symmetry_Int_Tables_number       1
_space_group_crystal_system       triclinic
_cell_length_a                    18.214631
_cell_length_b                    18.237203
_cell_length_c                    18.371979
_cell_angle_alpha                 119.994848
_cell_angle_beta                  89.945297
_cell_angle_gamma                 119.94188
_cell_volume                      4321.55761259

loop_
_atom_site_label
_atom_site_type_symbol
_atom_type_description
_atom_site_fract_x
_atom_site_fract_y
_atom_site_fract_z
_atom_type_partial_charge
C1    C     C_R   0.360695 0.220049 0.361076 0.499493
C2    C     C_3   0.796468 0.942070 0.695805 -0.232482
C3    C     C_3   0.698665 0.897547 0.697622 0.070400
C4    C     C_R   0.640885 0.780866 0.639052 0.480709
C5    C     C_3   0.799200 0.102599 0.801997 0.040377
C6    C     C_3   0.759817 0.058951 0.856796 -0.220609
C7    C     C_3   0.855024 0.061293 0.757323 -0.234917
C8    C     C_3   0.678738 0.391195 0.240888 -0.233985
C9    C     C_3   0.738367 0.391104 0.180990 -0.235216
C10   C     C_3   0.680774 0.531899 0.243617 -0.235664
C11   C     C_3   0.799619 0.578581 0.360241 -0.229817
C12   C     C_3   0.278613 0.580315 0.360409 -0.230336
C13   C     C_3   0.698692 0.500466 0.302374 0.071755
C14   C     C_3   0.799956 0.500328 0.200772 0.072165
C15   C     C_3   0.740391 0.531739 0.183705 -0.234511
C16   C     C_R   0.359843 0.501088 0.641292 0.501696
C17   C     C_3   0.858845 0.578569 0.300822 -0.230494
C18   C     C_R   0.471274 0.177977 0.550554 -0.106844
C19   C     C_R   0.429192 0.136945 0.463171 -0.066829
C20   C     C_R   0.338344 0.097735 0.434845 0.064064
C21   C     C_R   0.290112 0.099922 0.494684 -0.080261
C22   C     C_R   0.332651 0.141794 0.582229 -0.113188
C23   C     C_3   0.300158 0.500848 0.302441 0.070717
C24   C     C_R   0.423071 0.180491 0.610071 -0.107886
C25   C     C_R   0.235749 0.943476 0.286012 -0.159398
C26   C     C_R   0.192144 0.892304 0.196093 0.016770
C27   C     C_R   0.204699 0.949554 0.160763 -0.035476
C28   C     C_R   0.640786 0.500115 0.359518 0.493784
C29   C     C_R   0.261671 0.056506 0.216263 -0.159223
C30   C     C_R   0.305324 0.107677 0.306165 0.016680
C31   C     C_R   0.292550 0.050423 0.341548 -0.035645
C32   C     C_R   0.205952 0.901015 0.007572 -0.080227
C33   C     C_R   0.162907 0.860145 0.920544 -0.113428
C34   C     C_3   0.197958 0.500371 0.200740 0.070293
C35   C     C_R   0.072441 0.821636 0.893542 -0.108301
C36   C     C_R   0.024652 0.823179 0.953326 -0.107469
C37   C     C_R   0.067228 0.863142 0.040172 -0.067246
C38   C     C_R   0.158176 0.902335 0.067717 0.064395
C39   C     C_R   0.923246 0.698940 0.618409 -0.111954
C40   C     C_R   0.641810 0.501419 0.641390 0.502660
C41   C     C_R   0.875402 0.624580 0.635891 -0.078491
C42   C     C_R   0.843443 0.647815 0.708303 0.061138
C43   C     C_R   0.860495 0.746254 0.763450 -0.078658
C44   C     C_R   0.909304 0.820746 0.746388 -0.111324
C45   C     C_3   0.150174 0.391788 0.182347 -0.234714
C46   C     C_R   0.940240 0.796966 0.673656 -0.102576
C47   C     C_R   0.842133 0.563734 0.778291 -0.166648
C48   C     C_R   0.799450 0.497282 0.804622 0.019193
C49   C     C_R   0.704736 0.432775 0.777450 -0.039416
C50   C     C_R   0.655474 0.437977 0.725672 -0.166503
C51   C     C_R   0.698180 0.504209 0.699131 0.019266
C52   C     C_R   0.358103 0.500364 0.359510 0.494945
C53   C     C_R   0.792871 0.569681 0.727284 -0.039253
C54   C     C_R   0.630847 0.256311 0.743844 -0.079812
C55   C     C_R   0.581805 0.184830 0.764022 -0.113434
C56   C     C_3   0.218952 0.580065 0.301024 -0.228774
C57   C     C_R   0.556782 0.214490 0.840376 -0.101479
C58   C     C_R   0.580021 0.315440 0.896245 -0.108666
C59   C     C_R   0.628126 0.386836 0.875727 -0.075530
C60   C     C_R   0.654049 0.357643 0.799550 0.061528
C61   C     C_R   0.437235 0.837516 0.771612 -0.114370
C62   C     C_R   0.402393 0.758734 0.784625 -0.081955
C63   C     C_R   0.320980 0.662536 0.723907 0.062562
C64   C     C_3   0.348367 0.530382 0.242185 -0.234420
C65   C     C_R   0.274483 0.646296 0.650591 -0.063150
C66   C     C_R   0.310052 0.724948 0.637357 -0.101234
C67   C     C_3   0.659688 0.940949 0.666139 -0.096454
C68   C     C_R   0.391425 0.820439 0.697760 -0.100296
C69   C     C_R   0.230858 0.574857 0.789288 -0.159285
C70   C     C_R   0.195688 0.498853 0.805841 0.014992
C71   C     C_R   0.215978 0.424592 0.768885 -0.036511
C72   C     C_R   0.269424 0.427473 0.715283 -0.159338
C73   C     C_R   0.304205 0.503108 0.698396 0.015301
C74   C     C_R   0.285084 0.578320 0.736394 -0.036579
C75   C     C_R   0.227189 0.364031 0.861446 -0.057033
C76   C     C_3   0.288208 0.529921 0.182281 -0.233907
C77   C     C_R   0.195216 0.286279 0.875458 -0.098469
C78   C     C_3   0.720581 0.061606 0.727406 -0.218808
C79   C     C_R   0.119874 0.186243 0.811247 -0.102770
C80   C     C_R   0.076504 0.163768 0.732867 -0.120582
C81   C     C_R   0.107726 0.241520 0.718958 -0.089324
C82   C     C_R   0.182891 0.342261 0.783500 0.063205
C83   C     C_R   0.857158 0.500039 0.142907 0.494084
C84   C     C_R   0.138486 0.499460 0.861459 0.501112
C85   C     C_R   0.856884 0.219063 0.861562 0.489644
C86   C     C_R   0.136963 0.779948 0.141150 0.499243
C87   C     C_R   0.855911 0.499027 0.861270 0.503044
C88   C     C_3   0.210208 0.392077 0.242170 -0.232753
C89   C     C_3   0.700688 0.938094 0.796489 -0.098490
C90   C     C_R   0.139828 0.500004 0.142927 0.495168
C91   C     C_3   0.645040 0.899606 0.566375 -0.280698
C92   C     C_3   0.583084 0.917427 0.532339 -0.460324
C93   C     C_3   0.731426 0.895416 0.835329 -0.282486
C94   C     C_3   0.708431 0.911902 0.919933 -0.465452
H1    H     H_    0.364607 0.474647 0.199468 0.126058
H2    H     H_    0.826374 0.913036 0.717312 0.131709
H3    H     H_    0.412915 0.608574 0.284107 0.102045
H4    H     H_    0.797309 0.915520 0.626807 0.110447
H5    H     H_    0.884265 0.092245 0.717807 0.121061
H6    H     H_    0.911754 0.088340 0.809088 0.135623
H7    H     H_    0.816265 0.091036 0.912090 0.118686
H8    H     H_    0.606826 0.333285 0.198223 0.129438
H9    H     H_    0.691488 0.367285 0.281820 0.103617
H10   H     H_    0.779883 0.367101 0.192959 0.101438
H11   H     H_    0.694855 0.333234 0.109809 0.128766
H12   H     H_    0.155408 0.560746 0.316659 0.124051
H13   H     H_    0.608899 0.477045 0.201026 0.125895
H14   H     H_    0.323828 0.607839 0.195238 0.104453
H15   H     H_    0.696957 0.476757 0.112580 0.126583
H16   H     H_    0.816267 0.658074 0.405155 0.126666
H17   H     H_    0.814668 0.557680 0.402957 0.125858
H18   H     H_    0.902334 0.557869 0.315297 0.123745
H19   H     H_    0.903680 0.658051 0.317285 0.127366
H20   H     H_    0.695018 0.610377 0.286546 0.101062
H21   H     H_    0.783375 0.610117 0.197658 0.103383
H22   H     H_    0.455661 0.212428 0.677762 0.117533
H23   H     H_    0.174174 0.369495 0.284058 0.104377
H24   H     H_    0.541233 0.207781 0.572015 0.097681
H25   H     H_    0.466975 0.135017 0.417478 0.089001
H26   H     H_    0.275635 0.473814 0.111074 0.122514
H27   H     H_    0.219817 0.069357 0.473485 0.097531
H28   H     H_    0.295430 0.143811 0.628355 0.104561
H29   H     H_    0.227304 0.900057 0.313300 0.140112
H30   H     H_    0.270072 0.099949 0.189012 0.140438
H31   H     H_    0.276332 0.931663 0.028184 0.098290
H32   H     H_    0.199804 0.858893 0.874208 0.104102
H33   H     H_    0.039498 0.790647 0.826307 0.118745
H34   H     H_    0.085203 0.369032 0.195385 0.102126
H35   H     H_    0.954661 0.793563 0.932495 0.098791
H36   H     H_    0.029808 0.864513 0.086137 0.088678
H37   H     H_    0.977628 0.854604 0.660310 0.095191
H38   H     H_    0.223305 0.333209 0.199403 0.129273
H39   H     H_    0.947387 0.680708 0.562219 0.090337
H40   H     H_    0.862770 0.548965 0.592931 0.093028
H41   H     H_    0.836386 0.765252 0.819681 0.087318
H42   H     H_    0.923412 0.896998 0.789731 0.081836
H43   H     H_    0.914642 0.612456 0.798067 0.147824
H44   H     H_    0.582961 0.389397 0.705999 0.147513
H45   H     H_    0.592574 0.915053 0.674934 0.144595
H46   H     H_    0.650382 0.232766 0.684828 0.086908
H47   H     H_    0.562922 0.106368 0.720327 0.087376
H48   H     H_    0.519166 0.159168 0.856091 0.097021
H49   H     H_    0.560499 0.338242 0.955276 0.090155
H50   H     H_    0.134819 0.332920 0.111136 0.126478
H51   H     H_    0.645598 0.464761 0.919214 0.091766
H52   H     H_    0.418886 0.881275 0.687484 0.090013
H53   H     H_    0.499761 0.911805 0.818713 0.083412
H54   H     H_    0.438872 0.772363 0.841538 0.090054
H55   H     H_    0.211631 0.572416 0.603224 0.092288
H56   H     H_    0.748660 0.094644 0.689011 0.118601
H57   H     H_    0.274606 0.711839 0.580237 0.088685
H58   H     H_    0.216596 0.632743 0.818052 0.142576
H59   H     H_    0.283788 0.369667 0.686587 0.143083
H60   H     H_    0.285577 0.441304 0.911564 0.091835
H61   H     H_    0.228849 0.303562 0.936053 0.089939
H62   H     H_    0.243487 0.560979 0.404243 0.122560
H63   H     H_    0.095213 0.126076 0.822089 0.093558
H64   H     H_    0.018567 0.086114 0.682978 0.089174
H65   H     H_    0.073353 0.223476 0.658247 0.093115
H66   H     H_    0.341919 0.659491 0.404281 0.124673
H67   H     H_    0.679139 0.089542 0.757417 0.122927
H68   H     H_    0.253824 0.659175 0.316588 0.127247
H69   H     H_    0.516101 0.876506 0.538555 0.146345
H70   H     H_    0.611997 0.001266 0.570248 0.142108
H71   H     H_    0.574160 0.886533 0.460980 0.133416
H72   H     H_    0.710252 0.937702 0.556175 0.137099
H73   H     H_    0.613749 0.815085 0.524026 0.156010
H74   H     H_    0.742811 0.995551 0.973131 0.144514
H75   H     H_    0.634742 0.871863 0.905660 0.143720
H76   H     H_    0.730600 0.879225 0.944565 0.136118
H77   H     H_    0.697772 0.810901 0.786764 0.163778
H78   H     H_    0.630640 0.910433 0.796303 0.132587
H79   H     H_    0.804979 0.933198 0.850602 0.141211
H80   H     H_    0.718292 0.086181 0.888217 0.104872
O1    O     O_3   0.500000 0.500000 0.500000 -0.433753
O2    O     O_R   0.113800 0.731630 0.056520 -0.531748
O3    O     O_R   0.819390 0.439310 0.886160 -0.532594
O4    O     O_R   0.383400 0.268380 0.323710 -0.555467
O5    O     O_R   0.115110 0.560720 0.179280 -0.553474
O6    O     O_R   0.941380 0.560750 0.885620 -0.550357
O7    O     O_R   0.115110 0.439270 0.057830 -0.549990
O8    O     O_R   0.942690 0.268390 0.886930 -0.545180
O9    O     O_R   0.114340 0.731630 0.178520 -0.555970
O10   O     O_R   0.820160 0.439310 0.057830 -0.547243
O11   O     O_R   0.113800 0.560730 0.885620 -0.550653
O12   O     O_R   0.383400 0.560740 0.616060 -0.531976
O13   O     O_R   0.555060 0.731630 0.615290 -0.548442
O14   O     O_R   0.383950 0.439280 0.616600 -0.551089
O15   O     O_R   0.677590 0.560710 0.444390 -0.549371
O16   O     O_R   0.556370 0.439260 0.616600 -0.550202
O17   O     O_R   0.382640 0.439290 0.322940 -0.551859
O18   O     O_R   0.678360 0.560700 0.616060 -0.533118
O19   O     O_R   0.382640 0.560750 0.444390 -0.551096
O20   O     O_R   0.555060 0.439270 0.322940 -0.552901
O21   O     O_R   0.383950 0.268380 0.445700 -0.531254
O22   O     O_R   0.677590 0.731610 0.615290 -0.551213
O23   O     O_3   0.997750 0.500010 0.002220 -0.434132
O24   O     O_R   0.942690 0.560750 0.179280 -0.554952
O25   O     O_R   0.114340 0.439270 0.886160 -0.533908
O26   O     O_R   0.820160 0.268410 0.886930 -0.545629
Zn1   Zn    Zn3+2 0.456040 0.586770 0.543190 0.921406
Zn2   Zn    Zn3+2 0.456820 0.413240 0.543960 0.931050
Zn3   Zn    Zn3+2 0.631110 0.586750 0.543190 0.918828
Zn4   Zn    Zn3+2 0.456040 0.413240 0.369660 0.907051
Zn5   Zn    Zn3+2 0.041710 0.413240 0.959030 0.923651
Zn6   Zn    Zn3+2 0.866640 0.413270 0.959030 0.924845
Zn7   Zn    Zn3+2 0.040930 0.586780 0.958260 0.931139
Zn8   Zn    Zn3+2 0.041710 0.586770 0.132560 0.906014

loop_
_geom_bond_atom_site_label_1
_geom_bond_atom_site_label_2
_ccdc_geom_bond_type
C44   H42   S    
C66   C68   A    
C63   C65   A    
C34   C56   S    
C8    C13   S    
C55   H47   S    
O4    Zn4   S    
C27   C29   A    
C41   C42   A    
C15   H15   S    
C91   H72   S    
O23   Zn5   S    
C35   C36   A    
C61   C68   A    
C43   C44   A    
C28   O15   A    
C81   C82   A    
C10   H13   S    
C17   H19   S    
C39   C41   A    
O21   Zn2   S    
C54   C60   A    
O15   Zn3   S    
C84   O11   A    
C12   C23   S    
C78   H56   S    
C26   C27   A    
C37   C38   A    
C49   C60   S    
C7    H5    S    
C57   H48   S    
C81   H65   S    
O2    Zn7   S    
C91   H73   S    
C36   C37   A    
C1    O21   A    
O1    Zn4   S    
C10   C15   S    
C42   C53   S    
C30   C31   A    
C88   H23   S    
O1    Zn2   S    
C27   C38   S    
C9    H11   S    
C29   H30   S    
C56   H68   S    
O25   Zn5   S    
O10   Zn6   S    
C37   H36   S    
C18   C19   A    
C73   C74   A    
C6    H7    S    
O14   Zn2   S    
C49   C50   A    
O11   Zn7   S    
C33   H32   S    
C87   O6    A    
C54   C55   A    
C92   H71   S    
C54   H46   S    
C2    C7    S    
C8    C9    S    
C45   H50   S    
C28   O20   A    
C13   C28   S    
C70   C71   A    
C18   C24   A    
C32   C38   A    
C89   H78   S    
O6    Zn7   S    
C67   H45   S    
C18   H24   S    
C86   O2    A    
C10   H20   S    
C47   C53   A    
C71   C82   S    
C5    C85   S    
C92   H70   S    
C19   H25   S    
C59   C60   A    
C76   H14   S    
C62   H54   S    
C21   C22   A    
C11   H16   S    
C89   C93   S    
O9    Zn8   S    
C14   C17   S    
O23   Zn6   S    
C61   C62   A    
C67   C78   S    
C14   C83   S    
C12   H62   S    
C58   H49   S    
C41   H40   S    
C44   C46   A    
C22   H28   S    
C77   C79   A    
C84   O25   A    
C7    H6    S    
O24   Zn8   S    
C16   C73   S    
C21   H27   S    
C45   C88   S    
O1    Zn1   S    
C72   C73   A    
C16   O14   A    
C94   H74   S    
C46   H37   S    
C5    C7    S    
O16   Zn2   S    
C6    H80   S    
C25   C26   A    
C11   H17   S    
O12   Zn1   S    
C83   O24   A    
C52   O17   A    
C32   H31   S    
C23   C52   S    
O7    Zn5   S    
C9    C14   S    
C34   C90   S    
C62   C63   A    
C43   H41   S    
C87   O3    A    
C25   H29   S    
C1    O4    A    
C85   O26   A    
C80   H64   S    
C47   C48   A    
C40   O18   A    
C90   O7    A    
C64   H3    S    
C26   C86   S    
O20   Zn4   S    
C47   H43   S    
C67   C91   S    
C50   C51   A    
C64   C76   S    
C48   C87   S    
C69   C74   A    
C93   C94   S    
C76   H26   S    
C12   H66   S    
O22   Zn3   S    
C35   H33   S    
C75   C77   A    
C56   H12   S    
C12   C56   S    
C34   C45   S    
C39   C46   A    
C59   H51   S    
C92   H69   S    
C23   C64   S    
C24   H22   S    
C23   C88   S    
C55   C57   A    
C86   O9    A    
C22   C24   A    
O23   Zn7   S    
C42   C43   A    
C88   H38   S    
C3    C4    S    
C6    C89   S    
C17   H18   S    
C91   C92   S    
C70   C84   S    
C4    O13   A    
C39   H39   S    
C4    O22   A    
O5    Zn8   S    
C11   C17   S    
O26   Zn6   S    
C72   H59   S    
C90   O5    A    
C69   H58   S    
C25   C31   A    
C85   O8    A    
C3    C67   S    
C52   O19   A    
C64   H1    S    
C80   C81   A    
C10   C13   S    
C79   H63   S    
C50   H44   S    
C75   C82   A    
C68   H52   S    
C63   C74   S    
C40   C51   S    
O13   Zn1   S    
C3    C89   S    
O8    Zn5   S    
C32   C33   A    
C19   C20   A    
C2    H2    S    
O3    Zn6   S    
C61   H53   S    
O1    Zn3   S    
C66   H57   S    
C94   H75   S    
C16   O12   A    
C36   H35   S    
C94   H76   S    
C11   C13   S    
C75   H60   S    
C57   C58   A    
C5    C6    S    
O19   Zn1   S    
C9    H10   S    
C48   C49   A    
C93   H79   S    
C1    C30   S    
C33   C35   A    
O18   Zn3   S    
C83   O10   A    
C2    C3    S    
C15   H21   S    
C65   H55   S    
C69   C70   A    
C8    H9    S    
C58   C59   A    
C29   C30   A    
C79   C80   A    
C71   C72   A    
C40   O16   A    
C20   C21   A    
C2    H4    S    
C78   H67   S    
C65   C66   A    
O17   Zn4   S    
C14   C15   S    
O23   Zn8   S    
C45   H34   S    
C51   C53   A    
C5    C78   S    
C8    H8    S    
C77   H61   S    
C34   C76   S    
C20   C31   S    
C93   H77   S    
