data_mof_unit_30144.cif
_audit_creation_date              2012-12-10T18:59:13-0500
_audit_creation_method            fapswitch 2.2
_symmetry_space_group_name_H-M    P1
_symmetry_Int_Tables_number       1
_space_group_crystal_system       triclinic
_cell_length_a                    9.915213
_cell_length_b                    10.63627
_cell_length_c                    16.927001
_cell_angle_alpha                 86.784576
_cell_angle_beta                  96.239582
_cell_angle_gamma                 87.658603
_cell_volume                      1769.78439265

loop_
_atom_site_label
_atom_site_type_symbol
_atom_type_description
_atom_site_fract_x
_atom_site_fract_y
_atom_site_fract_z
_atom_type_partial_charge
C1    C     C_R   0.502615 0.260318 0.501795 0.990785
C2    C     C_R   0.497384 0.739681 0.498204 0.990773
C3    C     C_R   0.460651 0.946246 0.426965 0.005300
C4    C     C_R   0.539349 0.053753 0.573032 0.005297
C5    C     C_R   0.493286 0.872371 0.498396 -0.273002
C6    C     C_R   0.506714 0.127629 0.501603 -0.273018
C7    C     C_R   0.057857 0.592812 0.457941 -0.033083
C8    C     C_R   0.942140 0.407182 0.542053 -0.033104
C9    C     C_R   0.914766 0.592184 0.458313 0.660900
C10   C     C_R   0.085233 0.407816 0.541688 0.660905
C11   C     C_R   0.519152 0.502391 0.653396 0.932613
C12   C     C_R   0.480848 0.497609 0.346604 0.932612
C13   C     C_R   0.528536 0.510417 0.740340 -0.145199
C14   C     C_R   0.471465 0.489587 0.259659 -0.145200
C15   C     C_R   0.419689 0.573219 0.772863 0.117578
C16   C     C_R   0.580315 0.426793 0.227135 0.117582
C17   C     C_R   0.399211 0.544469 0.852610 0.054733
C18   C     C_R   0.600791 0.455548 0.147389 0.054733
C19   C     C_R   0.498160 0.468571 0.901360 0.125559
C20   C     C_R   0.501838 0.531443 0.098640 0.125556
C21   C     C_R   0.613426 0.420007 0.871747 0.600317
C22   C     C_R   0.386568 0.579998 0.128253 0.600321
C23   C     C_R   0.631216 0.441016 0.791609 -0.020146
C24   C     C_R   0.368781 0.558984 0.208391 -0.020129
C25   C     C_R   0.466546 0.075649 0.429484 0.590350
C26   C     C_R   0.533453 0.924351 0.570515 0.590354
N1    N     N_2   0.490387 0.450155 0.983190 -0.114933
N2    N     N_2   0.509608 0.549859 0.016810 -0.114938
N3    N     N_R   0.857210 0.499970 0.500020 -0.171207
N4    N     N_R   0.142790 0.500030 0.499980 -0.171206
O1    O     O_R   0.614620 0.316750 0.500010 -0.652690
O2    O     O_R   0.385380 0.683250 0.499990 -0.652694
O3    O     O_R   0.385290 0.316780 0.500000 -0.531304
O4    O     O_R   0.614710 0.683220 0.500000 -0.531308
O5    O     O_R   0.627460 0.498830 0.616130 -0.625495
O6    O     O_R   0.372540 0.501170 0.383870 -0.625494
O7    O     O_R   0.398130 0.498850 0.616130 -0.588015
O8    O     O_R   0.601870 0.501150 0.383870 -0.588012
Zn1   Zn    Zn3+2 0.653130 0.499980 0.500000 1.001529
Zn2   Zn    Zn3+2 0.346870 0.500020 0.500000 1.001538
C27   C     C_3   0.674043 0.328192 0.276187 -0.716535
H1    H     H_    0.631208 0.292584 0.330491 0.265741
H2    H     H_    0.688828 0.244226 0.241451 0.237072
H3    H     H_    0.774045 0.367907 0.293543 0.228593
C28   C     C_3   0.325967 0.671823 0.723810 -0.716513
H4    H     H_    0.368795 0.707416 0.669500 0.265744
H5    H     H_    0.225956 0.632117 0.706463 0.228584
H6    H     H_    0.311199 0.755798 0.758542 0.237075
C29   C     C_3   0.728451 0.407291 0.114997 -0.700417
H7    H     H_    0.744446 0.456955 0.057679 0.280220
H8    H     H_    0.819146 0.423740 0.156990 0.222653
H9    H     H_    0.723136 0.304927 0.106165 0.260714
C30   C     C_3   0.271553 0.592736 0.885000 -0.700423
H10   H     H_    0.276874 0.695099 0.893830 0.260709
H11   H     H_    0.180858 0.576288 0.843008 0.222653
H12   H     H_    0.255553 0.543077 0.942319 0.280229
F1    F     F_    0.707439 0.349818 0.921950 -0.664752
F2    F     F_    0.292550 0.650183 0.078051 -0.664753
C31   C     C_3   0.757260 0.385380 0.762487 -0.765251
H13   H     H_    0.832895 0.345638 0.811576 0.287045
H14   H     H_    0.728253 0.307526 0.724986 0.212939
H15   H     H_    0.808652 0.458747 0.729217 0.252238
C32   C     C_3   0.242734 0.614609 0.237515 -0.765286
H16   H     H_    0.167098 0.654355 0.188428 0.287044
H17   H     H_    0.191345 0.541236 0.270781 0.252244
H18   H     H_    0.271736 0.692460 0.275020 0.212947
F3    F     F_    0.430782 0.151871 0.362564 -0.680546
F4    F     F_    0.569217 0.848129 0.637435 -0.680550
C33   C     C_3   0.418099 0.888718 0.349351 -0.757854
H19   H     H_    0.313302 0.857585 0.350531 0.216669
H20   H     H_    0.418690 0.956941 0.297334 0.292136
H21   H     H_    0.487781 0.807536 0.340521 0.223380
C34   C     C_3   0.581906 0.111282 0.650645 -0.757854
H22   H     H_    0.686696 0.142431 0.649458 0.216662
H23   H     H_    0.512213 0.192457 0.659478 0.223389
H24   H     H_    0.581335 0.043055 0.702664 0.292137
C35   C     C_3   0.112773 0.698451 0.411286 -0.733149
H25   H     H_    0.049055 0.719468 0.353554 0.246641
H26   H     H_    0.115661 0.784165 0.445838 0.246196
H27   H     H_    0.214410 0.672386 0.397035 0.262224
C36   C     C_3   0.887205 0.301515 0.588674 -0.733136
H28   H     H_    0.884181 0.215868 0.554060 0.246186
H29   H     H_    0.950979 0.280362 0.646372 0.246696
H30   H     H_    0.785618 0.327629 0.602986 0.262188
F5    F     F_    0.833418 0.683673 0.416064 -0.640538
F6    F     F_    0.166581 0.316324 0.583933 -0.640549

loop_
_geom_bond_atom_site_label_1
_geom_bond_atom_site_label_2
_ccdc_geom_bond_type
C35   H25   S    
C32   H17   S    
C5    C26   A    
C34   H23   S    
C34   H22   S    
C25   F3    S    
C36   H28   S    
C1    O3    A    
C28   H4    S    
C30   H12   S    
C23   C31   S    
C8    N3    A    
C19   C21   A    
O7    Zn2   S    
O8    Zn1   S    
C28   H6    S    
C6    C25   A    
C1    O1    A    
C13   C23   A    
C2    O2    A    
C27   H1    S    
C14   C24   A    
C11   O7    A    
C9    F5    S    
C29   H8    S    
C12   O6    A    
C19   N1    S    
C18   C20   A    
C9    N3    A    
C7    C35   S    
C2    O4    A    
C28   H5    S    
C32   H18   S    
C31   H13   S    
C7    N4    A    
C27   H2    S    
C36   H29   S    
C30   H11   S    
C31   H14   S    
O3    Zn2   S    
C33   H20   S    
C8    C36   S    
C3    C25   A    
C4    C6    A    
C20   N2    S    
C30   H10   S    
O4    Zn1   S    
C33   H21   S    
O5    Zn1   S    
C21   F1    S    
C10   N4    A    
O6    Zn2   S    
C29   H9    S    
N3    Zn1   S    
C35   H26   S    
N4    Zn2   S    
C4    C34   S    
C16   C18   A    
C20   C22   A    
C24   C32   S    
C13   C15   A    
C27   H3    S    
C14   C16   A    
C2    C5    S    
C15   C28   S    
C17   C30   S    
N1    N2    D    
C36   H30   S    
C35   H27   S    
C15   C17   A    
C10   F6    S    
C31   H15   S    
C3    C33   S    
C12   C14   S    
C3    C5    A    
C22   F2    S    
C4    C26   A    
C26   F4    S    
C21   C23   A    
C11   C13   S    
C11   O5    A    
C17   C19   A    
O1    Zn1   S    
C22   C24   A    
O2    Zn2   S    
C12   O8    A    
C33   H19   S    
C32   H16   S    
C7    C9    A    
C34   H24   S    
C8    C10   A    
C29   H7    S    
C1    C6    S    
C16   C27   S    
C18   C29   S    
