data_mof_unit_17194.cif
_audit_creation_date              2012-12-10T17:11:00-0500
_audit_creation_method            fapswitch 2.2
_symmetry_space_group_name_H-M    P1
_symmetry_Int_Tables_number       1
_space_group_crystal_system       triclinic
_cell_length_a                    11.80942
_cell_length_b                    13.048142
_cell_length_c                    13.535968
_cell_angle_alpha                 94.167494
_cell_angle_beta                  77.322762
_cell_angle_gamma                 99.905257
_cell_volume                      2003.26615427

loop_
_atom_site_label
_atom_site_type_symbol
_atom_type_description
_atom_site_fract_x
_atom_site_fract_y
_atom_site_fract_z
_atom_type_partial_charge
C1    C     C_R   0.522164 0.700264 0.496809 0.779291
C2    C     C_R   0.453047 0.491609 0.973003 0.076155
C3    C     C_R   0.482051 0.470058 0.867313 0.082862
C4    C     C_R   0.537741 0.486642 0.032243 0.043492
C5    C     C_R   0.653152 0.470454 0.984643 -0.030288
C6    C     C_R   0.676970 0.442330 0.881934 -0.170352
C7    C     C_R   0.590492 0.435690 0.826161 -0.153333
C8    C     C_R   0.510170 0.493954 0.138108 -0.304493
C9    C     C_R   0.716210 0.513581 0.143683 0.382500
C10   C     C_R   0.402310 0.484578 0.806323 -0.199955
C11   C     C_R   0.462299 0.185399 0.512513 -0.358638
C12   C     C_R   0.437424 0.490142 0.694974 0.788754
C13   C     C_R   0.534605 0.813253 0.491106 -0.053174
C14   C     C_R   0.653240 0.983274 0.490188 -0.134758
C15   C     C_R   0.644650 0.875908 0.482853 -0.234454
C16   C     C_R   0.434733 0.859184 0.494836 -0.149081
C17   C     C_R   0.441980 0.967352 0.501236 -0.094462
C18   C     C_R   0.552046 0.029736 0.502420 0.004401
C19   C     C_R   0.560266 0.137779 0.515108 0.338730
C20   C     C_R   0.350579 0.122803 0.517920 0.337709
C21   C     C_R   0.340951 0.014018 0.509996 0.356174
C22   C     C_R   0.934804 0.566877 0.620060 0.318702
C23   C     C_R   0.477397 0.299359 0.503805 0.886832
C24   C     C_R   0.821706 0.572456 0.600792 0.408752
C25   C     C_R   0.857852 0.460214 0.454423 0.533115
C26   C     C_R   0.976341 0.461012 0.465308 -0.300985
C27   C     C_R   0.017376 0.523029 0.543934 -0.243376
C28   C     C_R   0.139515 0.535091 0.547508 0.507855
C29   C     C_R   0.173468 0.412187 0.411370 0.396384
C30   C     C_R   0.054506 0.398541 0.403880 0.320214
C31   C     C_R   0.562705 0.506078 0.305022 0.878291
C32   C     C_R   0.741755 0.480677 0.041664 0.327844
C33   C     C_R   0.597772 0.505949 0.194254 -0.236363
C34   C     C_R   0.290388 0.506338 0.852780 -0.237026
C35   C     C_R   0.259317 0.526609 0.956421 0.505745
C36   C     C_R   0.342811 0.522185 0.015655 -0.301289
Cu1   Cu    Cu3+1 0.386470 0.492430 0.492410 1.034100
Cu2   Cu    Cu3+1 0.613530 0.507570 0.507590 1.024497
H1    H     H_    0.739358 0.029693 0.486382 0.165414
H2    H     H_    0.724205 0.842530 0.471122 0.138554
H3    H     H_    0.350908 0.810308 0.495169 0.198851
H4    H     H_    0.762271 0.423936 0.844288 0.201680
H5    H     H_    0.420167 0.487425 0.178577 0.218810
H6    H     H_    0.227236 0.513387 0.807480 0.221241
H7    H     H_    0.322713 0.544874 0.094233 0.137814
H8    H     H_    0.611491 0.403182 0.750514 0.170415
N1    N     N_R   0.215880 0.481050 0.481000 -0.272102
N2    N     N_R   0.784100 0.518950 0.519000 -0.288754
O1    O     O_R   0.419710 0.645650 0.494620 -0.544103
O2    O     O_R   0.611450 0.658430 0.507430 -0.598717
O3    O     O_R   0.357340 0.490460 0.641450 -0.548477
O4    O     O_R   0.549080 0.503250 0.654260 -0.543679
O5    O     O_R   0.388550 0.341570 0.492570 -0.511172
O6    O     O_R   0.580290 0.354350 0.505380 -0.512069
O7    O     O_R   0.450920 0.496750 0.345740 -0.559557
O8    O     O_R   0.642660 0.509540 0.358550 -0.509515
O9    O     O_3   0.806565 0.549599 0.193675 -0.530515
C37   C     C_3   0.815648 0.659434 0.206874 0.102849
H9    H     H_    0.728501 0.686468 0.227587 0.108853
H10   H     H_    0.865451 0.696815 0.135547 0.126497
C38   C     C_3   0.879435 0.698101 0.292146 -0.790048
H11   H     H_    0.969875 0.679681 0.274211 0.230449
H12   H     H_    0.884670 0.783852 0.302836 0.189212
H13   H     H_    0.831024 0.661615 0.364005 0.262144
O10   O     O_3   0.249692 0.166708 0.528538 -0.505234
C39   C     C_3   0.212482 0.196590 0.631744 0.101602
H14   H     H_    0.281139 0.253294 0.659982 0.113954
H15   H     H_    0.189648 0.128119 0.680448 0.115757
C40   C     C_3   0.103454 0.247184 0.644046 -0.761885
H16   H     H_    0.037055 0.196063 0.608790 0.215144
H17   H     H_    0.065691 0.259882 0.725621 0.196580
H18   H     H_    0.126137 0.323151 0.607276 0.250922
O11   O     O_3   0.234232 0.954955 0.500648 -0.548850
C41   C     C_3   0.170033 0.918914 0.596179 0.098600
H19   H     H_    0.204106 0.958026 0.662304 0.098198
H20   H     H_    0.172488 0.834781 0.599105 0.188926
C42   C     C_3   0.042272 0.932489 0.608021 -0.818722
H21   H     H_    0.993622 0.915203 0.686483 0.181164
H22   H     H_    0.036670 0.013532 0.592816 0.270881
H23   H     H_    0.000768 0.879088 0.553639 0.229858
Cl1   Cl    Cl    0.197620 0.628586 0.630655 -0.672435
Cl2   Cl    Cl    0.265247 0.335307 0.328918 -0.562397
O12   O     O_3   0.951345 0.568734 0.719431 -0.536705
C43   C     C_3   0.949879 0.667985 0.768346 0.120393
H24   H     H_    0.858074 0.678569 0.802151 0.174690
H25   H     H_    0.996385 0.731059 0.716205 0.138118
C44   C     C_3   0.011943 0.676316 0.856787 -0.703710
H26   H     H_    0.104313 0.663600 0.831146 0.291566
H27   H     H_    0.011623 0.755049 0.893898 0.161128
H28   H     H_    0.965659 0.618209 0.913464 0.297944
O13   O     O_3   0.017841 0.324022 0.334609 -0.521036
C45   C     C_3   0.982142 0.227186 0.382019 0.145741
H29   H     H_    0.903951 0.230130 0.444460 0.180745
H30   H     H_    0.053729 0.204306 0.413004 0.178628
C46   C     C_3   0.948866 0.143408 0.304673 -0.712365
H31   H     H_    0.025249 0.138802 0.240805 0.253357
H32   H     H_    0.922088 0.066768 0.340769 0.178497
H33   H     H_    0.874415 0.161752 0.274961 0.264929
O14   O     O_3   0.743113 0.620231 0.672328 -0.544303
C47   C     C_3   0.759578 0.727537 0.653070 0.082743
H34   H     H_    0.772200 0.742079 0.571729 0.142525
H35   H     H_    0.838912 0.770687 0.675760 0.079576
C48   C     C_3   0.655335 0.774456 0.714569 -0.733881
H36   H     H_    0.651377 0.768518 0.796737 0.225910
H37   H     H_    0.665142 0.857812 0.697261 0.190130
H38   H     H_    0.571783 0.732470 0.696845 0.257312
Cl3   Cl    Cl    0.802805 0.382128 0.358212 -0.515885
O15   O     O_3   0.853581 0.461115 0.998056 -0.564570
C49   C     C_3   0.855259 0.353993 0.006214 0.094641
H39   H     H_    0.786046 0.304611 0.971764 0.117552
H40   H     H_    0.841641 0.334046 0.087085 0.179292
C50   C     C_3   0.973630 0.327669 0.949885 -0.744590
H41   H     H_    0.042489 0.358780 0.993017 0.274561
H42   H     H_    0.969035 0.241873 0.940951 0.178774
H43   H     H_    0.997778 0.361707 0.873825 0.264814
O16   O     O_3   0.145887 0.549478 0.992716 -0.588018
C51   C     C_3   0.123571 0.591903 0.092697 0.035650
H44   H     H_    0.050795 0.636878 0.099097 0.195873
H45   H     H_    0.197837 0.650123 0.110006 0.115933
C52   C     C_3   0.082847 0.505951 0.169706 -0.651055
H46   H     H_    0.144784 0.449196 0.158704 0.245025
H47   H     H_    0.075920 0.540815 0.247515 0.199456
H48   H     H_    0.995633 0.462842 0.161933 0.309102
O17   O     O_3   0.663783 0.196315 0.532953 -0.536342
C53   C     C_3   0.659367 0.197575 0.638341 0.066945
H49   H     H_    0.650310 0.117332 0.665426 0.131510
H50   H     H_    0.584103 0.234345 0.681476 0.116412
C54   C     C_3   0.772542 0.259150 0.661344 -0.796360
H51   H     H_    0.784657 0.340358 0.637105 0.253609
H52   H     H_    0.769556 0.259764 0.743903 0.196238
H53   H     H_    0.847905 0.222058 0.620886 0.222991

loop_
_geom_bond_atom_site_label_1
_geom_bond_atom_site_label_2
_ccdc_geom_bond_type
C39   H15   S    
C44   H26   S    
C28   N1    A    
C38   H13   S    
C24   O14   S    
O11   C41   S    
C14   C18   A    
C35   C36   A    
C43   C44   S    
C4    C8    A    
C54   H51   S    
C50   H42   S    
C46   H33   S    
C42   H21   S    
O15   C49   S    
C11   C19   A    
C26   C27   A    
Cu1   Cu2   S    
C41   H20   S    
C29   N1    A    
C43   H25   S    
C18   C19   A    
C3    C7    A    
C51   H45   S    
C5    C6    A    
Cu1   O3    S    
C39   C40   S    
Cu2   O4    S    
C37   H10   S    
C21   O11   S    
O16   C51   S    
C40   H17   S    
C34   C35   A    
C38   H12   S    
C45   H29   S    
C9    C32   A    
C14   H1    S    
C44   H28   S    
O14   C47   S    
C16   C17   A    
C41   C42   S    
C53   C54   S    
C8    H5    S    
C31   O8    A    
Cu1   N1    S    
C1    O2    A    
Cu2   N2    S    
C52   H48   S    
C5    C32   A    
Cu1   O5    S    
C37   C38   S    
C39   H14   S    
C9    C33   A    
C38   H11   S    
C45   H30   S    
C50   H41   S    
C12   O4    A    
C52   H47   S    
C23   O5    A    
C42   H22   S    
C11   C20   A    
C19   O17   S    
C41   H19   S    
C24   N2    A    
C7    H8    S    
C20   O10   S    
C36   H7    S    
C34   H6    S    
C43   H24   S    
C48   H37   S    
C49   C50   S    
O13   C45   S    
C30   O13   S    
C37   H9    S    
C47   C48   S    
C17   C21   A    
C40   H18   S    
C2    C4    A    
C29   C30   A    
Cu1   O1    S    
O12   C43   S    
Cu2   O6    S    
C47   H35   S    
C17   C18   A    
C35   O16   S    
C10   C34   A    
C25   N2    A    
C10   C12   S    
C26   C30   A    
C22   C27   A    
C13   C15   A    
C32   O15   S    
C53   H49   S    
C22   C24   A    
C51   C52   S    
C1    C13   S    
C54   H53   S    
C48   H36   S    
C12   O3    A    
C52   H46   S    
C25   Cl3   S    
C23   O6    A    
C42   H23   S    
C2    C36   A    
C31   C33   S    
C28   Cl1   S    
C4    C5    A    
C54   H52   S    
C46   H32   S    
C6    C7    A    
Cu2   O2    S    
C22   O12   S    
C49   H40   S    
C2    C3    A    
C25   C26   A    
C29   Cl2   S    
C3    C10   A    
C51   H44   S    
O9    C37   S    
C11   C23   S    
C47   H34   S    
C48   H38   S    
C9    O9    S    
C8    C33   A    
C45   C46   S    
C40   H16   S    
C15   H2    S    
Cu1   O7    S    
Cu2   O8    S    
C20   C21   A    
O10   C39   S    
C6    H4    S    
C13   C16   A    
C27   C28   A    
C53   H50   S    
C44   H27   S    
C14   C15   A    
C31   O7    A    
C49   H39   S    
C1    O1    A    
C16   H3    S    
C50   H43   S    
C46   H31   S    
O17   C53   S    
