data_mof_unit_40338.cif
_audit_creation_date              2013-03-05T16:47:54-0500
_audit_creation_method            fapswitch 2.2
_symmetry_space_group_name_H-M    P1
_symmetry_Int_Tables_number       1
_space_group_crystal_system       triclinic
_cell_length_a                    8.108611
_cell_length_b                    8.913827
_cell_length_c                    16.616918
_cell_angle_alpha                 89.999795
_cell_angle_beta                  85.049227
_cell_angle_gamma                 90.000797
_cell_volume                      1196.56929271

loop_
_atom_site_label
_atom_site_type_symbol
_atom_site_description
_atom_site_fract_x
_atom_site_fract_y
_atom_site_fract_z
_atom_type_partial_charge
O1    O     O_R   0.363150 0.714660 0.500000 -0.613622
O2    O     O_R   0.636850 0.285340 0.500000 -0.612172
O3    O     O_R   0.636850 0.714660 0.500000 -0.613629
O4    O     O_R   0.363150 0.285340 0.500000 -0.612171
C1    C     C_R   0.500001 0.781983 0.500000 0.942899
C2    C     C_R   0.499999 0.218018 0.500000 0.942559
O5    O     O_R   0.346950 0.500000 0.615800 -0.623386
O6    O     O_R   0.653050 0.500000 0.384200 -0.623373
O7    O     O_R   0.620700 0.500000 0.615800 -0.616632
O8    O     O_R   0.379300 0.500000 0.384200 -0.616644
C3    C     C_R   0.477015 0.505036 0.654213 0.897774
C4    C     C_R   0.522979 0.505036 0.345786 0.897755
Zn1   Zn    Zn3+2 0.317220 0.500000 0.500010 0.980835
Zn2   Zn    Zn3+2 0.682780 0.500000 0.499990 0.980834
N1    N     N_1   0.926360 0.500000 0.499990 -0.037158
N2    N     N_1   0.073640 0.500000 0.500010 -0.037160
C5    C     C_R   0.463026 0.547746 0.739362 -0.150197
C6    C     C_R   0.536910 0.547775 0.260641 -0.150169
C7    C     C_R   0.603694 0.547135 0.781731 -0.315326
C8    C     C_R   0.396185 0.547144 0.218312 -0.315290
C9    C     C_R   0.601204 0.608393 0.859268 0.502041
C10   C     C_R   0.398511 0.608511 0.140807 0.501984
C11   C     C_R   0.455350 0.685331 0.892252 0.052807
C12   C     C_R   0.544316 0.685498 0.107795 0.052949
C13   C     C_R   0.312040 0.684468 0.848457 0.146008
C14   C     C_R   0.687659 0.684731 0.151568 0.146116
C15   C     C_R   0.317079 0.612967 0.773594 -0.203754
C16   C     C_R   0.682763 0.613142 0.226406 -0.203860
C17   C     C_2   0.438810 0.749113 0.975671 -0.194246
C18   C     C_2   0.560788 0.749216 0.024358 -0.194168
C19   C     C_1   0.500001 0.934762 0.500000 -0.191338
C20   C     C_1   0.499999 0.065224 0.500000 -0.196147
H1    H     H_    0.718285 0.503529 0.752748 0.169860
H2    H     H_    0.281656 0.503497 0.247333 0.169859
H3    H     H_    0.791313 0.615522 0.260154 0.173618
H4    H     H_    0.208548 0.615280 0.739832 0.173647
H5    H     H_    0.683135 0.775096 0.997676 0.230137
H6    H     H_    0.316452 0.775015 0.002325 0.230167
C21   C     C_3   0.152161 0.760466 0.879371 -0.893335
H7    H     H_    0.057908 0.756436 0.834702 0.260968
H8    H     H_    0.098332 0.703588 0.934936 0.249504
H9    H     H_    0.175624 0.880409 0.892443 0.240268
C22   C     C_3   0.847389 0.761001 0.120680 -0.893480
H10   H     H_    0.941647 0.757076 0.165348 0.260965
H11   H     H_    0.901334 0.704275 0.065096 0.249505
H12   H     H_    0.823692 0.880914 0.107648 0.240343
O9    O     O_3   0.254121 0.607481 0.101134 -0.679506
C23   C     C_3   0.186566 0.461545 0.093192 0.063864
H13   H     H_    0.072178 0.474457 0.061707 0.172731
H14   H     H_    0.146308 0.409552 0.152301 0.135216
C24   C     C_3   0.304692 0.357764 0.042285 -0.391097
H15   H     H_    0.352420 0.419285 0.987147 0.234327
H16   H     H_    0.408499 0.325781 0.078185 0.220302
C25   C     C_3   0.220911 0.214492 0.016777 -0.957784
H17   H     H_    0.153093 0.159138 0.069643 0.271568
H18   H     H_    0.316069 0.135591 0.989557 0.271487
H19   H     H_    0.134785 0.240883 0.970412 0.265840
O10   O     O_3   0.745465 0.607170 0.899035 -0.679526
C26   C     C_3   0.812594 0.461094 0.907085 0.063843
H20   H     H_    0.926932 0.473798 0.938630 0.172676
H21   H     H_    0.852812 0.408931 0.848012 0.135190
C27   C     C_3   0.694045 0.357639 0.957973 -0.390881
H22   H     H_    0.646240 0.419392 0.013021 0.234328
H23   H     H_    0.590322 0.325763 0.921996 0.220186
C28   C     C_3   0.777356 0.214262 0.983686 -0.957868
H24   H     H_    0.845219 0.158625 0.930918 0.271578
H25   H     H_    0.681907 0.135615 0.010899 0.271477
H26   H     H_    0.863359 0.240607 0.030113 0.265903

loop_
_geom_bond_atom_site_label_1
_geom_bond_atom_site_label_2
_geom_bond_distance
_ccdc_geom_bond_type
C17   H6    1.076112 S    
C2    C20   1.361980 S    
O7    Zn2   1.946672 S    
C27   H22   1.108509 S    
C15   H4    1.083905 S    
C13   C15   1.395226 A    
C17   C18   1.330751 D    
O7    C3    1.280043 A    
C14   C16   1.395247 A    
O9    C23   1.422016 S    
O5    Zn1   1.959650 S    
O6    C4    1.279859 A    
C28   H26   1.108823 S    
C8    H2    1.081214 S    
C24   C25   1.523764 S    
C23   H14   1.109380 S    
C10   O9    1.392375 S    
C26   H20   1.109513 S    
C21   H8    1.109292 S    
C19   C20   1.162916 T    
C13   C21   1.512785 S    
O5    C3    1.279815 A    
C22   H11   1.109231 S    
O2    C2    1.261532 A    
O3    Zn2   1.949352 S    
O8    C4    1.280007 A    
O1    C1    1.261535 A    
C11   C17   1.493523 S    
C7    C9    1.397907 A    
C23   H13   1.109526 S    
C5    C7    1.391160 A    
C12   C14   1.423383 A    
C14   C22   1.512748 S    
C21   H9    1.110673 S    
C10   C12   1.434454 A    
C11   C13   1.423359 A    
C22   H10   1.110963 S    
O2    Zn2   1.949343 S    
C22   H12   1.110637 S    
C25   H18   1.111026 S    
C26   H21   1.109443 S    
C12   C18   1.493569 S    
O1    Zn1   1.949342 S    
C21   H7    1.110968 S    
C24   H15   1.108494 S    
C5    C15   1.394949 A    
O3    C1    1.261540 A    
C9    O10   1.392314 S    
C6    C16   1.394882 A    
C24   H16   1.110095 S    
C16   H3    1.083904 S    
C6    C8    1.391176 A    
O4    C2    1.261535 A    
C28   H24   1.111008 S    
C7    H1    1.081275 S    
Zn1   N2    1.975095 S    
C4    C6    1.460176 S    
O4    Zn1   1.949353 S    
Zn2   N1    1.975095 S    
C3    C5    1.460166 S    
C26   C27   1.532700 S    
C27   H23   1.110073 S    
O6    Zn2   1.959650 S    
C27   C28   1.523852 S    
C1    C19   1.361848 S    
O10   C26   1.422049 S    
C25   H17   1.110946 S    
C9    C11   1.434434 A    
C25   H19   1.108830 S    
C23   C24   1.532641 S    
N1    N2    1.194265 T    
C18   H5    1.076131 S    
C8    C10   1.397887 A    
C28   H25   1.111097 S    
O8    Zn1   1.946672 S    
