data_mof_unit_57341.cif
_audit_creation_date              2012-12-10T16:52:37-0500
_audit_creation_method            fapswitch 2.2
_symmetry_space_group_name_H-M    P1
_symmetry_Int_Tables_number       1
_space_group_crystal_system       triclinic
_cell_length_a                    7.845918
_cell_length_b                    8.556522
_cell_length_c                    13.623021
_cell_angle_alpha                 93.367063
_cell_angle_beta                  92.869521
_cell_angle_gamma                 94.323017
_cell_volume                      909.023549443

loop_
_atom_site_label
_atom_site_type_symbol
_atom_type_description
_atom_site_fract_x
_atom_site_fract_y
_atom_site_fract_z
_atom_type_partial_charge
C1    C     C_R   0.045232 0.794697 0.497555 0.992424
C2    C     C_R   0.937603 0.489136 0.317615 0.950757
C3    C     C_R   0.091731 0.526810 0.788359 -0.180994
C4    C     C_R   0.908308 0.472841 0.211652 -0.179604
C5    C     C_R   0.063636 0.673633 0.942608 -0.124070
C6    C     C_R   0.936269 0.325456 0.057570 -0.155356
C7    C     C_R   0.011026 0.639448 0.844213 -0.241665
C8    C     C_R   0.988779 0.359811 0.155970 -0.260103
C9    C     C_R   0.217912 0.442856 0.831779 0.347458
C10   C     C_R   0.782311 0.556812 0.168077 0.344617
C11   C     C_R   0.299742 0.506106 0.921153 -0.041268
C12   C     C_R   0.954746 0.205293 0.502355 0.984070
C13   C     C_R   0.700560 0.493469 0.078757 -0.031536
C14   C     C_R   0.210692 0.610637 0.980856 0.096006
C15   C     C_R   0.789476 0.388688 0.019168 0.088868
C16   C     C_R   0.468176 0.474589 0.951670 0.080591
C17   C     C_R   0.532189 0.525043 0.048235 0.093430
C18   C     C_R   0.422261 0.596629 0.112990 -0.110407
C19   C     C_R   0.578109 0.402903 0.886955 -0.118728
C20   C     C_R   0.268795 0.648466 0.078058 -0.158427
C21   C     C_R   0.731461 0.350856 0.921947 -0.166470
C22   C     C_2   0.068660 0.958526 0.496061 -0.315195
C23   C     C_2   0.931255 0.041436 0.503626 -0.275539
C24   C     C_R   0.062406 0.510840 0.682385 0.952589
H1    H     H_    0.194489 0.716082 0.127452 0.199040
H2    H     H_    0.340021 0.112929 0.672150 0.375973
H3    H     H_    0.996299 0.755880 0.986792 0.197438
H4    H     H_    0.003451 0.242930 0.013508 0.198132
H5    H     H_    0.197993 0.010288 0.488809 0.172761
H6    H     H_    0.801896 0.989661 0.510795 0.182696
H7    H     H_    0.805731 0.283069 0.872602 0.200932
H8    H     H_    0.090726 0.298018 0.188657 0.191200
H9    H     H_    0.908852 0.701110 0.811655 0.190339
H10   H     H_    0.454267 0.615171 0.190711 0.199760
H11   H     H_    0.545965 0.384182 0.809261 0.212127
H12   H     H_    0.486783 0.373659 0.427253 0.188953
H13   H     H_    0.513214 0.626316 0.572763 0.189180
H14   H     H_    0.703147 0.970783 0.143761 0.387422
N1    N     N_2   0.440860 0.456490 0.474790 -0.146100
N2    N     N_2   0.559140 0.543510 0.525210 -0.145863
O1    O     O_R   0.891570 0.738930 0.506190 -0.594510
O2    O     O_2   0.952783 0.827799 0.237718 -0.350131
O3    O     O_3   0.693289 0.859951 0.117291 -0.557829
O4    O     O_2   0.298532 0.149811 0.871531 -0.300874
O5    O     O_2   0.048814 0.172332 0.760018 -0.350388
O6    O     O_3   0.348136 0.226462 0.692357 -0.566265
O7    O     O_R   0.108430 0.261070 0.493810 -0.598317
O8    O     O_R   0.174650 0.711050 0.490030 -0.630061
O9    O     O_R   0.825350 0.288950 0.509970 -0.626733
O10   O     O_R   0.909850 0.521900 0.644940 -0.626571
O11   O     O_R   0.090150 0.478100 0.355060 -0.624250
O12   O     O_R   0.192930 0.494020 0.628780 -0.579820
O13   O     O_R   0.807070 0.505980 0.371220 -0.591049
O14   O     O_2   0.666950 0.773513 0.296441 -0.314640
S1    S     S_3+6 0.774357 0.758631 0.208523 -0.025126
S2    S     S_3+6 0.226800 0.241493 0.790367 -0.023729
Zn1   Zn    Zn3+2 0.810990 0.518620 0.510790 0.999208
Zn2   Zn    Zn3+2 0.189010 0.481380 0.489210 0.995645

loop_
_geom_bond_atom_site_label_1
_geom_bond_atom_site_label_2
_ccdc_geom_bond_type
C24   O12   A    
C2    C4    S    
C10   C13   A    
C1    O8    A    
O8    Zn2   S    
C3    C9    A    
C22   H5    S    
O2    S1    D    
C9    C11   A    
C11   C16   A    
O4    S2    D    
C18   C20   A    
C13   C17   A    
C4    C8    A    
C17   C18   A    
C5    C14   A    
O1    Zn1   S    
C1    C22   S    
C9    S2    S    
C19   H11   S    
O7    Zn2   S    
C10   S1    S    
C21   H7    S    
C12   C23   S    
C3    C24   S    
C15   C21   A    
O12   Zn2   S    
C18   H10   S    
C12   O7    A    
N1    Zn2   S    
O3    S1    S    
C19   C21   A    
C12   O9    A    
H13   N2    S    
C3    C7    A    
C13   C15   A    
C24   O10   A    
C11   C14   A    
C2    O11   A    
H2    O6    S    
C4    C10   A    
C8    H8    S    
C23   H6    S    
C14   C20   A    
H14   O3    S    
O9    Zn1   S    
C5    C7    A    
C20   H1    S    
O6    S2    S    
N1    N2    D    
O11   Zn2   S    
C7    H9    S    
O13   Zn1   S    
O14   S1    D    
C6    C8    A    
N2    Zn1   S    
C6    C15   A    
C5    H3    S    
O10   Zn1   S    
H12   N1    S    
C22   C23   D    
C6    H4    S    
C1    O1    A    
O5    S2    D    
C16   C17   A    
C2    O13   A    
C16   C19   A    
