data_mof_unit_23239.cif
_audit_creation_date              2012-12-11T14:08:30-0500
_audit_creation_method            fapswitch 2.2
_symmetry_space_group_name_H-M    P1
_symmetry_Int_Tables_number       1
_space_group_crystal_system       triclinic
_cell_length_a                    28.150981
_cell_length_b                    7.187244
_cell_length_c                    17.377044
_cell_angle_alpha                 90.000369
_cell_angle_beta                  101.911723
_cell_angle_gamma                 90.00075
_cell_volume                      3440.1541735

loop_
_atom_site_label
_atom_site_type_symbol
_atom_type_description
_atom_site_fract_x
_atom_site_fract_y
_atom_site_fract_z
_atom_type_partial_charge
O1    O     O_R   0.000700 0.436510 0.857920 -0.529789
O2    O     O_R   0.999300 0.563490 0.142080 -0.557401
O3    O     O_R   0.999300 0.936510 0.642080 -0.558045
O4    O     O_R   0.000700 0.063490 0.357920 -0.529427
O5    O     O_R   0.930080 0.766380 0.721890 -0.531415
O6    O     O_R   0.069920 0.233620 0.278110 -0.524429
O7    O     O_R   0.069920 0.266380 0.778110 -0.526170
O8    O     O_R   0.930080 0.733620 0.221890 -0.529571
C1    C     C_R   0.910493 0.597243 0.711635 0.732794
C2    C     C_R   0.089531 0.402717 0.289708 0.754144
C3    C     C_R   0.089509 0.097256 0.788418 0.754232
C4    C     C_R   0.910471 0.902724 0.210339 0.733588
O9    O     O_R   0.996180 0.766230 0.862310 -0.527917
O10   O     O_R   0.003820 0.233770 0.137690 -0.542254
O11   O     O_R   0.003820 0.266230 0.637690 -0.540418
O12   O     O_R   0.996180 0.733770 0.362310 -0.529870
O13   O     O_R   0.065870 0.936460 0.783500 -0.544704
O14   O     O_R   0.934130 0.063540 0.216500 -0.542976
O15   O     O_R   0.934130 0.436460 0.716500 -0.543189
O16   O     O_R   0.065870 0.563540 0.283500 -0.545035
C5    C     C_R   0.998433 0.596043 0.894105 0.819118
C6    C     C_R   0.000576 0.404457 0.105437 0.689154
C7    C     C_R   0.000608 0.095537 0.605447 0.693112
C8    C     C_R   0.998460 0.903958 0.394114 0.814896
O17   O     O_3   0.022790 0.603020 0.723980 -0.389750
O18   O     O_3   0.977210 0.396980 0.276020 -0.359194
O19   O     O_3   0.977210 0.103020 0.776020 -0.359576
O20   O     O_3   0.022790 0.896980 0.223980 -0.389217
V1    V     V_3+5 0.995770 0.877900 0.754830 1.525488
V2    V     V_3+5 0.004230 0.122100 0.245170 1.528177
V3    V     V_3+5 0.004230 0.377900 0.745170 1.526364
V4    V     V_3+5 0.995770 0.622100 0.254830 1.527026
C9    C     C_2   0.992318 0.077897 0.518111 -0.247744
C10   C     C_2   0.003079 0.917096 0.480780 -0.208115
C11   C     C_2   0.002990 0.582940 0.980760 -0.206447
C12   C     C_2   0.992247 0.422115 0.018090 -0.249091
C13   C     C_R   0.683922 0.000877 0.022709 0.634594
C14   C     C_R   0.317298 0.034184 0.967047 0.639565
C15   C     C_R   0.316045 0.501056 0.477713 0.636209
C16   C     C_R   0.682678 0.534394 0.533390 0.637924
O21   O     O_2   0.712173 0.962482 0.970796 -0.466913
O22   O     O_2   0.287935 0.054404 0.018747 -0.469838
O23   O     O_2   0.287780 0.462747 0.529613 -0.465194
O24   O     O_2   0.712030 0.554721 0.481679 -0.471730
N1    N     N_R   0.703249 0.986125 0.101399 -0.572416
N2    N     N_R   0.297799 0.040872 0.888248 -0.575279
N3    N     N_R   0.296729 0.486253 0.399021 -0.572480
N4    N     N_R   0.702186 0.541023 0.612187 -0.575161
C17   C     C_R   0.674436 0.003103 0.155548 0.616428
C18   C     C_R   0.327286 0.041468 0.834751 0.632240
C19   C     C_R   0.325550 0.503196 0.344882 0.615652
C20   C     C_R   0.672703 0.541574 0.665693 0.633037
C21   C     C_R   0.773288 0.808612 0.176845 -0.140385
C22   C     C_R   0.225364 0.200459 0.811660 -0.140297
C23   C     C_R   0.226733 0.308507 0.323606 -0.136343
C24   C     C_R   0.774667 0.700330 0.688814 -0.144850
C25   C     C_R   0.823447 0.788053 0.207257 -0.077125
C26   C     C_R   0.174906 0.214972 0.783874 -0.078211
C27   C     C_R   0.176586 0.287895 0.293098 -0.077542
C28   C     C_R   0.825137 0.714780 0.716503 -0.077012
C29   C     C_R   0.837706 0.065073 0.134538 -0.208928
C30   C     C_R   0.164390 0.938138 0.859480 -0.197409
C31   C     C_R   0.162259 0.565134 0.365629 -0.193409
C32   C     C_R   0.835574 0.438177 0.640709 -0.211046
C33   C     C_R   0.787827 0.086875 0.107283 -0.077455
C34   C     C_R   0.214685 0.921968 0.884058 -0.069995
C35   C     C_R   0.212130 0.586959 0.392990 -0.079845
C36   C     C_R   0.785273 0.422040 0.616236 -0.067935
C37   C     C_R   0.755099 0.958963 0.127884 0.359817
C38   C     C_R   0.245647 0.053992 0.861155 0.352796
C39   C     C_R   0.244885 0.458989 0.372510 0.358155
C40   C     C_R   0.754343 0.554015 0.639258 0.354291
C41   C     C_R   0.603207 0.043112 0.050133 -0.073097
C42   C     C_R   0.398653 0.051299 0.940553 -0.084592
C43   C     C_R   0.396771 0.543210 0.450310 -0.073021
C44   C     C_R   0.601328 0.551397 0.559901 -0.084682
C45   C     C_R   0.634389 0.046977 0.995762 -0.046812
C46   C     C_R   0.367980 0.014732 0.994104 -0.045041
C47   C     C_R   0.365583 0.547108 0.504673 -0.047639
C48   C     C_R   0.631999 0.514880 0.506343 -0.044210
C49   C     C_R   0.614420 0.086770 0.915828 -0.039873
C50   C     C_R   0.389160 0.965362 0.072587 -0.011723
C51   C     C_R   0.385552 0.586872 0.584611 -0.040073
C52   C     C_R   0.610819 0.465474 0.427864 -0.011468
C53   C     C_R   0.623141 0.017568 0.131274 -0.053698
C54   C     C_R   0.378014 0.072249 0.859590 -0.060401
C55   C     C_R   0.376843 0.517649 0.369168 -0.053335
C56   C     C_R   0.621971 0.572327 0.640864 -0.060723
C57   C     C_R   0.856607 0.916494 0.184564 -0.051760
C58   C     C_R   0.143497 0.084917 0.810084 -0.068586
C59   C     C_R   0.143393 0.416466 0.315619 -0.068590
C60   C     C_R   0.856506 0.584869 0.690115 -0.050718
H1    H     H_    0.861712 0.165704 0.115978 0.139282
H2    H     H_    0.141653 0.835820 0.880107 0.159828
H3    H     H_    0.138231 0.665834 0.384086 0.161557
H4    H     H_    0.858284 0.335920 0.619981 0.139821
H5    H     H_    0.774564 0.204726 0.070195 0.151930
H6    H     H_    0.229587 0.806912 0.921613 0.156771
H7    H     H_    0.225367 0.704893 0.430046 0.153513
H8    H     H_    0.770341 0.307075 0.578649 0.155344
C61   C     C_R   0.480449 0.105395 0.915037 0.041725
C62   C     C_R   0.521155 0.059602 0.077653 0.048791
C63   C     C_R   0.519530 0.605435 0.585424 0.041723
C64   C     C_R   0.478827 0.559664 0.422802 0.048813
C65   C     C_R   0.470140 0.038051 0.048897 0.082773
C66   C     C_R   0.531993 0.085650 0.941757 0.084720
C67   C     C_R   0.529840 0.538113 0.451561 0.082729
C68   C     C_R   0.467984 0.585709 0.558697 0.084721
C69   C     C_R   0.449843 0.064098 0.968005 0.032825
C70   C     C_R   0.552055 0.062860 0.023151 0.037236
C71   C     C_R   0.550136 0.564164 0.532452 0.032767
C72   C     C_R   0.447924 0.562934 0.477300 0.037289
C73   C     C_R   0.458145 0.164639 0.837621 -0.048023
C74   C     C_R   0.542522 0.071538 0.159202 -0.053931
C75   C     C_R   0.541836 0.664638 0.662847 -0.047990
C76   C     C_R   0.457464 0.571584 0.341251 -0.054009
C77   C     C_R   0.408203 0.129682 0.807603 -0.094839
C78   C     C_R   0.591707 0.021966 0.185673 -0.140298
C79   C     C_R   0.591780 0.629689 0.692859 -0.094799
C80   C     C_R   0.408281 0.522003 0.314776 -0.140394
O25   O     O_2   0.307441 0.009122 0.758510 -0.462294
O26   O     O_2   0.695771 0.013657 0.232386 -0.478320
O27   O     O_2   0.692553 0.509188 0.741928 -0.461966
O28   O     O_2   0.304222 0.513715 0.268040 -0.478675
C81   C     C_R   0.564168 0.084918 0.889433 -0.210422
C82   C     C_R   0.439416 0.975658 0.098053 -0.164650
C83   C     C_R   0.435804 0.584981 0.611013 -0.210253
C84   C     C_R   0.560564 0.475716 0.402405 -0.164790
C85   C     C_2   0.965571 0.236898 0.474299 0.453733
H9    H     H_    0.974540 0.378297 0.493752 0.039331
O29   O     O_2   0.931220 0.210911 0.419676 -0.502778
C86   C     C_2   0.025784 0.751061 0.524642 0.402302
H10   H     H_    0.007552 0.676424 0.564339 0.080037
O30   O     O_2   0.064462 0.691539 0.513638 -0.520223
C87   C     C_2   0.025586 0.749136 0.024624 0.404409
H11   H     H_    0.007255 0.823738 0.064203 0.078573
O31   O     O_2   0.064278 0.808820 0.013752 -0.519026
C88   C     C_2   0.965461 0.263184 0.974275 0.452820
H12   H     H_    0.974351 0.121765 0.993782 0.039980
O32   O     O_2   0.931155 0.289274 0.919586 -0.503979
C89   C     C_2   0.643385 0.153230 0.858797 0.598577
H13   H     H_    0.629767 0.133949 0.796147 0.040271
O33   O     O_2   0.680451 0.243723 0.880329 -0.471519
C90   C     C_2   0.361579 0.886320 0.129048 0.506332
H14   H     H_    0.373788 0.912164 0.191582 0.054418
O34   O     O_2   0.327419 0.780947 0.107314 -0.483939
C91   C     C_2   0.356588 0.653328 0.641643 0.598879
H15   H     H_    0.370200 0.634000 0.704291 0.040172
O35   O     O_2   0.319532 0.743878 0.620116 -0.471116
C92   C     C_2   0.638404 0.386438 0.371406 0.505943
H16   H     H_    0.626186 0.412222 0.308869 0.054513
O36   O     O_2   0.672577 0.281135 0.393146 -0.484405
C93   C     C_2   0.157790 0.361789 0.724690 0.444620
H17   H     H_    0.178666 0.489028 0.725353 0.065049
O37   O     O_2   0.122309 0.338299 0.671868 -0.505291
C94   C     C_2   0.838299 0.637583 0.265614 0.448922
H18   H     H_    0.816358 0.512510 0.262613 0.064328
O38   O     O_2   0.873029 0.655578 0.320219 -0.503856
C95   C     C_2   0.842317 0.861347 0.775779 0.450671
H19   H     H_    0.821445 0.988538 0.775297 0.067586
O39   O     O_2   0.877855 0.837680 0.828478 -0.507506
C96   C     C_2   0.161793 0.137202 0.234829 0.442411
H20   H     H_    0.183736 0.012105 0.237992 0.062409
O40   O     O_2   0.127119 0.155026 0.180119 -0.502725
H21   H     H_    0.249361 0.301430 0.793185 0.147610
H22   H     H_    0.747887 0.710767 0.193522 0.141851
H23   H     H_    0.750698 0.801239 0.707401 0.147815
H24   H     H_    0.252157 0.210603 0.307036 0.141712
C97   C     C_2   0.388061 0.173998 0.723575 0.439853
H25   H     H_    0.406467 0.124839 0.678420 0.076229
O41   O     O_2   0.352400 0.273147 0.704620 -0.497754
C98   C     C_2   0.608100 0.960714 0.268634 0.598130
H26   H     H_    0.600078 0.041847 0.316802 0.016209
O42   O     O_2   0.629116 0.812344 0.283534 -0.496307
C99   C     C_2   0.611921 0.673931 0.776895 0.439628
H27   H     H_    0.593512 0.624725 0.822039 0.076289
O43   O     O_2   0.647583 0.773069 0.795870 -0.497839
C100  C     C_2   0.391896 0.460675 0.231823 0.598380
H28   H     H_    0.399927 0.541751 0.183646 0.016190
O44   O     O_2   0.370877 0.312303 0.216941 -0.496209
C101  C     C_2   0.483125 0.298678 0.793875 0.309640
H29   H     H_    0.478052 0.291777 0.730413 0.065783
O45   O     O_2   0.508912 0.421329 0.828854 -0.547110
C102  C     C_2   0.516183 0.162446 0.215211 0.315922
H30   H     H_    0.524319 0.130210 0.277299 0.079870
O46   O     O_2   0.485502 0.280833 0.192104 -0.543887
C103  C     C_2   0.516857 0.798636 0.706611 0.309572
H31   H     H_    0.521927 0.791681 0.770071 0.065855
O47   O     O_2   0.491074 0.921318 0.671649 -0.547107
C104  C     C_2   0.483807 0.662476 0.285242 0.315931
H32   H     H_    0.475675 0.630215 0.223157 0.079840
O48   O     O_2   0.514487 0.780870 0.308348 -0.543874
H33   H     H_    0.550986 0.087439 0.826716 0.117070
H34   H     H_    0.454568 0.926071 0.156607 0.112513
H35   H     H_    0.448983 0.587476 0.673731 0.117012
H36   H     H_    0.545411 0.426095 0.343856 0.112537

loop_
_geom_bond_atom_site_label_1
_geom_bond_atom_site_label_2
_ccdc_geom_bond_type
C81   H33   S    
C52   C84   A    
O1    C5    A    
C104  H32   S    
C23   C27   A    
C46   C50   A    
O19   V1    S    
O13   V1    S    
C97   H25   S    
O3    C7    A    
C91   H15   S    
C28   C95   S    
C48   C52   A    
C21   C37   A    
C42   C69   A    
C100  H28   S    
C87   H11   S    
C99   O43   D    
C101  H29   S    
C33   C37   A    
O7    C3    A    
C66   C81   A    
C43   C72   A    
C25   C57   A    
C65   C82   A    
C32   C36   A    
C63   C71   A    
C94   H18   S    
C91   O35   D    
O10   V2    S    
C67   C84   A    
C14   O22   S    
C89   O33   D    
C95   H19   S    
C22   C26   A    
O4    C8    A    
C20   O27   S    
C29   H1    S    
C61   C69   A    
C31   H3    S    
O1    V3    S    
C61   C73   A    
C102  H30   S    
C62   C65   A    
O2    V4    S    
O3    V1    S    
C80   C100  S    
C50   C82   A    
C76   C104  S    
C79   C99   S    
C64   C76   A    
C1    O15   A    
C73   C101  S    
C11   C12   D    
C2    O16   A    
C86   H10   S    
C24   C40   A    
O2    C6    A    
C95   O39   D    
C63   C68   A    
O14   V2    S    
N1    C17   A    
C93   O37   D    
C44   C56   A    
O5    V1    S    
C35   H7    S    
C68   C72   A    
O11   C7    A    
C49   C89   S    
O15   V3    S    
O12   C8    A    
C19   O28   S    
C97   O41   D    
C31   C59   A    
C18   O25   S    
C23   H24   S    
N4    C40   S    
C1    C60   S    
C29   C57   A    
C96   O40   D    
C101  O45   D    
C25   C94   S    
C31   C35   A    
O7    V3    S    
C30   C34   A    
N1    C37   S    
O8    V4    S    
C17   C53   A    
C4    C57   S    
C41   C70   A    
C32   H4    S    
C50   C90   S    
C19   C55   A    
C64   C72   A    
C21   C25   A    
O18   V4    S    
C15   O23   S    
C14   C46   A    
C7    C9    S    
C13   C45   A    
C8    C10   S    
C76   C80   A    
C36   C40   A    
C15   C47   A    
C63   C75   A    
C36   H8    S    
O5    C1    A    
C62   C74   A    
C26   C93   S    
C83   H35   S    
C75   C103  S    
C82   H34   S    
C100  O44   D    
C99   H27   S    
C22   C38   A    
N4    C20   A    
O8    C4    A    
N3    C39   S    
C16   C48   A    
C9    C10   D    
C55   C80   A    
O9    C5    A    
C92   O36   D    
C27   C59   A    
C42   C54   A    
C56   C79   A    
C26   C58   A    
C41   C53   A    
C74   C78   A    
C88   O32   D    
C86   O30   D    
C51   C91   S    
C90   O34   D    
O6    V2    S    
C2    C59   S    
C75   C79   A    
C30   H2    S    
C73   C77   A    
C62   C70   A    
C44   C48   A    
C32   C60   A    
C22   H21   S    
C13   N1    A    
C103  O47   D    
C98   H26   S    
C15   N3    A    
C96   H20   S    
O16   V4    S    
O9    V1    S    
C61   C66   A    
C87   O31   D    
C65   C69   A    
C9    C85   S    
C3    O13   A    
C104  O48   D    
C49   C81   A    
C67   C71   A    
O17   V3    S    
C11   C87   S    
C84   H36   S    
C51   C83   A    
C90   H14   S    
O6    C2    A    
N3    C19   A    
O11   V3    S    
C5    C11   S    
O12   V4    S    
C6    C12   S    
N2    C18   A    
C77   C97   S    
C78   C98   S    
O10   C6    A    
C94   O38   D    
C85   H9    S    
C33   H5    S    
C103  H31   S    
C27   C96   S    
C89   H13   S    
C14   N2    A    
C47   C51   A    
C3    C58   S    
C34   H6    S    
C34   C38   A    
C43   C47   A    
C44   C71   A    
C74   C102  S    
C17   O26   S    
C30   C58   A    
C24   H23   S    
O20   V2    S    
C98   O42   D    
C102  O46   D    
C54   C77   A    
C35   C39   A    
C68   C83   A    
C13   O21   S    
C53   C78   A    
C20   C56   A    
O4    V2    S    
N2    C38   S    
C88   H12   S    
C18   C54   A    
C10   C86   S    
C29   C33   A    
C21   H22   S    
C16   O24   S    
C24   C28   A    
C66   C70   A    
C45   C49   A    
C42   C46   A    
C4    O14   A    
C41   C45   A    
C92   H16   S    
C93   H17   S    
C28   C60   A    
C12   C88   S    
C16   N4    A    
C64   C67   A    
C23   C39   A    
C43   C55   A    
C85   O29   D    
C52   C92   S    
