data_mof_unit_64451.cif
_audit_creation_date              2012-10-26T18:42:44-0400
_audit_creation_method            fapswitch 2.2
_symmetry_space_group_name_H-M    P1
_symmetry_Int_Tables_number       1
_space_group_crystal_system       triclinic
_cell_length_a                    19.458188
_cell_length_b                    18.114795
_cell_length_c                    23.532964
_cell_angle_alpha                 89.996226
_cell_angle_beta                  90.196698
_cell_angle_gamma                 90.001703
_cell_volume                      8294.87582157

loop_
_atom_site_label
_atom_site_type_symbol
_atom_type_description
_atom_site_fract_x
_atom_site_fract_y
_atom_site_fract_z
_atom_type_partial_charge
C1    C     C_R   0.367504 0.499999 0.499901 0.552141
C2    C     C_R   0.500405 0.566957 0.701978 -0.134396
C3    C     C_R   0.499483 0.566929 0.238785 -0.048571
C4    C     C_R   0.500465 0.566862 0.761227 -0.048953
C5    C     C_R   0.499522 0.500041 0.208945 0.234387
C6    C     C_R   0.500477 0.499958 0.791055 0.234387
C7    C     C_R   0.744353 0.433070 0.500228 -0.115855
C8    C     C_R   0.255647 0.566930 0.499772 -0.115855
C9    C     C_R   0.255652 0.433051 0.499617 -0.114946
C10   C     C_R   0.744348 0.566948 0.500383 -0.114946
C11   C     C_R   0.815916 0.433100 0.500265 -0.107320
C12   C     C_R   0.632496 0.500001 0.500099 0.552141
C13   C     C_R   0.184084 0.566900 0.499735 -0.107320
C14   C     C_R   0.184090 0.433069 0.499622 -0.106597
C15   C     C_R   0.815910 0.566931 0.500378 -0.106597
C16   C     C_R   0.852234 0.500019 0.500291 0.029086
C17   C     C_R   0.147766 0.499981 0.499709 0.029086
C18   C     C_R   0.707977 0.500006 0.500240 0.012315
C19   C     C_R   0.292023 0.499994 0.499760 0.012314
C20   C     C_R   0.499867 0.500003 0.390772 0.557962
C21   C     C_R   0.500133 0.499997 0.609228 0.557961
C22   C     C_R   0.963977 0.548843 0.464844 -0.102556
C23   C     C_R   0.499538 0.433139 0.238773 -0.048953
C24   C     C_R   0.036023 0.451157 0.535156 -0.102556
C25   C     C_R   0.035538 0.548818 0.464684 -0.101915
C26   C     C_R   0.964462 0.451182 0.535316 -0.101915
C27   C     C_R   0.072104 0.499974 0.499839 0.029520
C28   C     C_R   0.927896 0.500026 0.500162 0.029520
C29   C     C_R   0.456861 0.720976 0.464510 0.061578
C30   C     C_R   0.543139 0.279024 0.535490 0.061578
C31   C     C_R   0.543139 0.720973 0.535490 0.061716
C32   C     C_R   0.456860 0.279027 0.464510 0.061715
C33   C     C_R   0.455823 0.798551 0.463676 0.172552
C34   C     C_R   0.500512 0.433070 0.761215 -0.048571
C35   C     C_R   0.544177 0.201449 0.536324 0.172551
C36   C     C_R   0.544178 0.798548 0.536323 0.172422
C37   C     C_R   0.455822 0.201452 0.463677 0.172423
C38   C     C_R   0.500000 0.838751 0.499999 0.022899
C39   C     C_R   0.500000 0.161249 0.500000 0.022899
C40   C     C_R   0.558588 0.961213 0.483091 -0.038247
C41   C     C_R   0.441412 0.038787 0.516909 -0.038247
C42   C     C_R   0.441412 0.961206 0.516908 -0.038317
C43   C     C_R   0.558588 0.038794 0.483091 -0.038317
C44   C     C_R   0.500000 0.078507 0.500000 0.096731
C45   C     C_R   0.499599 0.433043 0.298022 -0.134396
C46   C     C_R   0.500000 0.921493 0.500000 0.096731
C47   C     C_R   0.556955 0.525412 0.880732 0.405817
C48   C     C_R   0.443045 0.474586 0.119268 0.405817
C49   C     C_R   0.443624 0.474495 0.880241 0.404713
C50   C     C_R   0.556375 0.525507 0.119759 0.404713
C51   C     C_R   0.442359 0.473847 0.939843 0.030592
C52   C     C_R   0.557640 0.526154 0.060157 0.030592
C53   C     C_R   0.500074 0.499986 0.970011 -0.026777
C54   C     C_R   0.499926 0.500013 0.029989 -0.026777
C55   C     C_R   0.557934 0.526101 0.940346 0.030266
C56   C     C_R   0.500449 0.433002 0.701967 -0.134617
C57   C     C_R   0.442066 0.473898 0.059654 0.030266
C58   C     C_R   0.384902 0.447966 0.969855 -0.115430
C59   C     C_R   0.615097 0.552035 0.030145 -0.115429
C60   C     C_R   0.384758 0.447990 0.029141 -0.114907
C61   C     C_R   0.615242 0.552009 0.970858 -0.114907
C62   C     C_R   0.499670 0.500013 0.328203 0.000116
C63   C     C_R   0.500330 0.499987 0.671797 0.000116
C64   C     C_R   0.499547 0.566997 0.298033 -0.134617
Cl1   Cl    Cl    0.400346 0.843098 0.415385 -0.572636
Cl2   Cl    Cl    0.599654 0.156902 0.584615 -0.572636
Cl3   Cl    Cl    0.599656 0.843090 0.584613 -0.569840
Cl4   Cl    Cl    0.400344 0.156910 0.415387 -0.569840
Cu1   Cu    Cu3+1 0.500000 0.573360 0.500000 0.956793
Cu2   Cu    Cu3+1 0.500000 0.426640 0.500000 0.956793
H1    H     H_    0.339879 0.427610 0.947664 0.174167
H2    H     H_    0.604295 0.067973 0.469615 0.146453
H3    H     H_    0.339628 0.427652 0.050939 0.175086
H4    H     H_    0.660373 0.572346 0.949060 0.175085
H5    H     H_    0.499754 0.381227 0.215961 0.145705
H6    H     H_    0.500754 0.381147 0.784019 0.145874
H7    H     H_    0.499665 0.380600 0.320123 0.147151
H8    H     H_    0.500509 0.380568 0.679858 0.147069
H9    H     H_    0.499484 0.619431 0.320142 0.147069
H10   H     H_    0.500342 0.619401 0.679877 0.147151
H11   H     H_    0.499238 0.618852 0.215981 0.145874
H12   H     H_    0.660120 0.572391 0.052336 0.174167
H13   H     H_    0.500252 0.618774 0.784039 0.145706
H14   H     H_    0.717598 0.380637 0.500027 0.143105
H15   H     H_    0.282402 0.619363 0.499973 0.143105
H16   H     H_    0.282410 0.380623 0.499394 0.143593
H17   H     H_    0.717590 0.619376 0.500606 0.143593
H18   H     H_    0.842890 0.380813 0.499534 0.122803
H19   H     H_    0.157110 0.619187 0.500466 0.122803
H20   H     H_    0.157112 0.380778 0.498886 0.123437
H21   H     H_    0.842888 0.619221 0.501114 0.123437
H22   H     H_    0.936815 0.586257 0.436762 0.118571
H23   H     H_    0.423178 0.690319 0.436461 0.162257
H24   H     H_    0.063185 0.413743 0.563238 0.118571
H25   H     H_    0.062311 0.586221 0.436491 0.120394
H26   H     H_    0.937689 0.413779 0.563510 0.120394
H27   H     H_    0.576822 0.309681 0.563539 0.162257
H28   H     H_    0.576823 0.690313 0.563538 0.163299
H29   H     H_    0.423177 0.309687 0.436462 0.163299
H30   H     H_    0.604295 0.932040 0.469615 0.146557
H31   H     H_    0.395705 0.067960 0.530385 0.146557
H32   H     H_    0.395705 0.932027 0.530385 0.146453
N1    N     N_R   0.500358 0.499944 0.852019 -0.399732
N2    N     N_R   0.499642 0.500056 0.147981 -0.399732
N3    N     N_R   0.500000 0.683620 0.500000 -0.283504
N4    N     N_R   0.500000 0.316380 0.500000 -0.283504
O1    O     O_R   0.400190 0.561980 0.499990 -0.505013
O2    O     O_2   0.387730 0.450572 0.148351 -0.481440
O3    O     O_2   0.388441 0.450474 0.850678 -0.486343
O4    O     O_2   0.611556 0.549531 0.149321 -0.486343
O5    O     O_R   0.599810 0.438020 0.500010 -0.505013
O6    O     O_R   0.599810 0.561980 0.500010 -0.504475
O7    O     O_R   0.400190 0.438020 0.499990 -0.504474
O8    O     O_R   0.499980 0.561970 0.417880 -0.502343
O9    O     O_R   0.500020 0.438030 0.582120 -0.502342
O10   O     O_R   0.500020 0.561970 0.582120 -0.502395
O11   O     O_R   0.499980 0.438030 0.417880 -0.502395
O12   O     O_2   0.612272 0.549422 0.851649 -0.481440

loop_
_geom_bond_atom_site_label_1
_geom_bond_atom_site_label_2
_ccdc_geom_bond_type
C16   C28   S    
C29   H23   S    
Cu1   O10   S    
C34   C56   A    
C8    C13   A    
C23   C45   A    
C41   C42   A    
C45   C62   A    
C2    C4    A    
C59   H12   S    
C21   O9    A    
Cu1   O1    S    
C36   Cl3   S    
C33   Cl1   S    
C48   C57   A    
C3    C64   A    
C7    C11   A    
C30   H27   S    
C43   H2    S    
C30   C35   A    
C47   C55   A    
C24   C26   A    
C10   C15   A    
Cu1   O6    S    
C58   H1    S    
Cu2   O11   S    
C58   C60   A    
C15   C16   A    
C48   N2    A    
C37   Cl4   S    
C29   C33   A    
C60   H3    S    
C50   O4    S    
C56   H8    S    
C8    H15   S    
C42   C46   A    
C31   H28   S    
C14   H20   S    
C62   C64   A    
C32   C37   A    
C9    C19   A    
C40   C43   A    
C49   C51   A    
C22   C25   A    
C3    H11   S    
C50   C52   A    
C24   C27   A    
C7    H14   S    
C5    N2    S    
C32   N4    A    
C30   N4    A    
C31   N3    A    
C14   C17   A    
C29   N3    A    
C1    O7    A    
C21   O10   A    
C42   H32   S    
C20   O11   A    
C22   C28   A    
C52   C54   A    
C53   C55   A    
Cu2   O7    S    
C26   H26   S    
C10   H17   S    
Cu1   O8    S    
C59   C61   A    
C8    C19   A    
C47   N1    A    
C17   C27   S    
C47   O12   S    
C4    C6    A    
Cu2   N4    S    
Cu1   N3    S    
C57   C60   A    
C35   Cl2   S    
C53   C54   A    
C1    C19   S    
C6    C34   A    
C51   C53   A    
C35   C39   A    
C9    C14   A    
C40   H30   S    
C52   C59   A    
C24   H24   S    
C9    H16   S    
C11   C16   A    
C5    C23   A    
C11   H18   S    
C7    C18   A    
C56   C63   A    
C51   C58   A    
C6    N1    S    
C1    O1    A    
C25   H25   S    
C43   C44   A    
Cu2   O9    S    
C41   C44   A    
C40   C46   A    
C12   O6    A    
C2    C63   A    
C49   O3    S    
C13   H19   S    
C23   H5    S    
C3    C5    A    
C49   N1    A    
C39   C44   S    
C61   H4    S    
C25   C27   A    
C26   C28   A    
C33   C38   A    
C32   H29   S    
C13   C17   A    
C36   C38   A    
C37   C39   A    
C38   C46   S    
C20   O8    A    
C48   O2    S    
C4    H13   S    
C10   C18   A    
C55   C61   A    
C64   H9    S    
C41   H31   S    
C20   C62   S    
Cu1   Cu2   S    
C21   C63   S    
C2    H10   S    
Cu2   O5    S    
C15   H21   S    
C12   C18   S    
C22   H22   S    
C31   C36   A    
C45   H7    S    
C12   O5    A    
C50   N2    A    
C34   H6    S    
C54   C57   A    
