data_mof_unit_12382.cif
_audit_creation_date              2012-12-10T18:45:08-0500
_audit_creation_method            fapswitch 2.2
_symmetry_space_group_name_H-M    P1
_symmetry_Int_Tables_number       1
_space_group_crystal_system       triclinic
_cell_length_a                    10.71899
_cell_length_b                    9.848475
_cell_length_c                    10.624445
_cell_angle_alpha                 89.959782
_cell_angle_beta                  90.045487
_cell_angle_gamma                 89.912779
_cell_volume                      1121.57509682

loop_
_atom_site_label
_atom_site_type_symbol
_atom_type_description
_atom_site_fract_x
_atom_site_fract_y
_atom_site_fract_z
_atom_type_partial_charge
C1    C     C_R   0.259888 0.500022 0.500218 0.880777
C2    C     C_R   0.740091 0.499895 0.500377 0.841770
C3    C     C_R   0.935886 0.623635 0.494786 -0.112836
C4    C     C_R   0.063611 0.623712 0.494595 -0.094852
C5    C     C_R   0.582157 0.071723 0.573262 -0.055606
C6    C     C_R   0.417878 0.072117 0.426718 -0.058159
C7    C     C_R   0.582158 0.927860 0.573273 -0.051595
C8    C     C_R   0.417877 0.928268 0.426720 -0.050785
C9    C     C_R   0.503048 0.500049 0.260432 0.872998
C10   C     C_R   0.502566 0.499959 0.739568 0.874730
C11   C     C_R   0.719510 0.607738 0.130826 -0.281499
C12   C     C_R   0.719121 0.607414 0.868544 -0.298137
C13   C     C_R   0.822084 0.659252 0.065389 0.302245
C14   C     C_R   0.821865 0.659066 0.933535 0.298181
C15   C     C_R   0.614715 0.555575 0.933988 0.050309
C16   C     C_R   0.614882 0.555718 0.065735 0.049368
C17   C     C_R   0.510866 0.499798 0.128216 -0.061419
C18   C     C_R   0.510601 0.499572 0.871748 -0.062823
C19   C     C_R   0.411623 0.440658 0.064374 -0.181683
C20   C     C_R   0.411486 0.440551 0.935760 -0.173455
C21   C     C_R   0.064008 0.376435 0.508235 -0.177100
C22   C     C_R   0.936282 0.376372 0.508375 -0.164104
C23   C     C_R   0.872532 0.499943 0.501238 -0.028989
C24   C     C_R   0.127388 0.500086 0.501015 -0.030684
H1    H     H_    0.333234 0.396844 0.114473 0.157134
H2    H     H_    0.332984 0.396715 0.885802 0.161444
H3    H     H_    0.723637 0.607054 0.232507 0.179356
H4    H     H_    0.722996 0.606464 0.766871 0.174988
H5    H     H_    0.112612 0.280060 0.513758 0.165302
H6    H     H_    0.887972 0.279993 0.514020 0.164512
H7    H     H_    0.887283 0.720010 0.489270 0.174377
H8    H     H_    0.111877 0.720109 0.488909 0.168430
H9    H     H_    0.647848 0.126026 0.631866 0.136804
H10   H     H_    0.352209 0.126728 0.368090 0.135250
H11   H     H_    0.647831 0.873213 0.631907 0.142903
H12   H     H_    0.352195 0.873956 0.368110 0.144927
N1    N     N_R   0.500000 0.857200 0.500000 -0.086924
N2    N     N_R   0.500000 0.142810 0.500000 -0.086207
O1    O     O_R   0.316770 0.614620 0.499990 -0.619853
O2    O     O_R   0.683230 0.614620 0.500010 -0.638150
O3    O     O_R   0.316800 0.385290 0.500000 -0.631395
O4    O     O_R   0.683200 0.385290 0.500000 -0.624182
O5    O     O_R   0.500010 0.614690 0.316770 -0.612271
O6    O     O_R   0.499990 0.614690 0.683230 -0.609298
O7    O     O_R   0.500040 0.385360 0.316770 -0.613949
O8    O     O_R   0.499960 0.385360 0.683230 -0.616156
Zn1   Zn    Zn3+2 0.500000 0.653120 0.500000 0.970026
Zn2   Zn    Zn3+2 0.500000 0.346880 0.500000 0.961242
Br1   Br    Br    0.961319 0.726744 0.159668 -0.495032
Br2   Br    Br    0.960667 0.726100 0.838406 -0.489929

loop_
_geom_bond_atom_site_label_1
_geom_bond_atom_site_label_2
_ccdc_geom_bond_type
C10   O8    A    
C15   C18   A    
C6    C8    A    
C6    N2    A    
C9    O7    A    
C13   C14   A    
N1    Zn1   S    
O6    Zn1   S    
C22   H6    S    
C11   C16   A    
C3    C23   A    
C19   C20   A    
C12   C15   A    
C11   H3    S    
C6    H10   S    
C7    N1    A    
C4    H8    S    
C21   C22   A    
C3    H7    S    
C11   C13   A    
C14   Br2   S    
O5    Zn1   S    
C2    O4    A    
C13   Br1   S    
C1    O3    A    
C17   C19   A    
O3    Zn2   S    
C10   C18   S    
C18   C20   A    
C4    C24   A    
O8    Zn2   S    
C9    O5    A    
C8    N1    A    
C1    O1    A    
C19   H1    S    
C10   O6    A    
C15   C16   A    
C2    O2    A    
C7    H11   S    
N2    Zn2   S    
C12   H4    S    
C1    C24   S    
O1    Zn1   S    
C8    H12   S    
C21   C24   A    
C9    C17   S    
C2    C23   S    
C5    C7    A    
C22   C23   A    
O4    Zn2   S    
O7    Zn2   S    
C5    N2    A    
O2    Zn1   S    
C21   H5    S    
C3    C4    A    
C12   C14   A    
C16   C17   A    
C20   H2    S    
C5    H9    S    
