data_mof_unit_11681.cif
_audit_creation_date              2012-12-10T17:31:26-0500
_audit_creation_method            fapswitch 2.2
_symmetry_space_group_name_H-M    P1
_symmetry_Int_Tables_number       1
_space_group_crystal_system       triclinic
_cell_length_a                    18.605452
_cell_length_b                    18.483238
_cell_length_c                    12.460685
_cell_angle_alpha                 89.74441
_cell_angle_beta                  129.982495
_cell_angle_gamma                 90.319249
_cell_volume                      3283.35951064

loop_
_atom_site_label
_atom_site_type_symbol
_atom_type_description
_atom_site_fract_x
_atom_site_fract_y
_atom_site_fract_z
_atom_type_partial_charge
C1    C     C_R   0.603039 0.892425 0.640604 0.884892
C2    C     C_R   0.666228 0.743677 0.039810 0.117294
C3    C     C_R   0.157519 0.776131 0.006271 0.118974
C4    C     C_R   0.166247 0.243690 0.039827 0.117286
C5    C     C_R   0.578053 0.250585 0.877490 -0.289039
C6    C     C_R   0.585584 0.779286 0.928762 -0.302921
C7    C     C_R   0.077986 0.750752 0.877217 -0.289069
C8    C     C_R   0.085600 0.279294 0.928776 -0.302927
C9    C     C_R   0.585060 0.219622 0.782705 0.264014
C10   C     C_R   0.572738 0.796985 0.808427 0.270864
C11   C     C_R   0.085044 0.719699 0.782548 0.263937
C12   C     C_R   0.614374 0.101634 0.653732 0.900900
C13   C     C_R   0.072752 0.296988 0.808438 0.270856
C14   C     C_R   0.322836 0.806253 0.165162 -0.234506
C15   C     C_R   0.307886 0.178012 0.134834 -0.231988
C16   C     C_R   0.822868 0.306265 0.165153 -0.234541
C17   C     C_R   0.807869 0.678001 0.134815 -0.232039
C18   C     C_R   0.223413 0.847494 0.213748 -0.201187
C19   C     C_R   0.252294 0.183227 0.264446 -0.193791
C20   C     C_R   0.723545 0.347286 0.214066 -0.201198
C21   C     C_R   0.752278 0.683214 0.264431 -0.193702
C22   C     C_R   0.686105 0.157811 0.745549 -0.141777
C23   C     C_R   0.103043 0.392426 0.640608 0.884908
C24   C     C_R   0.649279 0.821103 0.703914 -0.147939
C25   C     C_R   0.186138 0.657784 0.745598 -0.141754
C26   C     C_R   0.149290 0.321108 0.703924 -0.147941
C27   C     C_R   0.679815 0.954737 0.288683 0.182581
C28   C     C_R   0.179809 0.454724 0.288679 0.182568
C29   C     C_R   0.340472 0.010370 0.625304 0.410904
C30   C     C_R   0.840473 0.510398 0.625307 0.410920
C31   C     C_R   0.305024 0.012467 0.695624 -0.351378
C32   C     C_R   0.805028 0.512494 0.695634 -0.351255
C33   C     C_R   0.385067 0.100565 0.344061 0.819262
C34   C     C_R   0.114387 0.601624 0.653750 0.900965
C35   C     C_R   0.383672 0.900470 0.342932 0.793152
C36   C     C_R   0.885063 0.600561 0.344056 0.819314
C37   C     C_R   0.883687 0.400457 0.342954 0.793145
C38   C     C_R   0.362314 0.004466 0.839622 0.218658
C39   C     C_R   0.862315 0.504470 0.839625 0.218616
C40   C     C_R   0.460473 0.996592 0.920289 -0.055120
C41   C     C_R   0.960472 0.496587 0.920288 -0.055099
C42   C     C_R   0.496222 0.991949 0.845270 0.120068
C43   C     C_R   0.996220 0.491940 0.845269 0.120101
C44   C     C_R   0.524445 0.990804 0.072394 -0.053387
C45   C     C_R   0.246618 0.771862 0.041662 0.077855
C46   C     C_R   0.024444 0.490797 0.072393 -0.053379
C47   C     C_R   0.614627 0.961928 0.141312 0.070863
C48   C     C_R   0.114622 0.461916 0.141310 0.070858
C49   C     C_R   0.641087 0.943583 0.063728 -0.267148
C50   C     C_R   0.141081 0.443568 0.063724 -0.267158
C51   C     C_R   0.593710 0.971342 0.929979 0.186953
C52   C     C_R   0.093705 0.471328 0.929976 0.186949
C53   C     C_R   0.503659 0.011500 0.160414 0.029750
C54   C     C_R   0.003660 0.511499 0.160413 0.029747
C55   C     C_R   0.652946 0.973945 0.365983 0.071039
C56   C     C_R   0.233175 0.220939 0.027320 0.082271
C57   C     C_R   0.152943 0.473938 0.365980 0.070973
C58   C     C_R   0.647729 0.310906 0.096067 -0.155418
C59   C     C_R   0.677829 0.726582 0.160007 -0.149087
C60   C     C_R   0.147590 0.811152 0.095695 -0.155518
C61   C     C_R   0.177847 0.226596 0.160024 -0.149066
C62   C     C_R   0.310202 0.848043 0.244784 -0.064670
C63   C     C_R   0.314746 0.155576 0.248587 -0.071891
C64   C     C_R   0.810264 0.347984 0.244877 -0.064631
C65   C     C_R   0.814733 0.655566 0.248573 -0.071919
C66   C     C_R   0.773340 0.157430 0.774259 0.164564
C67   C     C_R   0.746662 0.271808 0.041746 0.077849
C68   C     C_R   0.700751 0.786471 0.671295 0.147386
C69   C     C_R   0.273410 0.657344 0.774422 0.164539
C70   C     C_R   0.200764 0.286478 0.671307 0.147436
C71   C     C_R   0.348858 0.696100 0.887245 -0.156525
C72   C     C_R   0.266348 0.233958 0.760821 -0.158962
C73   C     C_R   0.848800 0.196173 0.887089 -0.156560
C74   C     C_R   0.766325 0.733943 0.760797 -0.158987
C75   C     C_R   0.341782 0.732310 0.976910 -0.215037
C76   C     C_R   0.281172 0.214524 0.881293 -0.213576
C77   C     C_R   0.841766 0.232326 0.976846 -0.215032
C78   C     C_R   0.733154 0.720926 0.027300 0.082282
C79   C     C_R   0.781144 0.714505 0.881264 -0.213566
C80   C     C_R   0.755569 0.236030 0.949979 0.049665
C81   C     C_R   0.722571 0.741276 0.907483 0.042344
C82   C     C_R   0.255561 0.736044 0.949966 0.049665
C83   C     C_R   0.222593 0.241289 0.907505 0.042350
C84   C     C_R   0.674823 0.204102 0.824937 0.027738
C85   C     C_R   0.648021 0.788111 0.806692 0.030755
C86   C     C_R   0.174826 0.704121 0.824900 0.027744
C87   C     C_R   0.148038 0.288118 0.806707 0.030758
C88   C     C_3   0.838998 0.983381 0.391178 -0.667725
C89   C     C_R   0.657605 0.275973 0.006514 0.119006
C90   C     C_3   0.338996 0.483358 0.391188 -0.667729
C91   C     C_3   0.192226 0.053029 0.403006 -0.734030
C92   C     C_3   0.692176 0.553062 0.403039 -0.734189
C93   C     C_3   0.302748 0.921878 0.916632 -0.658458
C94   C     C_3   0.802747 0.421871 0.916617 -0.658479
C95   C     C_3   0.492047 0.270225 0.551332 -0.713286
C96   C     C_3   0.434997 0.756679 0.580884 -0.658936
C97   C     C_3   0.992121 0.770233 0.551134 -0.713292
C98   C     C_3   0.935031 0.256658 0.580904 -0.658847
Cu1   Cu    Cu3+1 0.526340 0.000000 0.421010 0.975534
Cu2   Cu    Cu3+1 0.026340 0.500000 0.421010 0.975515
Cu3   Cu    Cu3+1 0.473640 0.000000 0.578990 0.982267
Cu4   Cu    Cu3+1 0.973640 0.500000 0.578990 0.982227
H1    H     H_    0.212085 0.878523 0.274584 0.137969
H2    H     H_    0.730189 0.515998 0.637033 0.168983
H3    H     H_    0.509199 0.259722 0.845769 0.147344
H4    H     H_    0.529912 0.790024 0.932368 0.141022
H5    H     H_    0.009114 0.759954 0.845388 0.147399
H6    H     H_    0.029927 0.290030 0.932379 0.141011
H7    H     H_    0.579973 0.313805 0.070265 0.142287
H8    H     H_    0.627925 0.745234 0.171428 0.159493
H9    H     H_    0.079795 0.814155 0.069744 0.142322
H10   H     H_    0.127944 0.245250 0.171445 0.159507
H11   H     H_    0.392380 0.805508 0.198553 0.160789
H12   H     H_    0.260340 0.170599 0.356230 0.181199
H13   H     H_    0.361544 0.160566 0.131853 0.150185
H14   H     H_    0.892368 0.305637 0.198373 0.160837
H15   H     H_    0.861528 0.660558 0.131836 0.150192
H16   H     H_    0.405544 0.757556 0.065130 0.144905
H17   H     H_    0.334749 0.174559 0.945831 0.136502
H18   H     H_    0.905549 0.257539 0.065087 0.144903
H19   H     H_    0.834711 0.674533 0.945793 0.136515
H20   H     H_    0.415792 0.695303 0.910344 0.160097
H21   H     H_    0.306531 0.207682 0.736973 0.156298
H22   H     H_    0.915713 0.195406 0.910121 0.160090
H23   H     H_    0.712261 0.378219 0.275053 0.137927
H24   H     H_    0.806504 0.707664 0.736946 0.156333
H25   H     H_    0.700774 0.965643 0.477930 0.178045
H26   H     H_    0.200768 0.465631 0.477924 0.178082
H27   H     H_    0.797920 0.897185 0.446741 0.276351
H28   H     H_    0.849581 0.023049 0.467014 0.244990
H29   H     H_    0.814123 0.012228 0.294345 0.255673
H30   H     H_    0.907320 0.957688 0.437990 0.227112
H31   H     H_    0.297906 0.397163 0.446731 0.276367
H32   H     H_    0.349566 0.523033 0.467006 0.244975
H33   H     H_    0.314136 0.512199 0.294356 0.255666
H34   H     H_    0.760322 0.670581 0.356213 0.181248
H35   H     H_    0.407323 0.457664 0.438026 0.227128
H36   H     H_    0.262262 0.958315 0.437927 0.246465
H37   H     H_    0.163035 0.061763 0.293425 0.244381
H38   H     H_    0.207404 0.106388 0.454594 0.246000
H39   H     H_    0.138186 0.024021 0.399243 0.219927
H40   H     H_    0.762337 0.458443 0.437800 0.246637
H41   H     H_    0.662949 0.561817 0.293447 0.244402
H42   H     H_    0.707306 0.606413 0.454625 0.246066
H43   H     H_    0.638182 0.523988 0.399306 0.219973
H44   H     H_    0.257748 0.027121 0.849599 0.255542
H45   H     H_    0.708434 0.917684 0.116662 0.216080
H46   H     H_    0.270924 0.920744 0.967370 0.236554
H47   H     H_    0.370571 0.892592 0.985008 0.238576
H48   H     H_    0.254602 0.894044 0.813736 0.226156
H49   H     H_    0.757749 0.527118 0.849607 0.255538
H50   H     H_    0.770923 0.420731 0.967354 0.236535
H51   H     H_    0.870571 0.392585 0.984988 0.238559
H52   H     H_    0.754602 0.394044 0.813716 0.226176
H53   H     H_    0.441569 0.205607 0.626426 0.264596
H54   H     H_    0.426278 0.262477 0.442384 0.242202
H55   H     H_    0.551624 0.269418 0.551055 0.230071
H56   H     H_    0.208427 0.417667 0.116657 0.216082
H57   H     H_    0.489033 0.323847 0.588364 0.234577
H58   H     H_    0.437198 0.834626 0.701960 0.251515
H59   H     H_    0.362338 0.772931 0.490573 0.233250
H60   H     H_    0.431716 0.706262 0.626529 0.245207
H61   H     H_    0.473573 0.746204 0.542149 0.226914
H62   H     H_    0.941565 0.705686 0.626188 0.264618
H63   H     H_    0.926382 0.762465 0.442168 0.242184
H64   H     H_    0.051735 0.769395 0.550944 0.230081
H65   H     H_    0.989085 0.823875 0.588082 0.234565
H66   H     H_    0.937200 0.334603 0.701955 0.251524
H67   H     H_    0.439010 0.037382 0.119413 0.174051
H68   H     H_    0.862355 0.272883 0.490612 0.233285
H69   H     H_    0.931800 0.206231 0.626577 0.245230
H70   H     H_    0.973595 0.246213 0.542139 0.226916
H71   H     H_    0.939011 0.537384 0.119411 0.174046
H72   H     H_    0.230182 0.015949 0.637013 0.168986
I1    I     I_    0.709594 0.003910 0.941440 -0.380874
I2    I     I_    0.209590 0.503906 0.941450 -0.380826
I3    I     I_    0.805973 0.097229 0.665558 -0.445958
I4    I     I_    0.672648 0.796816 0.477887 -0.520650
I5    I     I_    0.306103 0.597027 0.665911 -0.445824
I6    I     I_    0.172643 0.296810 0.477885 -0.520609
N1    N     N_R   0.566260 0.000000 0.302220 -0.203299
N2    N     N_2   0.817349 0.496180 0.897754 -0.457768
N3    N     N_2   0.502004 0.213224 0.640102 -0.420920
N4    N     N_2   0.480173 0.813831 0.684317 -0.397357
N5    N     N_2   0.002025 0.713271 0.639924 -0.420975
N6    N     N_2   0.980184 0.313819 0.684321 -0.397383
N7    N     N_R   0.066260 0.500000 0.302220 -0.203315
N8    N     N_R   0.434410 0.000000 0.697680 -0.217900
N9    N     N_R   0.934410 0.500000 0.697680 -0.217940
N10   N     N_2   0.772370 0.928314 0.359924 -0.440624
N11   N     N_2   0.272362 0.428295 0.359920 -0.440623
N12   N     N_2   0.276819 0.010044 0.476305 -0.375956
N13   N     N_2   0.776819 0.510140 0.476301 -0.376036
N14   N     N_2   0.317348 0.996184 0.897754 -0.457773
O1    O     O_R   0.608610 0.924520 0.551740 -0.558890
O2    O     O_R   0.435880 0.924530 0.314850 -0.569989
O3    O     O_R   0.935880 0.575470 0.314850 -0.598526
O4    O     O_R   0.935880 0.424530 0.314850 -0.570009
O5    O     O_R   0.391380 0.075460 0.448260 -0.545079
O6    O     O_R   0.391380 0.924540 0.448260 -0.581437
O7    O     O_R   0.891380 0.575460 0.448260 -0.545105
O8    O     O_R   0.891380 0.424540 0.448260 -0.581584
O9    O     O_R   0.608610 0.075480 0.551740 -0.552587
O10   O     O_R   0.108610 0.424520 0.551740 -0.558882
O11   O     O_R   0.108610 0.575480 0.551740 -0.552605
O12   O     O_R   0.564110 0.924510 0.685150 -0.545447
O13   O     O_R   0.564110 0.075490 0.685150 -0.540934
O14   O     O_R   0.064110 0.424510 0.685150 -0.545452
O15   O     O_R   0.064110 0.575490 0.685150 -0.540938
O16   O     O_R   0.435880 0.075470 0.314850 -0.598541

loop_
_geom_bond_atom_site_label_1
_geom_bond_atom_site_label_2
_ccdc_geom_bond_type
C42   N8    A    
C83   C87   A    
C10   C85   A    
C8    C13   A    
C90   H33   S    
C12   C22   S    
C23   O14   A    
C58   H7    S    
C10   N4    S    
C71   H20   S    
C93   H47   S    
C93   N14   S    
C88   H28   S    
C4    C8    A    
C77   H18   S    
C70   I6    S    
C37   C64   S    
C57   H26   S    
Cu3   O6    S    
C39   C41   A    
C5    H3    S    
C28   C57   A    
C50   H56   S    
C88   N10   S    
C79   H19   S    
H49   N2    S    
C95   H57   S    
C54   H71   S    
C1    O1    A    
Cu4   O7    S    
C97   N5    S    
C21   C59   A    
C3    C7    A    
C90   H32   S    
H53   N3    S    
C43   C52   A    
C30   N9    A    
C30   N13   S    
C33   O5    A    
C11   C86   A    
C94   H50   S    
C97   H64   S    
C14   C62   A    
Cu1   O1    S    
C67   C89   A    
Cu4   N9    S    
C96   H59   S    
C49   H45   S    
C93   H46   S    
C95   H54   S    
C12   O9    A    
C68   I4    S    
C69   C71   A    
C92   H41   S    
C22   C66   A    
Cu3   O13   S    
C44   C53   A    
H40   N13   S    
C45   C82   A    
C19   C63   A    
C26   C87   A    
C49   C51   A    
C31   H72   S    
C50   C52   A    
C41   C46   A    
C32   H2    S    
C27   N10   S    
H44   N14   S    
Cu3   N8    S    
C24   C85   A    
C52   I2    S    
C21   H34   S    
C44   C47   A    
C17   H15   S    
C42   C51   A    
C98   H70   S    
Cu2   O3    S    
C40   C42   A    
C11   N5    S    
C4    C56   A    
C41   C43   A    
C46   C54   A    
C93   H48   S    
C2    C6    A    
C75   H16   S    
C96   N4    S    
C8    H6    S    
C76   C83   A    
C35   O6    A    
C69   I5    S    
C14   C45   A    
C90   N11   S    
C34   O11   A    
C55   N1    A    
C66   I3    S    
C46   C48   A    
C71   C75   A    
C76   H17   S    
H66   N6    S    
C80   C84   A    
C30   C32   A    
C12   O13   A    
C74   C79   A    
Cu2   N7    S    
C36   O3    A    
C47   C49   A    
C92   N13   S    
C79   C81   A    
C2    C59   A    
C18   C62   A    
C19   H12   S    
C82   C86   A    
C66   C73   A    
C4    C61   A    
C3    C45   A    
C38   N14   S    
C22   C84   A    
C20   C64   A    
C7    C11   A    
C5    C9    A    
C2    C78   A    
C34   O15   A    
C53   N1    A    
C25   C86   A    
C33   O16   A    
C33   C63   S    
C73   H22   S    
H27   N10   S    
C13   C87   A    
Cu2   Cu4   S    
C6    H4    S    
C29   N12   S    
C72   C76   A    
Cu4   O15   S    
C16   C67   A    
C37   O4    A    
C51   I1    S    
C1    O12   A    
C35   O2    A    
C91   H37   S    
C98   H69   S    
C18   C60   A    
C9    N3    S    
Cu1   Cu3   S    
C55   H25   S    
H62   N5    S    
C54   N7    A    
C72   H21   S    
C26   C70   A    
C7    H5    S    
C25   C69   A    
C36   O7    A    
C88   H30   S    
C20   C58   A    
C28   N11   S    
C90   H35   S    
H31   N11   S    
C56   C83   A    
C15   H13   S    
C77   C80   A    
C27   C47   A    
C28   C48   A    
C73   C77   A    
C13   N6    S    
C21   C65   A    
C92   H43   S    
C95   H55   S    
H36   N12   S    
C67   C80   A    
C6    C10   A    
Cu2   O11   S    
Cu3   O5    S    
C75   C82   A    
C53   H67   S    
C14   H11   S    
C94   N2    S    
C91   N12   S    
C25   C34   S    
C37   O8    A    
C17   C65   A    
C96   H61   S    
C23   O10   A    
C16   H14   S    
C15   C56   A    
C36   C65   S    
C31   C38   A    
Cu4   O8    S    
C20   H23   S    
C98   N6    S    
C60   H9    S    
C97   H65   S    
C3    C60   A    
C38   C40   A    
C94   H52   S    
Cu2   O10   S    
C78   C81   A    
C95   N3    S    
C74   H24   S    
Cu4   O14   S    
C19   C61   A    
C94   H51   S    
C97   H63   S    
Cu1   O2    S    
C48   C50   A    
C17   C78   A    
C23   C26   S    
C96   H60   S    
C35   C62   S    
C27   C55   A    
C18   H1    S    
C92   H42   S    
C58   C89   A    
C5    C89   A    
C57   N7    A    
C39   N2    S    
Cu3   O12   S    
C24   C68   A    
C9    C84   A    
C91   H38   S    
C98   H68   S    
C40   C44   A    
C43   N9    A    
C1    C24   S    
C29   C31   A    
Cu1   O9    S    
C32   C39   A    
C29   N8    A    
C15   C63   A    
Cu1   N1    S    
C70   C72   A    
C59   H8    S    
C16   C64   A    
C88   H29   S    
C61   H10   S    
C68   C74   A    
H58   N4    S    
C81   C85   A    
C91   H39   S    
Cu1   O16   S    
Cu2   O4    S    
