data_mof_unit_18731.cif
_audit_creation_date              2012-12-10T18:35:25-0500
_audit_creation_method            fapswitch 2.2
_symmetry_space_group_name_H-M    P1
_symmetry_Int_Tables_number       1
_space_group_crystal_system       triclinic
_cell_length_a                    14.80371
_cell_length_b                    15.359456
_cell_length_c                    17.025161
_cell_angle_alpha                 89.482053
_cell_angle_beta                  98.716683
_cell_angle_gamma                 98.370378
_cell_volume                      3785.32092379

loop_
_atom_site_label
_atom_site_type_symbol
_atom_type_description
_atom_site_fract_x
_atom_site_fract_y
_atom_site_fract_z
_atom_type_partial_charge
C1    C     C_R   0.557548 0.662068 0.517119 0.841081
C2    C     C_R   0.431820 0.180783 0.512303 0.200430
C3    C     C_R   0.553612 0.899670 0.525851 0.014898
C4    C     C_R   0.438421 0.098490 0.480382 0.020434
C5    C     C_R   0.612026 0.926750 0.597543 -0.140942
C6    C     C_R   0.381897 0.071884 0.407662 -0.148707
C7    C     C_R   0.490517 0.954757 0.489845 -0.254634
C8    C     C_R   0.499296 0.042506 0.518058 -0.231737
C9    C     C_R   0.572774 0.073232 0.579107 0.537942
C10   C     C_R   0.416772 0.924254 0.428725 0.549192
C11   C     C_R   0.623876 0.014722 0.621961 0.539305
C12   C     C_R   0.442663 0.337906 0.484049 0.845189
C13   C     C_R   0.367520 0.983385 0.384689 0.548676
C14   C     C_R   0.183216 0.665056 0.408315 0.489009
C15   C     C_R   0.829398 0.366393 0.628376 0.482151
C16   C     C_R   0.512577 0.498580 0.349760 0.845367
C17   C     C_R   0.487196 0.501037 0.650548 0.860699
C18   C     C_R   0.262595 0.626216 0.412806 0.569169
C19   C     C_R   0.741268 0.382861 0.598106 0.582134
C20   C     C_R   0.203472 0.511405 0.491919 0.649987
C21   C     C_R   0.799597 0.497639 0.518279 0.648279
C22   C     C_R   0.124142 0.552067 0.496507 -0.202805
C23   C     C_R   0.593093 0.753445 0.542111 -0.144066
C24   C     C_R   0.891839 0.488797 0.550916 -0.195660
C25   C     C_R   0.112357 0.630046 0.452001 -0.290084
C26   C     C_R   0.907570 0.420166 0.606370 -0.286455
C27   C     C_R   0.055290 0.515686 0.541579 -0.065652
C28   C     C_R   0.968173 0.543049 0.526694 -0.067686
C29   C     C_R   0.961960 0.627154 0.494473 0.687214
C30   C     C_R   0.073030 0.459275 0.606013 0.677968
C31   C     C_R   0.032687 0.671741 0.455510 0.008238
C32   C     C_R   0.000147 0.409537 0.638994 0.015784
C33   C     C_R   0.527146 0.503250 0.266273 -0.176094
C34   C     C_R   0.407827 0.246686 0.459743 -0.139780
C35   C     C_R   0.479317 0.501879 0.736046 -0.192294
C36   C     C_R   0.513332 0.580557 0.222697 -0.081847
C37   C     C_R   0.530295 0.446996 0.787266 -0.085723
C38   C     C_R   0.552191 0.596255 0.153851 0.593027
C39   C     C_R   0.548985 0.466555 0.867719 0.572544
C40   C     C_R   0.590216 0.530933 0.120035 -0.082013
C41   C     C_R   0.501982 0.525304 0.900999 -0.099101
C42   C     C_R   0.598395 0.449776 0.158186 0.015351
C43   C     C_R   0.438375 0.571243 0.853139 0.031256
C44   C     C_R   0.571120 0.437285 0.234489 0.071927
C45   C     C_R   0.661247 0.866331 0.641091 -0.132506
C46   C     C_R   0.428065 0.561675 0.768950 0.038865
C47   C     C_2   0.591267 0.539277 0.034956 0.613022
C48   C     C_2   0.509503 0.525790 0.987414 0.442340
C49   C     C_3   0.452473 0.645675 0.242687 -0.325385
C50   C     C_3   0.354347 0.623214 0.196174 -0.299580
C51   C     C_3   0.303343 0.703191 0.188212 -0.708681
C52   C     C_3   0.564529 0.365120 0.760219 -0.235606
C53   C     C_3   0.522265 0.281007 0.799557 -0.438278
C54   C     C_3   0.578705 0.206226 0.795107 -0.690707
C55   C     C_3   0.025315 0.761863 0.417160 -0.293661
C56   C     C_R   0.339804 0.134283 0.360385 -0.140446
C57   C     C_3   0.942557 0.808178 0.427877 -0.339277
C58   C     C_3   0.946727 0.896069 0.384905 -0.895396
C59   C     C_3   0.018295 0.344822 0.706941 -0.300153
C60   C     C_3   0.118571 0.341904 0.745871 -0.335967
C61   C     C_3   0.123088 0.273988 0.811840 -0.902192
C62   C     C_3   0.362193 0.613987 0.715917 -0.345180
C63   C     C_3   0.413257 0.695941 0.681010 -0.399426
C64   C     C_3   0.347162 0.743453 0.624391 -0.756758
C65   C     C_3   0.583460 0.352050 0.279713 -0.391710
C66   C     C_3   0.682547 0.353549 0.324004 -0.317214
C67   C     C_R   0.647748 0.777516 0.617283 0.037887
C68   C     C_3   0.688492 0.276503 0.380942 -0.821157
C69   C     C_3   0.630073 0.376067 0.114542 -0.383402
C70   C     C_3   0.547638 0.314591 0.069462 -0.307075
C71   C     C_3   0.579448 0.236581 0.032182 -0.841396
C72   C     C_3   0.387416 0.634390 0.892492 -0.341929
C73   C     C_3   0.289018 0.591804 0.902381 -0.308983
C74   C     C_3   0.238509 0.656527 0.939862 -0.860180
C75   C     C_3   0.411424 0.187273 0.596737 -0.374977
C76   C     C_3   0.306345 0.172356 0.596539 -0.380239
C77   C     C_3   0.281724 0.181668 0.679511 -0.866715
C78   C     C_R   0.358334 0.223385 0.382990 0.014014
C79   C     C_3   0.571936 0.813400 0.404085 -0.355722
C80   C     C_3   0.672203 0.808707 0.392587 -0.437818
C81   C     C_3   0.681679 0.804317 0.304752 -0.798352
C82   C     C_3   0.322822 0.290335 0.325166 -0.422216
C83   C     C_3   0.226657 0.307008 0.338673 -0.277666
C84   C     C_3   0.196579 0.384454 0.289870 -0.855603
C85   C     C_3   0.699341 0.715038 0.670722 -0.390057
C86   C     C_3   0.667168 0.704485 0.752304 -0.435457
C87   C     C_3   0.720480 0.641802 0.804358 -0.747594
C88   C     C_R   0.563740 0.819502 0.491771 0.187549
F1    F     F_    0.598398 0.160325 0.595300 -0.608459
F2    F     F_    0.161324 0.464032 0.643005 -0.693584
F3    F     F_    0.430763 0.502624 0.019659 -0.732923
F4    F     F_    0.672266 0.563452 0.006606 -0.658817
F5    F     F_    0.609699 0.422888 0.915034 -0.684993
F6    F     F_    0.541948 0.671831 0.112993 -0.687634
F7    F     F_    0.688204 0.045225 0.684948 -0.623580
F8    F     F_    0.304318 0.953579 0.320746 -0.617742
F9    F     F_    0.391357 0.837374 0.411403 -0.594328
F10   F     F_    0.779143 0.550883 0.456134 -0.623108
F11   F     F_    0.212813 0.430530 0.521790 -0.627329
F12   F     F_    0.667700 0.332901 0.621793 -0.589546
F13   F     F_    0.333738 0.666334 0.379005 -0.607282
F14   F     F_    0.179877 0.738021 0.363175 -0.619362
F15   F     F_    0.835276 0.297880 0.678753 -0.620304
F16   F     F_    0.893315 0.669478 0.512344 -0.675961
H1    H     H_    0.707419 0.887413 0.695336 0.199782
H2    H     H_    0.648441 0.223392 0.830517 0.283420
H3    H     H_    0.543468 0.145397 0.819428 0.222477
H4    H     H_    0.586028 0.193423 0.732758 0.334129
H5    H     H_    0.517080 0.291576 0.862881 0.271557
H6    H     H_    0.451001 0.260187 0.769121 0.211969
H7    H     H_    0.545536 0.353397 0.695802 0.239255
H8    H     H_    0.641204 0.374547 0.774404 0.262947
H9    H     H_    0.011054 0.940445 0.408658 0.278584
H10   H     H_    0.944458 0.885639 0.320112 0.277895
H11   H     H_    0.886602 0.928288 0.394045 0.258059
H12   H     H_    0.297610 0.114814 0.303829 0.196458
H13   H     H_    0.877134 0.766312 0.402617 0.280607
H14   H     H_    0.943100 0.821682 0.491992 0.271301
H15   H     H_    0.088521 0.807554 0.441575 0.250170
H16   H     H_    0.023060 0.753373 0.352096 0.255942
H17   H     H_    0.084173 0.290791 0.859107 0.278437
H18   H     H_    0.093728 0.207268 0.787544 0.275875
H19   H     H_    0.196234 0.273261 0.838514 0.260722
H20   H     H_    0.159399 0.323048 0.700808 0.282838
H21   H     H_    0.149657 0.407198 0.772657 0.263117
H22   H     H_    0.980169 0.360887 0.755111 0.243946
H23   H     H_    0.302023 0.732548 0.247179 0.354529
H24   H     H_    0.990222 0.277430 0.683538 0.257531
H25   H     H_    0.294488 0.765933 0.656336 0.241020
H26   H     H_    0.386467 0.801715 0.599609 0.262513
H27   H     H_    0.311981 0.699002 0.574522 0.261200
H28   H     H_    0.448170 0.742003 0.729928 0.214038
H29   H     H_    0.466496 0.677555 0.647979 0.232032
H30   H     H_    0.317609 0.571117 0.669340 0.278545
H31   H     H_    0.310119 0.636497 0.747696 0.196498
H32   H     H_    0.642660 0.279887 0.426420 0.297352
H33   H     H_    0.667900 0.213058 0.347711 0.256112
H34   H     H_    0.337760 0.753853 0.151237 0.252478
H35   H     H_    0.760554 0.279156 0.411785 0.244215
H36   H     H_    0.731781 0.349989 0.281620 0.205840
H37   H     H_    0.706291 0.415706 0.358281 0.279425
H38   H     H_    0.533726 0.339496 0.322548 0.186953
H39   H     H_    0.565231 0.293960 0.239348 0.193293
H40   H     H_    0.628987 0.259905 0.990955 0.299502
H41   H     H_    0.613169 0.196182 0.079148 0.256831
H42   H     H_    0.518923 0.194725 0.998174 0.245238
H43   H     H_    0.497961 0.289327 0.109935 0.212892
H44   H     H_    0.510120 0.350966 0.021655 0.262478
H45   H     H_    0.231139 0.683030 0.158841 0.234175
H46   H     H_    0.676165 0.403849 0.071943 0.266778
H47   H     H_    0.673226 0.337399 0.155719 0.195785
H48   H     H_    0.276489 0.678491 0.999348 0.276239
H49   H     H_    0.232053 0.714720 0.901319 0.261227
H50   H     H_    0.168191 0.624045 0.946965 0.256150
H51   H     H_    0.247999 0.568532 0.844493 0.210850
H52   H     H_    0.291514 0.533259 0.940722 0.284468
H53   H     H_    0.425642 0.656689 0.951782 0.248935
H54   H     H_    0.386123 0.696449 0.858714 0.182001
H55   H     H_    0.316950 0.137137 0.721545 0.259770
H56   H     H_    0.356841 0.599174 0.135207 0.262520
H57   H     H_    0.301786 0.250830 0.700928 0.265822
H58   H     H_    0.205945 0.164039 0.677439 0.262498
H59   H     H_    0.273223 0.220751 0.557307 0.254039
H60   H     H_    0.277298 0.105142 0.573035 0.230531
H61   H     H_    0.441494 0.137322 0.635756 0.218386
H62   H     H_    0.441115 0.252993 0.622366 0.211187
H63   H     H_    0.644645 0.741067 0.278071 0.271518
H64   H     H_    0.653621 0.859885 0.272164 0.266522
H65   H     H_    0.755622 0.808267 0.298329 0.259964
H66   H     H_    0.717623 0.868090 0.420040 0.239854
H67   H     H_    0.314783 0.569864 0.226948 0.226090
H68   H     H_    0.696381 0.749617 0.422059 0.272821
H69   H     H_    0.526323 0.754722 0.377837 0.235831
H70   H     H_    0.550898 0.871642 0.371186 0.219145
H71   H     H_    0.244943 0.445597 0.308057 0.265399
H72   H     H_    0.194973 0.371607 0.225538 0.261372
H73   H     H_    0.126394 0.394228 0.300082 0.246755
H74   H     H_    0.175815 0.247087 0.321431 0.213407
H75   H     H_    0.226417 0.321244 0.402460 0.272353
H76   H     H_    0.371789 0.352386 0.330437 0.207070
H77   H     H_    0.318856 0.266423 0.263078 0.192795
H78   H     H_    0.449723 0.647385 0.306293 0.254708
H79   H     H_    0.709518 0.575545 0.775798 0.258459
H80   H     H_    0.795485 0.667517 0.814385 0.260562
H81   H     H_    0.695556 0.635479 0.862728 0.296023
H82   H     H_    0.677062 0.769136 0.783510 0.240757
H83   H     H_    0.593044 0.677369 0.744794 0.224688
H84   H     H_    0.694022 0.649001 0.644419 0.246484
H85   H     H_    0.774113 0.741979 0.679346 0.222082
H86   H     H_    0.482720 0.713549 0.228692 0.238119
N1    N     N_R   0.271750 0.551950 0.454510 -0.253599
N2    N     N_R   0.728250 0.448050 0.545490 -0.253421
O1    O     O_R   0.615140 0.606020 0.522930 -0.584716
O2    O     O_R   0.384860 0.393980 0.477070 -0.569101
O3    O     O_R   0.468580 0.639400 0.493740 -0.545822
O4    O     O_R   0.531420 0.360600 0.506260 -0.552307
O5    O     O_R   0.581950 0.481350 0.400520 -0.570275
O6    O     O_R   0.418050 0.518650 0.599480 -0.584005
O7    O     O_R   0.435380 0.514730 0.371330 -0.611292
O8    O     O_R   0.564620 0.485270 0.628670 -0.617438
Zn1   Zn    Zn3+2 0.597860 0.477710 0.519490 1.026215
Zn2   Zn    Zn3+2 0.402140 0.522290 0.480510 1.025583

loop_
_geom_bond_atom_site_label_1
_geom_bond_atom_site_label_2
_ccdc_geom_bond_type
C53   H6    S    
C25   C31   A    
C40   C47   S    
C66   C68   S    
C26   C32   A    
C43   C72   S    
C21   F10   S    
C7    C10   A    
C41   C43   A    
C47   F4    S    
C14   C18   A    
C1    O1    A    
C80   H66   S    
C4    C8    A    
C20   N1    A    
C44   C65   S    
C56   C78   A    
C7    C8    A    
C39   C41   A    
C66   H37   S    
C55   H15   S    
C53   C54   S    
C59   H22   S    
C15   C19   A    
C82   H77   S    
C54   H3    S    
C46   C62   S    
C69   H46   S    
C63   H29   S    
C28   C29   A    
C1    O3    A    
C24   C26   A    
C5    C11   A    
C3    C7    A    
C87   H79   S    
C65   H39   S    
C14   F14   S    
C52   H8    S    
C53   H5    S    
O2    Zn2   S    
C33   C36   A    
O1    Zn1   S    
C74   H50   S    
C17   O8    A    
C61   H17   S    
C73   C74   S    
C23   C67   A    
C60   H20   S    
C79   H69   S    
C39   F5    S    
C73   H51   S    
C41   C48   S    
C83   C84   S    
C8    C9    A    
C22   C25   A    
O6    Zn2   S    
C58   H9    S    
N2    Zn1   S    
O5    Zn1   S    
C50   H67   S    
N1    Zn2   S    
C81   H65   S    
C84   H71   S    
C30   F2    S    
C19   N2    A    
C72   C73   S    
C2    C34   A    
C85   H84   S    
C40   C42   A    
C59   C60   S    
C38   C40   A    
C27   C30   A    
C12   O4    A    
C79   H70   S    
C74   H48   S    
C68   H33   S    
C84   H73   S    
C42   C44   A    
C79   C88   S    
C45   H1    S    
C55   H16   S    
C6    C56   A    
C77   H57   S    
C18   N1    A    
C67   C85   S    
C54   H2    S    
C13   F8    S    
C69   H47   S    
C68   H32   S    
C76   C77   S    
C4    C6    A    
C9    F1    S    
C87   H80   S    
O3    Zn2   S    
C37   C52   S    
C86   C87   S    
O8    Zn1   S    
C21   N2    A    
C49   H86   S    
C52   H7    S    
C50   H56   S    
C59   H24   S    
C85   C86   S    
C5    C45   A    
C48   F3    S    
C42   C69   S    
C72   H53   S    
C49   H78   S    
C29   F16   S    
C60   C61   S    
C18   F13   S    
C62   H31   S    
C10   F9    S    
C2    C4    A    
C75   C76   S    
C16   O5    A    
C45   C67   A    
C62   C63   S    
C16   C33   S    
O7    Zn2   S    
C9    C11   A    
C78   C82   S    
C47   C48   D    
C64   H27   S    
C38   F6    S    
C50   C51   S    
C56   H12   S    
C17   O6    A    
C75   H61   S    
C63   H28   S    
C71   H40   S    
C81   H63   S    
C51   H45   S    
C70   C71   S    
C16   O7    A    
C77   H55   S    
C31   C55   S    
C71   H41   S    
C64   H26   S    
C86   H82   S    
C23   C88   A    
C55   C57   S    
C58   H11   S    
C76   H60   S    
C70   H44   S    
C80   H68   S    
C12   C34   S    
C3    C5    A    
C52   C53   S    
C57   H13   S    
C72   H54   S    
C11   F7    S    
C77   H58   S    
C60   H21   S    
C83   H74   S    
C35   C37   A    
C3    C88   A    
C33   C44   A    
C12   O2    A    
C24   C28   A    
C20   C22   A    
C80   C81   S    
C15   C26   A    
C10   C13   A    
C19   F12   S    
C1    C23   S    
C83   H75   S    
C76   H59   S    
C22   C27   A    
C54   H4    S    
C61   H19   S    
C51   H23   S    
C62   H30   S    
C36   C38   A    
C37   C39   A    
C82   C83   S    
C34   C78   A    
C6    C13   A    
C30   C32   A    
C65   H38   S    
C57   C58   S    
C20   F11   S    
C73   H52   S    
C63   C64   S    
C81   H64   S    
C75   H62   S    
C65   C66   S    
C14   C25   A    
C69   C70   S    
C43   C46   A    
C36   C49   S    
C79   C80   S    
C51   H34   S    
C86   H83   S    
C71   H42   S    
C66   H36   S    
C64   H25   S    
C74   H49   S    
C29   C31   A    
C49   C50   S    
C21   C24   A    
C82   H76   S    
C27   C28   A    
C58   H10   S    
C61   H18   S    
C68   H35   S    
C70   H43   S    
C17   C35   S    
C32   C59   S    
C15   F15   S    
O4    Zn1   S    
C84   H72   S    
C35   C46   A    
C85   H85   S    
C2    C75   S    
C57   H14   S    
C87   H81   S    
