data_mof_unit_36949.cif
_audit_creation_date              2012-12-10T17:03:25-0500
_audit_creation_method            fapswitch 2.2
_symmetry_space_group_name_H-M    P1
_symmetry_Int_Tables_number       1
_space_group_crystal_system       triclinic
_cell_length_a                    14.954349
_cell_length_b                    10.986517
_cell_length_c                    9.967825
_cell_angle_alpha                 111.10326
_cell_angle_beta                  97.661048
_cell_angle_gamma                 92.333167
_cell_volume                      1507.21925074

loop_
_atom_site_label
_atom_site_type_symbol
_atom_type_description
_atom_site_fract_x
_atom_site_fract_y
_atom_site_fract_z
_atom_type_partial_charge
C1    C     C_R   0.490458 0.253918 0.441616 0.778305
C2    C     C_R   0.502595 0.746281 0.558328 0.791737
C3    C     C_R   0.035136 0.262096 0.449212 0.058175
C4    C     C_R   0.964860 0.738254 0.549156 0.046530
C5    C     C_2   0.486526 0.113080 0.414492 -0.160726
C6    C     C_2   0.499087 0.887571 0.584316 -0.160135
C7    C     C_2   0.445381 0.064205 0.501496 0.129816
C8    C     C_2   0.446995 0.925330 0.484020 0.114766
C9    C     C_2   0.511372 0.506343 0.079585 0.062927
C10   C     C_2   0.481992 0.523189 0.935902 0.038637
C11   C     C_R   0.329556 0.499517 0.501277 0.780843
C12   C     C_R   0.670468 0.500753 0.498739 0.807319
C13   C     C_R   0.818082 0.617182 0.524136 -0.222983
C14   C     C_R   0.181836 0.383145 0.474441 -0.232598
C15   C     C_R   0.766442 0.500418 0.495595 -0.040954
C16   C     C_R   0.233598 0.500004 0.504144 -0.044602
C17   C     C_R   0.805768 0.383684 0.467926 -0.159295
C18   C     C_R   0.194361 0.616815 0.532157 -0.175304
C19   C     C_R   0.899684 0.381393 0.471334 0.025031
C20   C     C_R   0.100362 0.619033 0.527645 0.007158
C21   C     C_R   0.953078 0.500407 0.498762 0.021569
C22   C     C_R   0.046910 0.499987 0.499884 0.007761
C23   C     C_R   0.912014 0.619664 0.524415 0.110056
C24   C     C_R   0.087949 0.380700 0.474110 0.127308
C25   C     C_R   0.940435 0.262694 0.446849 -0.098624
C26   C     C_R   0.059596 0.737688 0.551620 0.018585
Cu1   Cu    Cu3+1 0.515770 0.521810 0.644910 1.012655
Cu2   Cu    Cu3+1 0.484230 0.478190 0.355090 1.002414
H1    H     H_    0.783376 0.705191 0.546331 0.140746
H2    H     H_    0.216454 0.295102 0.451900 0.138752
H3    H     H_    0.761730 0.295500 0.444834 0.160812
H4    H     H_    0.238526 0.705098 0.556449 0.144793
N1    N     N_2   0.460520 0.445420 0.137370 -0.196731
N2    N     N_2   0.539480 0.554580 0.862630 -0.190857
O1    O     O_R   0.508410 0.332340 0.577400 -0.542671
O2    O     O_R   0.491590 0.667660 0.422600 -0.543955
O3    O     O_R   0.481780 0.295500 0.332650 -0.552880
O4    O     O_R   0.518220 0.704500 0.667350 -0.556022
O5    O     O_R   0.383570 0.518390 0.622380 -0.548635
O6    O     O_R   0.616430 0.481610 0.377620 -0.543340
O7    O     O_R   0.356940 0.481550 0.377630 -0.587850
O8    O     O_R   0.643060 0.518450 0.622370 -0.573534
C27   C     C_2   0.883722 0.138813 0.418861 0.848462
O9    O     O_2   0.846755 0.126247 0.515797 -0.539528
O10   O     O_R   0.871886 0.036407 0.283027 -0.729534
H5    H     H_    0.904078 0.058363 0.210180 0.313100
C28   C     C_2   0.116154 0.861199 0.579249 0.807617
O11   O     O_2   0.155014 0.872916 0.483488 -0.616342
O12   O     O_R   0.124834 0.963394 0.714896 -0.745890
H6    H     H_    0.165284 0.042075 0.720786 0.329215
C29   C     C_3   0.080972 0.137076 0.430114 -0.791286
H7    H     H_    0.034805 0.052121 0.420495 0.254523
H8    H     H_    0.112852 0.108582 0.330128 0.240959
H9    H     H_    0.133609 0.153417 0.526231 0.237589
C30   C     C_3   0.918972 0.863145 0.567802 -0.703198
H10   H     H_    0.965100 0.948120 0.577397 0.251447
H11   H     H_    0.866503 0.846621 0.471396 0.245423
H12   H     H_    0.886921 0.891741 0.667627 0.240114
C31   C     C_3   0.380446 0.831752 0.356345 -0.691463
H13   H     H_    0.416947 0.773020 0.268360 0.264834
H14   H     H_    0.338695 0.766793 0.392154 0.224567
H15   H     H_    0.332928 0.886034 0.308615 0.234265
C32   C     C_3   0.387532 0.143383 0.608768 -0.739199
H16   H     H_    0.347507 0.079665 0.648605 0.223017
H17   H     H_    0.431184 0.216646 0.704852 0.275707
H18   H     H_    0.338998 0.192676 0.556027 0.220982
C33   C     C_2   0.557542 0.984318 0.716555 0.846248
O13   O     O_2   0.576181 0.957916 0.825628 -0.551125
O14   O     O_R   0.593433 0.103688 0.715898 -0.723875
H19   H     H_    0.631722 0.159951 0.812156 0.358722
C34   C     C_2   0.540355 0.033324 0.305344 0.839361
O15   O     O_2   0.536918 0.046077 0.187872 -0.541741
O16   O     O_R   0.599381 0.950150 0.340419 -0.705304
H20   H     H_    0.638961 0.912270 0.263235 0.358630
C35   C     C_2   0.384417 0.527995 0.891777 0.896501
O17   O     O_2   0.351346 0.631982 0.939545 -0.588046
O18   O     O_R   0.329798 0.415162 0.798295 -0.801238
H21   H     H_    0.263820 0.431488 0.780615 0.334333
C36   C     C_2   0.605160 0.550325 0.153431 0.899048
O19   O     O_2   0.664429 0.476707 0.119015 -0.587056
O20   O     O_R   0.626477 0.675022 0.261490 -0.751710
H22   H     H_    0.693579 0.694130 0.301897 0.324690
C37   C     C_3   0.614204 0.655417 0.937134 -0.437186
H23   H     H_    0.629988 0.707665 0.865760 0.246732
H24   H     H_    0.596194 0.731376 0.035534 0.188326
H25   H     H_    0.676881 0.611090 0.960003 0.197071
C38   C     C_3   0.381538 0.355956 0.056272 -0.472660
H26   H     H_    0.367219 0.289476 0.113629 0.227103
H27   H     H_    0.321040 0.410496 0.052443 0.198984
H28   H     H_    0.394289 0.292468 0.946959 0.193811

loop_
_geom_bond_atom_site_label_1
_geom_bond_atom_site_label_2
_ccdc_geom_bond_type
C30   H10   S    
C32   H17   S    
O16   H20   S    
C35   O17   D    
C25   C27   S    
O20   H22   S    
C7    C8    S    
C28   O12   S    
O10   H5    S    
C1    C5    S    
C13   H1    S    
C19   C21   A    
C8    C31   S    
Cu2   O6    S    
Cu1   O4    S    
Cu2   O7    S    
C13   C23   A    
C9    C36   S    
C14   C24   A    
C12   O8    A    
C21   C23   A    
C37   H23   S    
Cu1   O5    S    
C9    C10   S    
C18   C20   A    
C1    O3    A    
C32   H18   S    
C31   H13   S    
C21   C22   A    
C9    N1    D    
C3    C24   A    
C2    C6    S    
C14   H2    S    
Cu1   N2    S    
C31   H14   S    
C33   O13   D    
C3    C25   A    
C36   O20   S    
C4    C23   A    
C3    C29   S    
C6    C8    D    
Cu1   O1    S    
O18   H21   S    
C29   H7    S    
C29   H8    S    
C12   O6    A    
C27   O9    D    
C27   O10   S    
C10   C35   S    
C2    O4    A    
C28   O11   D    
C12   C15   S    
C10   N2    D    
C11   O5    A    
C35   O18   S    
C7    C32   S    
C26   C28   S    
C6    C33   S    
C37   H24   S    
C20   C22   A    
Cu2   N1    S    
C13   C15   A    
C4    C30   S    
C17   H3    S    
C22   C24   A    
C30   H12   S    
C18   H4    S    
N2    C37   S    
C1    O1    A    
C5    C7    D    
C2    O2    A    
C15   C17   A    
C31   H15   S    
C32   H16   S    
C4    C26   A    
C29   H9    S    
C30   H11   S    
N1    C38   S    
C34   O15   D    
C5    C34   S    
Cu1   O8    S    
C20   C26   A    
Cu2   O3    S    
C17   C19   A    
C11   O7    A    
C14   C16   A    
O14   H19   S    
C19   C25   A    
C11   C16   S    
C36   O19   D    
C37   H25   S    
Cu2   O2    S    
C38   H26   S    
C16   C18   A    
O12   H6    S    
C38   H28   S    
C34   O16   S    
Cu1   Cu2   S    
C38   H27   S    
C33   O14   S    
