data_mof_unit_46983.cif
_audit_creation_date              2012-12-10T20:25:43-0500
_audit_creation_method            fapswitch 2.2
_symmetry_space_group_name_H-M    P1
_symmetry_Int_Tables_number       1
_space_group_crystal_system       triclinic
_cell_length_a                    8.577666
_cell_length_b                    10.660295
_cell_length_c                    9.908857
_cell_angle_alpha                 89.72046
_cell_angle_beta                  98.538836
_cell_angle_gamma                 90.672704
_cell_volume                      895.960697536

loop_
_atom_site_label
_atom_site_type_symbol
_atom_type_description
_atom_site_fract_x
_atom_site_fract_y
_atom_site_fract_z
_atom_type_partial_charge
C1    C     C_R   0.496744 0.260244 0.500002 0.878630
C2    C     C_R   0.440913 0.399749 0.921632 0.201504
C3    C     C_3   0.279356 0.344739 0.890725 -0.483429
C4    C     C_R   0.201352 0.500669 0.464222 0.949787
C5    C     C_3   0.272196 0.348971 0.043529 -0.268111
C6    C     C_R   0.490889 0.739520 0.498586 0.855378
C7    C     C_R   0.798581 0.501347 0.535681 0.961801
C8    C     C_2   0.036082 0.501431 0.444957 -0.391084
C9    C     C_2   0.963730 0.504630 0.554577 -0.374684
C10   C     C_R   0.520210 0.062956 0.620255 0.134080
C11   C     C_R   0.475760 0.128638 0.500007 -0.178894
C12   C     C_R   0.388569 0.936492 0.382325 -0.056719
C13   C     C_R   0.397917 0.067284 0.384134 -0.162738
C14   C     C_2   0.148448 0.437349 0.078700 0.492975
C15   C     C_2   0.299368 0.872213 0.261561 0.492394
C16   C     C_2   0.654005 0.125419 0.852407 0.520809
C17   C     C_2   0.669580 0.691879 0.159261 0.443986
C18   C     C_R   0.465567 0.871084 0.497792 -0.204442
C19   C     C_R   0.517033 0.935355 0.618516 0.148721
C20   C     C_3   0.668127 0.925457 0.715291 -0.436973
C21   C     C_3   0.671979 0.068225 0.716856 -0.257216
C22   C     C_R   0.437481 0.401049 0.062956 0.205667
C23   C     C_R   0.577733 0.591723 0.079976 0.005714
C24   C     C_R   0.574818 0.591692 0.935839 -0.059021
H1    H     H_    0.974290 0.498064 0.340903 0.174179
H2    H     H_    0.770875 0.109883 0.670007 0.123767
H3    H     H_    0.053274 0.400790 0.128822 0.029997
H4    H     H_    0.260643 0.775515 0.268192 0.101597
H5    H     H_    0.733341 0.200623 0.893067 0.030553
H6    H     H_    0.720379 0.677391 0.264094 0.117070
H7    H     H_    0.634406 0.664992 0.886798 0.174467
H8    H     H_    0.196189 0.408020 0.827530 0.216786
H9    H     H_    0.281090 0.247666 0.850608 0.221253
H10   H     H_    0.265108 0.254230 0.089648 0.156611
H11   H     H_    0.025170 0.509664 0.658451 0.185248
H12   H     H_    0.347655 0.120966 0.295453 0.189098
H13   H     H_    0.650191 0.881023 0.813562 0.253692
H14   H     H_    0.764563 0.884213 0.666787 0.179544
N1    N     N_R   0.498950 0.499140 0.142680 -0.149841
N2    N     N_R   0.498950 0.499180 0.857030 -0.132325
O1    O     O_R   0.500020 0.316790 0.614690 -0.625442
O2    O     O_2   0.265038 0.927634 0.153244 -0.530208
O3    O     O_2   0.551098 0.089303 0.916921 -0.535454
O4    O     O_2   0.693530 0.792606 0.106301 -0.559556
O5    O     O_R   0.500000 0.316760 0.385350 -0.620601
O6    O     O_R   0.271760 0.500010 0.587850 -0.608254
O7    O     O_R   0.271740 0.499970 0.358500 -0.623905
O8    O     O_R   0.500000 0.683240 0.614650 -0.603855
O9    O     O_R   0.499980 0.683210 0.385310 -0.657941
O10   O     O_R   0.728260 0.500030 0.641500 -0.625119
O11   O     O_R   0.728240 0.499990 0.412150 -0.645457
O12   O     O_2   0.151150 0.548621 0.048803 -0.554539
Zn1   Zn    Zn3+2 0.500010 0.500020 0.653130 0.953781
Zn2   Zn    Zn3+2 0.499990 0.499980 0.346870 0.946719

loop_
_geom_bond_atom_site_label_1
_geom_bond_atom_site_label_2
_ccdc_geom_bond_type
C2    C22   A    
C21   H2    S    
C16   C21   S    
C20   H13   S    
C14   H3    S    
C20   H14   S    
C19   C20   S    
C1    C11   S    
C12   C15   S    
C10   C19   A    
C4    C8    S    
O11   Zn2   S    
O1    Zn1   S    
C5    H10   S    
C2    C3    S    
C15   H4    S    
C24   H7    S    
C7    O11   A    
C3    H8    S    
C6    O9    A    
C4    O6    A    
C12   C13   A    
C17   H6    S    
C11   C13   A    
C16   O3    D    
C1    O5    A    
C5    C14   S    
C17   C23   S    
C6    O8    A    
O7    Zn2   S    
C23   N1    A    
C22   N1    A    
O6    Zn1   S    
C1    O1    A    
C24   N2    A    
O5    Zn2   S    
N2    Zn1   S    
C10   C21   S    
O8    Zn1   S    
C6    C18   S    
C17   O4    D    
O10   Zn1   S    
C10   C11   A    
C3    H9    S    
C23   C24   A    
C8    H1    S    
O9    Zn2   S    
N1    Zn2   S    
C2    N2    A    
C20   C21   S    
C7    O10   A    
C13   H12   S    
C7    C9    S    
C18   C19   A    
C12   C18   A    
C9    H11   S    
C16   H5    S    
C14   O12   D    
C5    C22   S    
C15   O2    D    
C8    C9    D    
C3    C5    S    
C4    O7    A    
