data_mof_unit_58113.cif
_audit_creation_date              2012-12-11T15:35:30-0500
_audit_creation_method            fapswitch 2.2
_symmetry_space_group_name_H-M    P1
_symmetry_Int_Tables_number       1
_space_group_crystal_system       triclinic
_cell_length_a                    17.380743
_cell_length_b                    24.439409
_cell_length_c                    14.763453
_cell_angle_alpha                 89.939822
_cell_angle_beta                  124.77738
_cell_angle_gamma                 90.192704
_cell_volume                      5150.92799033

loop_
_atom_site_label
_atom_site_type_symbol
_atom_type_description
_atom_site_fract_x
_atom_site_fract_y
_atom_site_fract_z
_atom_type_partial_charge
C1    C     C_R   0.347958 0.150266 0.907455 -0.147177
C2    C     C_R   0.599349 0.124026 0.908811 -0.118182
C3    C     C_R   0.254778 0.545301 0.304895 0.652092
C4    C     C_R   0.094913 0.372444 0.907053 -0.087948
C5    C     C_R   0.095776 0.626986 0.907287 -0.099346
C6    C     C_R   0.443050 0.999907 0.634125 0.093206
C7    C     C_R   0.944162 0.499796 0.634743 0.092834
C8    C     C_R   0.802200 0.999034 0.367600 -0.332445
C9    C     C_R   0.303960 0.499633 0.366967 -0.332871
C10   C     C_R   0.688399 0.137693 0.000982 0.047741
C11   C     C_R   0.681871 0.858559 0.999512 0.023860
C12   C     C_R   0.182628 0.640571 0.999171 0.019029
C13   C     C_R   0.348111 0.849535 0.906836 -0.136601
C14   C     C_R   0.180828 0.357721 0.998898 0.014613
C15   C     C_3   0.018697 0.961903 0.657207 -0.424208
C16   C     C_3   0.032838 0.058649 0.610705 -0.484239
C17   C     C_3   0.524581 0.449074 0.640548 -0.461355
C18   C     C_3   0.524581 0.551364 0.639648 -0.467227
C19   C     C_3   0.912758 0.965718 0.563860 -0.329295
C20   C     C_3   0.933636 0.057349 0.507077 -0.307507
C21   C     C_3   0.420649 0.450968 0.544234 -0.316664
C22   C     C_3   0.424669 0.552878 0.534417 -0.313379
C23   C     C_3   0.067010 0.982621 0.525563 -0.463753
C24   C     C_R   0.848476 0.650493 0.907276 -0.137336
C25   C     C_3   0.571436 0.500216 0.529160 -0.446893
C26   C     C_3   0.075485 0.000753 0.631918 0.314258
C27   C     C_3   0.575841 0.500182 0.637196 0.322513
C28   C     C_3   0.900475 0.997548 0.465297 0.221169
C29   C     C_3   0.402272 0.499505 0.465503 0.234992
C30   C     C_R   0.441242 0.848202 0.090971 -0.068933
C31   C     C_R   0.440912 0.151476 0.091599 -0.082939
C32   C     C_R   0.941244 0.347614 0.090012 -0.078219
C33   C     C_R   0.941130 0.651583 0.091377 -0.068726
C34   C     C_3   0.964849 0.970050 0.433700 0.344918
C35   C     C_R   0.848625 0.349379 0.906203 -0.124045
C36   C     C_3   0.470253 0.495277 0.427289 0.325289
C37   C     C_R   0.350526 0.720386 0.976885 -0.121075
C38   C     C_R   0.365085 0.279374 0.008124 -0.149519
C39   C     C_R   0.779107 0.236780 0.895219 -0.136381
C40   C     C_R   0.848472 0.779246 0.974783 -0.120537
C41   C     C_R   0.734927 0.190390 0.897609 -0.173290
C42   C     C_R   0.799109 0.823238 0.975468 -0.159265
C43   C     C_R   0.301349 0.676160 0.977774 -0.159234
C44   C     C_R   0.314981 0.323295 0.007358 -0.151504
C45   C     C_R   0.760854 0.168023 0.999095 0.060242
C46   C     C_R   0.687703 0.125550 0.092363 -0.070973
C47   C     C_R   0.733928 0.814148 0.000576 0.038488
C48   C     C_R   0.234459 0.685160 0.000041 0.039530
C49   C     C_R   0.232026 0.313254 0.998889 0.037449
C50   C     C_R   0.847374 0.184653 0.095976 0.214743
C51   C     C_R   0.715821 0.761750 0.023430 0.233468
C52   C     C_R   0.214490 0.737608 0.019991 0.230706
C53   C     C_R   0.198333 0.260150 0.992609 0.225030
C54   C     C_R   0.264128 0.781007 0.019747 -0.192667
C55   C     C_R   0.248175 0.216936 0.992661 -0.181889
C56   C     C_R   0.891493 0.231003 0.092171 -0.152177
C57   C     C_R   0.687173 0.874649 0.092176 -0.026371
C58   C     C_R   0.765583 0.718576 0.023258 -0.192993
C59   C     C_R   0.331721 0.772059 0.999285 0.072109
C60   C     C_R   0.330336 0.226891 0.000061 0.082393
C61   C     C_R   0.851761 0.260263 0.994182 0.109322
C62   C     C_R   0.831632 0.727634 0.000186 0.071669
C63   C     C_R   0.391942 0.950376 0.460813 -0.195594
C64   C     C_R   0.390956 0.049050 0.459722 -0.199511
C65   C     C_R   0.892398 0.450171 0.460952 -0.198299
C66   C     C_R   0.892456 0.548845 0.460871 -0.195518
C67   C     C_R   0.376030 0.950212 0.357350 0.193986
C68   C     C_R   0.187624 0.624973 0.091881 -0.027901
C69   C     C_R   0.374937 0.048854 0.356077 0.193369
C70   C     C_R   0.875936 0.450152 0.357108 0.189888
C71   C     C_R   0.876047 0.548802 0.357181 0.192633
C72   C     C_R   0.385938 0.999523 0.315176 -0.001340
C73   C     C_R   0.886125 0.499527 0.315332 -0.001954
C74   C     C_R   0.476517 0.045213 0.245320 -0.085503
C75   C     C_R   0.476493 0.954462 0.245221 -0.083968
C76   C     C_R   0.976445 0.545207 0.245192 -0.091607
C77   C     C_R   0.976400 0.454424 0.245048 -0.086496
C78   C     C_R   0.409096 0.999815 0.517471 0.057143
C79   C     C_R   0.186074 0.373128 0.091814 -0.033848
C80   C     C_R   0.910237 0.499576 0.518141 0.056374
C81   C     C_R   0.231018 0.954190 0.750907 -0.136054
C82   C     C_R   0.232374 0.046484 0.751342 -0.118330
C83   C     C_R   0.731844 0.453980 0.753935 -0.128412
C84   C     C_R   0.732207 0.546118 0.753580 -0.125855
C85   C     C_R   0.377938 0.180790 0.999518 0.048541
C86   C     C_R   0.378746 0.818641 0.998564 0.070502
C87   C     C_R   0.878631 0.681161 0.999232 0.073359
C88   C     C_R   0.878014 0.317150 0.997017 0.081882
C89   C     C_R   0.439948 0.999715 0.265646 0.055785
C90   C     C_R   0.595293 0.872382 0.907435 -0.102043
C91   C     C_R   0.939901 0.499697 0.265536 0.060605
C92   C     C_R   0.175634 0.000690 0.721443 0.044867
C93   C     C_R   0.676019 0.500125 0.727681 0.041797
C94   C     C_R   0.455117 0.045253 0.697113 -0.136170
C95   C     C_R   0.455874 0.954585 0.697654 -0.131581
C96   C     C_R   0.956224 0.545254 0.697689 -0.135148
C97   C     C_R   0.956326 0.454519 0.697947 -0.135545
C98   C     C_R   0.752757 0.954059 0.305261 0.673225
C99   C     C_R   0.754285 0.045079 0.305008 0.646703
C100  C     C_R   0.254720 0.454276 0.303951 0.663365
F1    F     F_    0.755071 0.903716 0.345204 -0.690719
F2    F     F_    0.761712 0.096697 0.342871 -0.718319
F3    F     F_    0.261980 0.402430 0.340430 -0.715205
F4    F     F_    0.263230 0.596977 0.342796 -0.713122
H1    H     H_    0.304489 0.163977 0.822777 0.110728
H2    H     H_    0.887428 0.077075 0.527117 0.228278
H3    H     H_    0.376632 0.455528 0.576419 0.177352
H4    H     H_    0.373796 0.558349 0.556635 0.195170
H5    H     H_    0.882054 0.924034 0.540150 0.240745
H6    H     H_    0.931683 0.081882 0.442322 0.234667
H7    H     H_    0.403460 0.410807 0.502585 0.251881
H8    H     H_    0.420078 0.589280 0.486626 0.242593
H9    H     H_    0.111501 0.946665 0.539863 0.187300
H10   H     H_    0.094177 0.016069 0.499708 0.196660
H11   H     H_    0.614711 0.466453 0.530311 0.189889
H12   H     H_    0.303902 0.836292 0.821817 0.114247
H13   H     H_    0.603996 0.538652 0.525476 0.187824
H14   H     H_    0.402257 0.714586 0.958954 0.164627
H15   H     H_    0.429633 0.285982 0.014370 0.143530
H16   H     H_    0.750021 0.256400 0.816471 0.121530
H17   H     H_    0.898858 0.785181 0.954696 0.165356
H18   H     H_    0.674327 0.176438 0.819782 0.127280
H19   H     H_    0.811108 0.863881 0.956394 0.153657
H20   H     H_    0.314776 0.635428 0.961022 0.151756
H21   H     H_    0.340231 0.364635 0.013250 0.155647
H22   H     H_    0.249185 0.821969 0.033699 0.178839
H23   H     H_    0.804851 0.664009 0.822473 0.110753
H24   H     H_    0.223408 0.175493 0.987546 0.170811
H25   H     H_    0.953835 0.245634 0.167825 0.153364
H26   H     H_    0.751691 0.677647 0.038956 0.178484
H27   H     H_    0.391440 0.911734 0.496021 0.150577
H28   H     H_    0.389738 0.087733 0.494181 0.148710
H29   H     H_    0.891709 0.411505 0.495963 0.150431
H30   H     H_    0.891781 0.587515 0.495734 0.152089
H31   H     H_    0.482260 0.833760 0.175268 0.139172
H32   H     H_    0.481720 0.165793 0.176039 0.129923
H33   H     H_    0.986672 0.333124 0.173815 0.117243
H34   H     H_    0.811294 0.336228 0.821338 0.098994
H35   H     H_    0.982070 0.665928 0.175799 0.138679
H36   H     H_    0.469426 0.087499 0.258355 0.136916
H37   H     H_    0.469300 0.912095 0.257897 0.136748
H38   H     H_    0.969285 0.587504 0.258042 0.137318
H39   H     H_    0.969084 0.411999 0.257388 0.140064
H40   H     H_    0.207761 0.912121 0.733521 0.110430
H41   H     H_    0.212970 0.088957 0.738971 0.101014
H42   H     H_    0.710129 0.411705 0.738110 0.103115
H43   H     H_    0.711308 0.588368 0.737101 0.100845
H44   H     H_    0.437333 0.087067 0.669117 0.097521
H45   H     H_    0.030526 0.973155 0.737261 0.180587
H46   H     H_    0.439085 0.912579 0.670429 0.099121
H47   H     H_    0.939195 0.587141 0.670012 0.101071
H48   H     H_    0.939303 0.412544 0.670564 0.100502
H49   H     H_    0.740148 0.133958 0.177313 0.196989
H50   H     H_    0.742397 0.865932 0.177082 0.191854
H51   H     H_    0.243044 0.634036 0.176526 0.192557
H52   H     H_    0.240600 0.363227 0.176241 0.195515
H53   H     H_    0.566097 0.862081 0.822463 0.112704
H54   H     H_    0.572759 0.128008 0.823040 0.100847
H55   H     H_    0.065588 0.362413 0.821938 0.114419
H56   H     H_    0.033287 0.072598 0.682791 0.191208
H57   H     H_    0.066690 0.637191 0.822318 0.114458
H58   H     H_    0.042443 0.918965 0.664293 0.188884
H59   H     H_    0.071763 0.089251 0.595684 0.183579
H60   H     H_    0.555095 0.410961 0.632831 0.180754
H61   H     H_    0.559983 0.590004 0.643545 0.172977
H62   H     H_    0.531541 0.447188 0.720235 0.181835
H63   H     H_    0.522595 0.550160 0.713652 0.188720
H64   H     H_    0.875749 0.987423 0.594680 0.172228
I1    I     I_    0.953690 0.881215 0.415710 -0.322559
I2    I     I_    0.319081 0.121558 0.260694 -0.381066
I3    I     I_    0.820959 0.376838 0.263139 -0.406532
I4    I     I_    0.821245 0.621989 0.264079 -0.382875
I5    I     I_    0.937978 0.995992 0.278291 -0.362907
I6    I     I_    0.457456 0.419037 0.343832 -0.386661
I7    I     I_    0.448683 0.557974 0.310426 -0.390396
I8    I     I_    0.922624 0.147055 0.253347 -0.363222
I9    I     I_    0.612640 0.743614 0.054004 -0.388376
I10   I     I_    0.109076 0.755435 0.046783 -0.390948
I11   I     I_    0.075023 0.241604 0.985268 -0.389211
I12   I     I_    0.321918 0.876633 0.264786 -0.388463
N1    N     N_R   0.392140 0.102630 0.941800 -0.043752
N2    N     N_R   0.525160 0.972040 0.206160 -0.054601
N3    N     N_R   0.025160 0.527960 0.206160 -0.055735
N4    N     N_R   0.025160 0.472040 0.206160 -0.056814
N5    N     N_R   0.317870 0.971120 0.792790 -0.040645
N6    N     N_R   0.317870 0.028880 0.792790 -0.041608
N7    N     N_R   0.817870 0.471120 0.792790 -0.041748
N8    N     N_R   0.817870 0.528880 0.792790 -0.041428
N9    N     N_R   0.473480 0.027920 0.793480 -0.043659
N10   N     N_R   0.473480 0.972080 0.793480 -0.044559
N11   N     N_R   0.973480 0.527920 0.793480 -0.045974
N12   N     N_R   0.392140 0.897370 0.941800 -0.045854
N13   N     N_R   0.973480 0.472080 0.793480 -0.046212
N14   N     N_R   0.681610 0.971120 0.207570 -0.145258
N15   N     N_R   0.681610 0.028880 0.207570 -0.136150
N16   N     N_R   0.181610 0.471120 0.207570 -0.143237
N17   N     N_R   0.181610 0.528880 0.207570 -0.142004
N18   N     N_R   0.605410 0.102620 0.056870 -0.047165
N19   N     N_R   0.605410 0.897380 0.056870 -0.044430
N20   N     N_R   0.105410 0.602620 0.056870 -0.043022
N21   N     N_R   0.105410 0.397380 0.056870 -0.045493
N22   N     N_R   0.549680 0.896430 0.944180 -0.046447
N23   N     N_R   0.892140 0.602630 0.941800 -0.045159
N24   N     N_R   0.549680 0.103570 0.944180 -0.048981
N25   N     N_R   0.049680 0.396430 0.944180 -0.046009
N26   N     N_R   0.049680 0.603570 0.944180 -0.046123
N27   N     N_R   0.892140 0.397370 0.941800 -0.044608
N28   N     N_R   0.450890 0.896450 0.057150 -0.050276
N29   N     N_R   0.450890 0.103550 0.057150 -0.047487
N30   N     N_R   0.950890 0.396450 0.057150 -0.046699
N31   N     N_R   0.950890 0.603550 0.057150 -0.049943
N32   N     N_R   0.525160 0.027960 0.206160 -0.055651
Ni1   Ni    Ni4+2 0.433410 0.064680 0.868830 0.216713
Ni2   Ni    Ni4+2 0.433410 0.935320 0.868830 0.223510
Ni3   Ni    Ni4+2 0.933410 0.564680 0.868830 0.221808
Ni4   Ni    Ni4+2 0.933410 0.435320 0.868830 0.223054
Ni5   Ni    Ni4+2 0.565650 0.934380 0.131170 0.282884
Ni6   Ni    Ni4+2 0.565650 0.065620 0.131170 0.269557
Ni7   Ni    Ni4+2 0.065650 0.434380 0.131170 0.271927
Ni8   Ni    Ni4+2 0.065650 0.565620 0.131170 0.276443

loop_
_geom_bond_atom_site_label_1
_geom_bond_atom_site_label_2
_ccdc_geom_bond_type
C3    F4    S    
C58   C62   A    
C24   N23   A    
C36   I6    S    
N3    Ni8   S    
C31   C85   A    
C22   C29   S    
C16   H56   S    
C15   H58   S    
C11   C47   S    
N19   Ni5   S    
C12   C48   S    
C68   H51   S    
C83   N7    A    
C82   H41   S    
N11   N13   A    
C40   C62   A    
C4    N25   A    
C39   C41   A    
N26   Ni3   S    
C15   C19   S    
C7    C96   A    
C54   H22   S    
C29   C36   S    
C13   N12   A    
N32   Ni6   S    
C82   N6    A    
N29   Ni6   S    
C96   N11   A    
C50   I8    S    
C61   C88   S    
C8    C99   A    
C33   H35   S    
C67   I12   S    
C25   H11   S    
C35   H34   S    
C49   C53   A    
C46   N18   A    
C14   C49   S    
C26   C92   S    
C39   H16   S    
C83   C93   A    
N6    Ni1   S    
C99   N15   A    
C77   N4    A    
C82   C92   A    
N5    Ni2   S    
C98   N14   A    
C6    C78   S    
N1    N29   A    
C67   C72   A    
C23   C26   S    
N12   Ni2   S    
N21   N25   A    
N19   N22   A    
C8    C98   A    
C76   H38   S    
C75   H37   S    
C95   N10   A    
N11   Ni3   S    
C79   H52   S    
C66   H30   S    
C81   C92   A    
C18   H61   S    
N4    Ni7   S    
C37   H14   S    
C64   H28   S    
N25   Ni4   S    
C79   N21   A    
C13   C86   A    
C10   C46   A    
N27   N30   A    
C76   C91   A    
C40   H17   S    
C63   H27   S    
C30   C86   A    
C76   N3    A    
C43   C48   A    
C56   H25   S    
C2    H54   S    
C69   I2    S    
C40   C42   A    
N14   N15   A    
C5    N26   A    
C28   C34   S    
C65   C80   A    
C55   C60   A    
C57   N19   A    
C94   H44   S    
N12   N28   A    
N23   N31   A    
N18   Ni6   S    
C10   C45   S    
C53   I11   S    
C81   N5    A    
C42   C47   A    
C21   H7    S    
N8    Ni3   S    
C52   C54   A    
C42   H19   S    
N14   Ni5   S    
C20   H2    S    
C54   C59   A    
C100  N16   A    
C16   H59   S    
C16   C26   S    
C39   C61   A    
C63   C67   A    
C44   H21   S    
C17   C27   S    
C2    N24   A    
N21   Ni7   S    
C5    C12   A    
C95   H46   S    
C1    N1    A    
N16   N17   A    
C15   C26   S    
C47   C51   A    
C20   C28   S    
C6    C94   A    
C64   C69   A    
C96   H47   S    
C74   H36   S    
N24   Ni1   S    
C44   C49   A    
C50   C56   A    
N30   Ni7   S    
C74   N32   A    
C52   I10   S    
C5    H57   S    
C41   H18   S    
C37   C43   A    
C69   C72   A    
C70   I3    S    
C77   H39   S    
N3    N4    A    
C38   C44   A    
C3    C9    A    
C17   H60   S    
C23   H9    S    
C83   H42   S    
C32   N30   A    
C35   C88   A    
C66   C71   A    
C31   N29   A    
N31   Ni8   S    
C16   C20   S    
C23   C34   S    
C30   N28   A    
C70   C73   A    
N2    N32   A    
C56   C61   A    
C51   C58   A    
C21   H3    S    
C14   C79   A    
N22   Ni2   S    
C19   C28   S    
N10   Ni2   S    
C73   C91   S    
C37   C59   A    
C34   I1    S    
N9    Ni1   S    
C17   H62   S    
C38   C60   A    
C38   H15   S    
C35   N27   A    
C30   H31   S    
C9    C100  A    
C22   H8    S    
N18   N24   A    
N20   Ni8   S    
C20   H6    S    
C27   C93   S    
C1    C85   A    
C8    C28   S    
C19   H64   S    
C53   C55   A    
C2    C10   A    
C15   H45   S    
N16   Ni7   S    
C74   C89   A    
N13   Ni4   S    
C71   C73   A    
C57   H50   S    
C84   H43   S    
N23   Ni3   S    
N28   Ni5   S    
C46   H49   S    
N7    Ni4   S    
C77   C91   A    
N20   N26   A    
C7    C97   A    
C18   C22   S    
C64   C78   A    
C18   C27   S    
C31   H32   S    
C25   H13   S    
C18   H63   S    
C3    N17   A    
C60   C85   S    
C9    C29   S    
C25   C27   S    
C98   F1    S    
C66   C80   A    
C62   C87   S    
C68   N20   A    
C12   C68   A    
C90   H53   S    
C33   C87   A    
C59   C86   S    
C32   H33   S    
C34   I5    S    
C51   I9    S    
C23   H10   S    
C72   C89   S    
C33   N31   A    
C11   C90   A    
N5    N6    A    
C19   H5    S    
C21   C29   S    
C45   C50   A    
C58   H26   S    
C22   H4    S    
N27   Ni4   S    
C24   H23   S    
C97   H48   S    
C84   C93   A    
C100  F3    S    
C4    C14   A    
N9    N10   A    
C81   H40   S    
C24   C87   A    
C17   C21   S    
C94   N9    A    
C13   H12   S    
C84   N8    A    
C75   C89   A    
C25   C36   S    
C4    H55   S    
C36   I7    S    
C48   C52   A    
C99   F2    S    
C55   H24   S    
N7    N8    A    
N2    Ni5   S    
C6    C95   A    
C97   N13   A    
C41   C45   A    
C71   I4    S    
N1    Ni1   S    
C11   C57   A    
C75   N2    A    
C43   H20   S    
C63   C78   A    
N15   Ni6   S    
C65   H29   S    
C65   C70   A    
C1    H1    S    
C7    C80   S    
C90   N22   A    
N17   Ni8   S    
C32   C88   A    
