data_mof_unit_66215.cif
_audit_creation_date              2012-12-10T19:41:43-0500
_audit_creation_method            fapswitch 2.2
_symmetry_space_group_name_H-M    P1
_symmetry_Int_Tables_number       1
_space_group_crystal_system       triclinic
_cell_length_a                    18.24917
_cell_length_b                    30.542291
_cell_length_c                    30.711367
_cell_angle_alpha                 90.015299
_cell_angle_beta                  89.95885
_cell_angle_gamma                 89.965993
_cell_volume                      17117.6314412

loop_
_atom_site_label
_atom_site_type_symbol
_atom_type_description
_atom_site_fract_x
_atom_site_fract_y
_atom_site_fract_z
_atom_type_partial_charge
C1    C     C_R   0.498766 0.689893 0.309823 0.907321
C2    C     C_R   0.437197 0.616012 0.603618 0.150977
C3    C     C_R   0.141013 0.750001 0.250018 0.958630
C4    C     C_R   0.358983 0.249938 0.750062 0.938989
C5    C     C_R   0.358987 0.249971 0.249991 0.959145
C6    C     C_R   0.641018 0.250051 0.749909 0.934616
C7    C     C_R   0.641010 0.250004 0.250021 0.917016
C8    C     C_3   0.628156 0.883041 0.170060 -0.493320
C9    C     C_3   0.626704 0.884272 0.828650 -0.489539
C10   C     C_3   0.871795 0.383100 0.170134 -0.493627
C11   C     C_3   0.873472 0.384441 0.828686 -0.489458
C12   C     C_3   0.873294 0.884353 0.671321 -0.489610
C13   C     C_R   0.936733 0.115140 0.395546 0.148598
C14   C     C_3   0.871913 0.883142 0.329917 -0.493276
C15   C     C_3   0.626550 0.384380 0.671328 -0.489437
C16   C     C_3   0.607481 0.392585 0.322206 -0.481450
C17   C     C_R   0.499901 0.939679 0.939993 0.906150
C18   C     C_R   0.499868 0.939674 0.060013 0.906182
C19   C     C_R   0.000155 0.439690 0.939983 0.906177
C20   C     C_R   0.000126 0.439673 0.060011 0.906174
C21   C     C_R   0.000157 0.939677 0.439985 0.906364
C22   C     C_R   0.000124 0.939685 0.560014 0.906057
C23   C     C_R   0.500044 0.439586 0.439858 0.898771
C24   C     C_R   0.062715 0.115938 0.603596 0.151217
C25   C     C_R   0.499871 0.439685 0.560013 0.906647
C26   C     C_R   0.500021 0.560069 0.439552 0.894641
C27   C     C_R   0.499946 0.560078 0.560428 0.895445
C28   C     C_R   0.999988 0.060076 0.439557 0.896200
C29   C     C_R   0.999998 0.060087 0.560418 0.895615
C30   C     C_R   0.000028 0.560085 0.939578 0.895447
C31   C     C_R   0.999955 0.560071 0.060447 0.896317
C32   C     C_R   0.499978 0.060086 0.939579 0.895424
C33   C     C_R   0.499990 0.060081 0.060434 0.896328
C34   C     C_R   0.499356 0.809918 0.190178 0.907598
C35   C     C_R   0.062737 0.615997 0.896411 0.151111
C36   C     C_R   0.499295 0.809918 0.809825 0.908228
C37   C     C_R   0.000638 0.309918 0.190177 0.907461
C38   C     C_R   0.000747 0.309919 0.809824 0.908174
C39   C     C_R   0.000714 0.809922 0.690172 0.908289
C40   C     C_R   0.000669 0.809915 0.309818 0.907471
C41   C     C_R   0.499275 0.309923 0.690172 0.908277
C42   C     C_R   0.498786 0.309958 0.309939 0.906690
C43   C     C_1   0.282421 0.750020 0.250025 -0.108781
C44   C     C_1   0.282429 0.749903 0.749952 -0.147572
C45   C     C_1   0.717576 0.749966 0.249961 -0.192140
C46   C     C_R   0.936749 0.615279 0.104367 0.148574
C47   C     C_1   0.717571 0.750076 0.750060 -0.151979
C48   C     C_1   0.782424 0.250033 0.250017 -0.191801
C49   C     C_1   0.782428 0.250019 0.750015 -0.151681
C50   C     C_1   0.217579 0.249952 0.249958 -0.107983
C51   C     C_1   0.217571 0.249962 0.749997 -0.147377
C52   C     C_1   0.782422 0.750081 0.749992 -0.152058
C53   C     C_1   0.782430 0.749971 0.249986 -0.192048
C54   C     C_1   0.217577 0.749898 0.749996 -0.147615
C55   C     C_1   0.217573 0.750014 0.250026 -0.108638
C56   C     C_1   0.282423 0.249967 0.750054 -0.147510
C57   C     C_R   0.437230 0.115969 0.896393 0.151159
C58   C     C_1   0.282426 0.249948 0.249966 -0.107923
C59   C     C_1   0.717577 0.250013 0.749933 -0.151775
C60   C     C_1   0.717570 0.250025 0.250027 -0.191532
C61   C     C_R   0.561793 0.647771 0.364819 0.068934
C62   C     C_R   0.438644 0.648478 0.634515 0.062974
C63   C     C_R   0.938066 0.147596 0.364648 0.068741
C64   C     C_R   0.061303 0.148386 0.634509 0.062973
C65   C     C_R   0.061306 0.648447 0.865511 0.063059
C66   C     C_R   0.938117 0.647753 0.135259 0.069008
C67   C     C_R   0.438649 0.148416 0.865489 0.063011
C68   C     C_R   0.563092 0.115323 0.104223 0.148746
C69   C     C_R   0.561745 0.147779 0.135131 0.068894
C70   C     C_R   0.497873 0.656254 0.341758 -0.129869
C71   C     C_R   0.502128 0.656233 0.658240 -0.130179
C72   C     C_R   0.002124 0.156259 0.341755 -0.129718
C73   C     C_R   0.997794 0.156242 0.658240 -0.130061
C74   C     C_R   0.997844 0.656235 0.841765 -0.130296
C75   C     C_R   0.002091 0.656258 0.158245 -0.129879
C76   C     C_R   0.502162 0.156235 0.841763 -0.130199
C77   C     C_R   0.497824 0.156266 0.158242 -0.129895
C78   C     C_R   0.437384 0.627978 0.345640 0.133880
C79   C     C_3   0.609090 0.641950 0.426001 -0.456681
C80   C     C_R   0.561871 0.627261 0.654965 0.133927
C81   C     C_R   0.062849 0.128155 0.345789 0.133455
C82   C     C_R   0.937960 0.127386 0.654945 0.133870
C83   C     C_R   0.938092 0.627309 0.845046 0.133965
C84   C     C_R   0.062638 0.627996 0.154311 0.133598
C85   C     C_R   0.562001 0.127341 0.845063 0.133889
C86   C     C_R   0.437305 0.128016 0.154385 0.133675
C87   C     C_R   0.438726 0.595403 0.377370 -0.230368
C88   C     C_R   0.560479 0.594711 0.623201 -0.236150
C89   C     C_R   0.061528 0.095582 0.377520 -0.228386
C90   C     C_3   0.392907 0.643139 0.572874 -0.455397
C91   C     C_R   0.939317 0.094852 0.623159 -0.236170
C92   C     C_R   0.939464 0.594776 0.876820 -0.236114
C93   C     C_R   0.061285 0.595409 0.122587 -0.228508
C94   C     C_R   0.560638 0.094810 0.876839 -0.236080
C95   C     C_R   0.438632 0.095450 0.122634 -0.228595
C96   C     C_R   0.500390 0.590843 0.404299 -0.153263
C97   C     C_R   0.499478 0.590858 0.595658 -0.147533
C98   C     C_R   0.999657 0.090854 0.404302 -0.152684
C99   C     C_R   0.000379 0.090899 0.595621 -0.147618
C100  C     C_R   0.000460 0.590885 0.904368 -0.147568
C101  C     C_3   0.890227 0.141660 0.425706 -0.456681
C102  C     C_R   0.999560 0.590832 0.095715 -0.152550
C103  C     C_R   0.499567 0.090889 0.904370 -0.147622
C104  C     C_R   0.500309 0.090879 0.095667 -0.152539
C105  C     C_R   0.501315 0.689890 0.690177 0.907409
C106  C     C_3   0.107168 0.143000 0.572866 -0.455398
C107  C     C_3   0.107016 0.643110 0.927159 -0.455475
C108  C     C_3   0.890658 0.641900 0.074125 -0.457095
C109  C     C_3   0.392757 0.143064 0.927124 -0.455347
C110  C     C_3   0.609042 0.141961 0.073908 -0.457149
C111  C     C_3   0.607492 0.677849 0.391824 -0.479311
C112  C     C_3   0.394598 0.679045 0.607063 -0.461210
C113  C     C_3   0.891789 0.177549 0.391517 -0.479237
C114  C     C_3   0.105514 0.178888 0.607075 -0.461447
C115  C     C_3   0.105342 0.678998 0.892969 -0.461267
C116  C     C_R   0.001209 0.189894 0.309821 0.907397
C117  C     C_3   0.892260 0.677811 0.108306 -0.479437
C118  C     C_3   0.394417 0.178947 0.892929 -0.461409
C119  C     C_3   0.607461 0.177855 0.108109 -0.479339
C120  C     C_R   0.554772 0.870959 0.152715 0.088074
C121  C     C_R   0.554149 0.871463 0.846761 0.086029
C122  C     C_R   0.945193 0.370976 0.152739 0.088097
C123  C     C_R   0.946021 0.371574 0.846741 0.086111
C124  C     C_R   0.945887 0.871516 0.653241 0.086091
C125  C     C_R   0.945298 0.871015 0.347260 0.088088
C126  C     C_R   0.554029 0.371533 0.653249 0.086181
C127  C     C_R   0.998651 0.189892 0.690179 0.907441
C128  C     C_R   0.561700 0.365195 0.351886 0.069333
C129  C     C_R   0.496633 0.842502 0.157596 -0.134999
C130  C     C_R   0.496585 0.842499 0.842432 -0.133719
C131  C     C_R   0.003356 0.342499 0.157592 -0.134910
C132  C     C_R   0.003506 0.342508 0.842420 -0.133764
C133  C     C_R   0.003443 0.842506 0.657569 -0.133817
C134  C     C_R   0.003415 0.842501 0.342396 -0.134896
C135  C     C_R   0.496539 0.342509 0.657572 -0.133849
C136  C     C_R   0.497659 0.342214 0.343241 -0.127142
C137  C     C_R   0.436532 0.846026 0.128905 0.134598
C138  C     C_R   0.998673 0.689888 0.809826 0.907474
C139  C     C_R   0.437141 0.845496 0.871724 0.137646
C140  C     C_R   0.063475 0.345995 0.128863 0.134636
C141  C     C_R   0.062934 0.345445 0.871679 0.137711
C142  C     C_R   0.062914 0.845478 0.628294 0.137711
C143  C     C_R   0.063517 0.845981 0.371088 0.134557
C144  C     C_R   0.437132 0.345474 0.628296 0.137675
C145  C     C_R   0.437137 0.345973 0.371397 0.133721
C146  C     C_R   0.437602 0.878328 0.096504 -0.226426
C147  C     C_R   0.438273 0.877793 0.904138 -0.227150
C148  C     C_R   0.062403 0.378296 0.096461 -0.226457
C149  C     C_R   0.001210 0.689897 0.190180 0.907313
C150  C     C_R   0.061834 0.377768 0.904075 -0.227279
C151  C     C_R   0.061804 0.877785 0.595896 -0.227132
C152  C     C_R   0.062457 0.878297 0.403489 -0.226530
C153  C     C_R   0.438243 0.377782 0.595899 -0.227003
C154  C     C_R   0.438588 0.377542 0.404101 -0.224363
C155  C     C_R   0.498707 0.906279 0.092345 -0.150144
C156  C     C_R   0.498800 0.906252 0.907712 -0.148702
C157  C     C_R   0.001278 0.406272 0.092338 -0.150124
C158  C     C_R   0.001347 0.406301 0.907664 -0.148647
C159  C     C_R   0.001266 0.906277 0.592313 -0.148724
C160  C     C_R   0.501322 0.189888 0.809824 0.907527
C161  C     C_R   0.001358 0.906296 0.407638 -0.150087
C162  C     C_R   0.498721 0.406282 0.592317 -0.148899
C163  C     C_R   0.500395 0.404441 0.408916 -0.148885
C164  C     C_R   0.556363 0.901064 0.121038 0.139551
C165  C     C_R   0.555838 0.901553 0.878462 0.136031
C166  C     C_R   0.943601 0.401079 0.121060 0.139493
C167  C     C_R   0.944359 0.401683 0.878422 0.136036
C168  C     C_R   0.944218 0.901611 0.621555 0.136139
C169  C     C_R   0.943715 0.901132 0.378935 0.139496
C170  C     C_R   0.555704 0.401629 0.621564 0.136033
C171  C     C_R   0.498739 0.189899 0.190181 0.907261
C172  C     C_R   0.563152 0.395963 0.384468 0.152498
C173  C     C_3   0.629758 0.918005 0.133901 -0.449267
C174  C     C_3   0.628371 0.919230 0.864833 -0.443902
C175  C     C_3   0.870193 0.418061 0.133973 -0.449024
C176  C     C_3   0.871832 0.419418 0.864852 -0.443860
C177  C     C_3   0.871647 0.919313 0.635157 -0.443882
C178  C     C_3   0.870319 0.918122 0.366080 -0.449273
C179  C     C_3   0.628201 0.419340 0.635164 -0.443781
C180  C     C_3   0.609190 0.426617 0.358236 -0.459568
C181  C     C_R   0.358981 0.750006 0.249999 0.958838
C182  C     C_R   0.563155 0.615306 0.395709 0.148853
C183  C     C_R   0.358989 0.749917 0.749942 0.938879
C184  C     C_R   0.641016 0.749986 0.249970 0.914822
C185  C     C_R   0.641012 0.750071 0.750086 0.934445
C186  C     C_R   0.858984 0.250011 0.249992 0.914600
C187  C     C_R   0.858988 0.250056 0.750075 0.934399
C188  C     C_R   0.141019 0.249984 0.249972 0.958833
C189  C     C_R   0.141011 0.249934 0.749954 0.938801
C190  C     C_R   0.858982 0.750075 0.749931 0.934589
C191  C     C_R   0.858990 0.749990 0.250012 0.914623
C192  C     C_R   0.141017 0.749913 0.750040 0.939040
H1    H     H_    0.390913 0.574910 0.381936 0.192059
H2    H     H_    0.337270 0.629328 0.567619 0.215001
H3    H     H_    0.664452 0.627521 0.430708 0.209728
H4    H     H_    0.423378 0.651622 0.542650 0.198107
H5    H     H_    0.834969 0.127068 0.430275 0.209738
H6    H     H_    0.076796 0.151558 0.542648 0.198166
H7    H     H_    0.919203 0.150600 0.456295 0.198666
H8    H     H_    0.162772 0.129087 0.567602 0.214903
H9    H     H_    0.076534 0.651634 0.957379 0.198092
H10   H     H_    0.835320 0.627456 0.069472 0.209749
H11   H     H_    0.162651 0.629262 0.932423 0.214978
H12   H     H_    0.607775 0.573656 0.619102 0.186530
H13   H     H_    0.919914 0.650735 0.043579 0.198536
H14   H     H_    0.337154 0.129188 0.932374 0.214973
H15   H     H_    0.579681 0.150810 0.043420 0.198513
H16   H     H_    0.423113 0.151608 0.957351 0.198097
H17   H     H_    0.664397 0.127521 0.069146 0.209783
H18   H     H_    0.577174 0.707595 0.402449 0.220935
H19   H     H_    0.339949 0.685956 0.621536 0.215309
H20   H     H_    0.661919 0.684136 0.376807 0.205708
H21   H     H_    0.426076 0.708436 0.596734 0.221709
H22   H     H_    0.837448 0.183665 0.376354 0.206014
H23   H     H_    0.109500 0.075224 0.382202 0.192150
H24   H     H_    0.074156 0.208345 0.596764 0.221795
H25   H     H_    0.921693 0.207390 0.402207 0.221009
H26   H     H_    0.160150 0.185688 0.621552 0.215222
H27   H     H_    0.073859 0.708418 0.903292 0.221707
H28   H     H_    0.837860 0.684090 0.123380 0.205721
H29   H     H_    0.159996 0.685861 0.878504 0.215263
H30   H     H_    0.922468 0.707561 0.097654 0.220915
H31   H     H_    0.339785 0.185779 0.878446 0.215301
H32   H     H_    0.577159 0.207607 0.097526 0.220967
H33   H     H_    0.425763 0.208386 0.903256 0.221710
H34   H     H_    0.891972 0.073879 0.619051 0.186557
H35   H     H_    0.661890 0.184128 0.123084 0.205650
H36   H     H_    0.391277 0.881294 0.074666 0.190671
H37   H     H_    0.392443 0.880383 0.926430 0.190311
H38   H     H_    0.108743 0.381242 0.074597 0.190624
H39   H     H_    0.107629 0.380302 0.926356 0.190234
H40   H     H_    0.107647 0.880348 0.573616 0.190265
H41   H     H_    0.108768 0.881230 0.425338 0.190632
H42   H     H_    0.392451 0.380337 0.573617 0.190322
H43   H     H_    0.390763 0.382001 0.424542 0.190957
H44   H     H_    0.672027 0.911817 0.108556 0.209285
H45   H     H_    0.892168 0.573757 0.880913 0.186518
H46   H     H_    0.671515 0.913451 0.889708 0.209762
H47   H     H_    0.627082 0.952134 0.146391 0.203381
H48   H     H_    0.624389 0.953338 0.852420 0.206030
H49   H     H_    0.872848 0.452190 0.146460 0.203359
H50   H     H_    0.875828 0.453517 0.852421 0.206034
H51   H     H_    0.827937 0.411895 0.108658 0.209239
H52   H     H_    0.828690 0.413688 0.889770 0.209808
H53   H     H_    0.875575 0.953418 0.647590 0.206036
H54   H     H_    0.872995 0.952244 0.353593 0.203357
H55   H     H_    0.828544 0.913547 0.610257 0.209783
H56   H     H_    0.109142 0.574926 0.117974 0.192102
H57   H     H_    0.828053 0.911976 0.391426 0.209311
H58   H     H_    0.671375 0.413581 0.610262 0.210059
H59   H     H_    0.664566 0.431155 0.372590 0.207919
H60   H     H_    0.624163 0.453445 0.647597 0.205964
H61   H     H_    0.579930 0.457417 0.349764 0.201991
H62   H     H_    0.669123 0.856489 0.165437 0.203487
H63   H     H_    0.668512 0.858119 0.832794 0.203057
H64   H     H_    0.624971 0.896953 0.203455 0.215908
H65   H     H_    0.622209 0.898174 0.795314 0.217693
H66   H     H_    0.874959 0.397014 0.203525 0.215593
H67   H     H_    0.607993 0.073814 0.880946 0.186550
H68   H     H_    0.877974 0.398318 0.795339 0.217742
H69   H     H_    0.830843 0.356569 0.165542 0.203436
H70   H     H_    0.831649 0.358329 0.832883 0.203026
H71   H     H_    0.877729 0.898252 0.704667 0.217692
H72   H     H_    0.875098 0.897036 0.296523 0.215916
H73   H     H_    0.831516 0.858216 0.667141 0.203071
H74   H     H_    0.830945 0.856621 0.334540 0.203474
H75   H     H_    0.668400 0.358248 0.667146 0.203121
H76   H     H_    0.661862 0.377490 0.315762 0.204179
H77   H     H_    0.622004 0.398277 0.704674 0.217689
H78   H     H_    0.390810 0.074966 0.118087 0.192062
H79   H     H_    0.577192 0.403565 0.292751 0.221989
H80   H     H_    0.579722 0.650790 0.456518 0.198536
I1    I     I_    0.340356 0.635639 0.308280 -0.301842
I2    I     I_    0.343887 0.804172 0.867781 -0.352214
I3    I     I_    0.157500 0.305340 0.133613 -0.332621
I4    I     I_    0.156098 0.303977 0.867729 -0.352412
I5    I     I_    0.156165 0.804089 0.632233 -0.352348
I6    I     I_    0.157488 0.805275 0.366298 -0.332464
I7    I     I_    0.343962 0.304078 0.632235 -0.352431
I8    I     I_    0.340002 0.308575 0.363529 -0.336568
I9    I     I_    0.658075 0.633801 0.693276 -0.319538
I10   I     I_    0.160115 0.136061 0.308633 -0.301853
I11   I     I_    0.841711 0.134067 0.693281 -0.319633
I12   I     I_    0.841909 0.633892 0.806718 -0.319623
I13   I     I_    0.159751 0.635698 0.191577 -0.301313
I14   I     I_    0.658270 0.133964 0.806749 -0.319675
I15   I     I_    0.340273 0.135699 0.191822 -0.301442
I16   I     I_    0.342534 0.805413 0.133706 -0.332475
O1    O     O_R   0.500000 0.730040 0.321660 -0.623311
O2    O     O_R   0.500000 0.678320 0.730060 -0.604036
O3    O     O_R   0.000000 0.178320 0.269940 -0.606676
O4    O     O_R   0.000000 0.178320 0.730060 -0.604103
O5    O     O_R   0.000000 0.678320 0.769940 -0.604036
O6    O     O_R   0.000000 0.678320 0.230060 -0.606557
O7    O     O_R   0.500000 0.178320 0.769940 -0.604103
O8    O     O_R   0.500000 0.178320 0.230060 -0.606656
O9    O     O_R   0.392670 0.775850 0.275850 -0.613488
O10   O     O_R   0.392670 0.775850 0.724150 -0.610972
O11   O     O_R   0.607330 0.775850 0.275850 -0.625947
O12   O     O_R   0.500000 0.730040 0.678340 -0.625597
O13   O     O_R   0.607330 0.775850 0.724150 -0.629395
O14   O     O_R   0.892670 0.275850 0.275850 -0.625798
O15   O     O_R   0.892670 0.275850 0.724150 -0.629338
O16   O     O_R   0.107330 0.275850 0.275850 -0.612866
O17   O     O_R   0.107330 0.275850 0.724150 -0.610987
O18   O     O_R   0.892670 0.775850 0.775850 -0.629454
O19   O     O_R   0.892670 0.775850 0.224150 -0.625960
O20   O     O_R   0.107330 0.775850 0.775850 -0.610993
O21   O     O_R   0.107330 0.775850 0.224150 -0.613444
O22   O     O_R   0.392670 0.275850 0.775850 -0.611041
O23   O     O_R   0.000000 0.230040 0.321660 -0.623145
O24   O     O_R   0.392670 0.275850 0.224150 -0.613162
O25   O     O_R   0.607330 0.275850 0.775850 -0.629409
O26   O     O_R   0.607330 0.275850 0.224150 -0.625985
O27   O     O_R   0.392690 0.724130 0.224130 -0.587833
O28   O     O_R   0.392690 0.724130 0.775870 -0.610753
O29   O     O_R   0.607310 0.724130 0.224130 -0.621758
O30   O     O_R   0.607310 0.724130 0.775870 -0.596378
O31   O     O_R   0.892690 0.224130 0.224130 -0.621828
O32   O     O_R   0.892690 0.224130 0.775870 -0.596402
O33   O     O_R   0.107310 0.224130 0.224130 -0.588087
O34   O     O_R   1.000000 0.230040 0.678340 -0.625539
O35   O     O_R   0.107310 0.224130 0.775870 -0.610729
O36   O     O_R   0.892690 0.724130 0.724130 -0.596406
O37   O     O_R   0.892690 0.724130 0.275870 -0.621663
O38   O     O_R   0.107310 0.724130 0.724130 -0.610807
O39   O     O_R   0.107310 0.724130 0.275870 -0.587769
O40   O     O_R   0.392690 0.224130 0.724130 -0.610784
O41   O     O_R   0.392690 0.224130 0.275870 -0.588420
O42   O     O_R   0.607310 0.224130 0.724130 -0.596429
O43   O     O_R   0.607310 0.224130 0.275870 -0.621039
O44   O     O_R   0.500000 0.821650 0.230050 -0.621462
O45   O     O_R   0.000000 0.730040 0.821660 -0.625626
O46   O     O_R   0.500000 0.821650 0.769950 -0.621980
O47   O     O_R   0.000000 0.321650 0.230050 -0.621579
O48   O     O_R   0.000000 0.321650 0.769950 -0.621993
O49   O     O_R   0.000000 0.821650 0.730050 -0.621985
O50   O     O_R   0.000000 0.821650 0.269950 -0.621473
O51   O     O_R   0.500000 0.321650 0.730050 -0.622033
O52   O     O_R   0.500000 0.321650 0.269950 -0.624365
O53   O     O_R   0.500000 0.769930 0.178330 -0.605508
O54   O     O_R   0.500000 0.769930 0.821670 -0.604217
O55   O     O_R   0.000000 0.269930 0.178330 -0.605517
O56   O     O_R   0.000000 0.730040 0.178340 -0.623335
O57   O     O_R   0.000000 0.269930 0.821670 -0.604209
O58   O     O_R   0.000000 0.769930 0.678330 -0.604236
O59   O     O_R   1.000000 0.769930 0.321670 -0.605485
O60   O     O_R   0.500000 0.269930 0.678330 -0.604198
O61   O     O_R   0.500000 0.269930 0.321670 -0.605619
O62   O     O_R   0.439370 0.954170 0.954170 -0.623364
O63   O     O_R   0.439370 0.954170 0.045830 -0.623732
O64   O     O_R   0.560630 0.954170 0.954170 -0.624533
O65   O     O_R   0.560630 0.954170 0.045830 -0.624301
O66   O     O_R   0.939370 0.454170 0.954170 -0.624546
O67   O     O_R   0.500000 0.230040 0.821660 -0.625575
O68   O     O_R   0.939370 0.454170 0.045830 -0.624301
O69   O     O_R   0.060630 0.454170 0.954170 -0.623376
O70   O     O_R   0.060630 0.454170 0.045830 -0.623741
O71   O     O_R   0.939370 0.954170 0.454170 -0.624322
O72   O     O_R   0.939370 0.954170 0.545830 -0.624510
O73   O     O_R   0.060630 0.954170 0.454170 -0.623730
O74   O     O_R   0.060630 0.954170 0.545830 -0.623347
O75   O     O_R   0.439370 0.454170 0.454170 -0.622726
O76   O     O_R   0.439370 0.454170 0.545830 -0.623073
O77   O     O_R   0.560630 0.454170 0.454170 -0.621745
O78   O     O_R   0.500000 0.230040 0.178340 -0.623320
O79   O     O_R   0.560630 0.454170 0.545830 -0.624026
O80   O     O_R   0.439410 0.545780 0.454170 -0.621633
O81   O     O_R   0.439410 0.545780 0.545830 -0.616519
O82   O     O_R   0.560590 0.545780 0.454170 -0.622045
O83   O     O_R   0.560590 0.545780 0.545830 -0.626843
O84   O     O_R   0.939410 0.045780 0.454170 -0.622022
O85   O     O_R   0.939410 0.045780 0.545830 -0.626853
O86   O     O_R   0.060590 0.045780 0.454170 -0.621969
O87   O     O_R   0.060590 0.045780 0.545830 -0.616598
O88   O     O_R   0.939410 0.545780 0.954170 -0.626836
O89   O     O_R   0.500000 0.678320 0.269940 -0.606722
O90   O     O_R   0.939410 0.545780 0.045830 -0.622016
O91   O     O_R   0.060590 0.545780 0.954170 -0.616547
O92   O     O_R   0.060590 0.545780 0.045830 -0.621915
O93   O     O_R   0.439410 0.045780 0.954170 -0.616548
O94   O     O_R   0.439410 0.045780 0.045830 -0.621887
O95   O     O_R   0.560590 0.045780 0.954170 -0.626844
O96   O     O_R   0.560590 0.045780 0.045830 -0.622011
Zn1   Zn    Zn3+2 0.500000 0.784520 0.284530 0.987414
Zn2   Zn    Zn3+2 0.500000 0.715450 0.784540 1.026365
Zn3   Zn    Zn3+2 0.000000 0.215450 0.215460 1.022901
Zn4   Zn    Zn3+2 0.000000 0.215450 0.784540 1.026282
Zn5   Zn    Zn3+2 0.000000 0.715450 0.715460 1.026396
Zn6   Zn    Zn3+2 0.000000 0.715450 0.284540 1.023074
Zn7   Zn    Zn3+2 0.500000 0.215450 0.715460 1.026322
Zn8   Zn    Zn3+2 0.500000 0.215450 0.284540 1.022838
Zn9   Zn    Zn3+2 0.419100 0.999980 0.000000 0.978398
Zn10  Zn    Zn3+2 0.580900 0.999980 0.000000 0.956281
Zn11  Zn    Zn3+2 0.919100 0.499980 0.000000 0.956242
Zn12  Zn    Zn3+2 0.500000 0.784520 0.715470 0.985817
Zn13  Zn    Zn3+2 0.080900 0.499980 0.000000 0.978307
Zn14  Zn    Zn3+2 0.919100 0.999980 0.500000 0.956236
Zn15  Zn    Zn3+2 0.080900 0.999980 0.500000 0.978269
Zn16  Zn    Zn3+2 0.419100 0.499980 0.500000 0.978436
Zn17  Zn    Zn3+2 0.580900 0.499980 0.500000 0.958182
Zn18  Zn    Zn3+2 0.000000 0.284520 0.284530 0.988045
Zn19  Zn    Zn3+2 0.000000 0.284520 0.715470 0.985953
Zn20  Zn    Zn3+2 0.000000 0.784520 0.784530 0.985846
Zn21  Zn    Zn3+2 0.000000 0.784520 0.215470 0.987361
Zn22  Zn    Zn3+2 0.500000 0.284520 0.784530 0.985844
Zn23  Zn    Zn3+2 0.500000 0.284520 0.215470 0.985254
Zn24  Zn    Zn3+2 0.500000 0.715450 0.215460 1.022840

loop_
_geom_bond_atom_site_label_1
_geom_bond_atom_site_label_2
_ccdc_geom_bond_type
C32   O93   A    
C3    O39   A    
O94   Zn9   S    
O37   Zn6   S    
C101  C113  S    
C7    C60   S    
O35   Zn4   S    
C160  O67   A    
C190  O36   A    
C74   C83   A    
C9    H63   S    
O27   Zn24  S    
O57   Zn4   S    
C30   O88   A    
C124  C133  A    
C185  O13   A    
C57   C67   A    
C187  O15   A    
C184  O11   A    
C180  H59   S    
C22   C159  S    
C26   O80   A    
O17   Zn19  S    
C42   C136  S    
C86   I15   S    
C127  O34   A    
C2    C90   S    
C131  C140  A    
C134  C143  A    
C124  C168  A    
O48   Zn19  S    
C57   C109  S    
O16   Zn18  S    
C9    C121  S    
C139  I2    S    
O95   Zn10  S    
C125  C169  A    
C88   C97   A    
C80   I9    S    
O12   Zn12  S    
C4    C56   S    
C142  I5    S    
C33   O94   A    
O33   Zn3   S    
C109  C118  S    
C40   O59   A    
C5    O41   A    
C11   C123  S    
C29   C99   S    
C114  H24   S    
C137  C146  A    
C30   O91   A    
O78   Zn23  S    
O93   Zn9   S    
C69   C119  S    
O13   Zn12  S    
C82   C91   A    
C191  O37   A    
C25   O76   A    
C142  C151  A    
C109  H16   S    
C171  O78   A    
C36   C130  S    
C5    O24   A    
C13   C63   A    
C77   C171  S    
O25   Zn22  S    
C149  O56   A    
C1    O1    A    
C164  C173  S    
C68   C110  S    
C163  C172  A    
O45   Zn20  S    
C14   H72   S    
C31   O92   A    
O5    Zn5   S    
C110  H17   S    
O3    Zn3   S    
O65   Zn10  S    
C16   H79   S    
O26   Zn23  S    
O1    Zn1   S    
C27   C97   S    
C94   C103  A    
C10   C122  S    
O46   Zn12  S    
O73   Zn15  S    
C180  H61   S    
C79   C182  S    
C107  H9    S    
C47   C52   T    
C189  O35   A    
C1    C70   S    
O89   Zn24  S    
C181  O9    A    
O80   Zn16  S    
C20   O70   A    
C80   C88   A    
O9    Zn1   S    
C179  H60   S    
C147  H37   S    
C6    O25   A    
C19   O66   A    
C153  H42   S    
C6    O42   A    
C84   C93   A    
C23   O77   A    
C67   C118  S    
O53   Zn24  S    
C35   C107  S    
C86   C95   A    
C63   C113  S    
C129  C137  A    
O19   Zn21  S    
C76   C85   A    
C33   O96   A    
C45   C184  S    
C151  C159  A    
C78   C87   A    
C15   C179  S    
C123  C132  A    
C33   C104  S    
C69   C77   A    
C20   O68   A    
C121  C130  A    
C50   C188  S    
C171  O8    A    
C178  H57   S    
C11   C176  S    
C54   C192  S    
C5    C58   S    
O68   Zn11  S    
O90   Zn11  S    
O79   Zn17  S    
C101  H5    S    
C75   C84   A    
C30   C100  S    
C4    O40   A    
C79   H3    S    
C111  H20   S    
C83   I12   S    
O69   Zn13  S    
C94   H67   S    
C31   O90   A    
C46   C108  S    
O38   Zn5   S    
C64   C73   A    
C110  H15   S    
C183  O10   A    
C152  C161  A    
C173  H44   S    
C161  C169  A    
C45   C53   T    
C36   O46   A    
C87   C96   A    
C19   O69   A    
C117  H30   S    
C186  O14   A    
C113  H22   S    
C114  H26   S    
C141  C150  A    
C26   C96   S    
C64   C114  S    
C85   I14   S    
C120  C129  A    
C112  H19   S    
C87   H1    S    
O28   Zn2   S    
C179  H58   S    
C17   O62   A    
C165  C174  S    
C40   C134  S    
C43   C181  S    
C21   O73   A    
C65   C74   A    
C37   C131  S    
C38   C132  S    
C107  H11   S    
C126  C170  A    
O44   Zn1   S    
C38   O57   A    
C107  C115  S    
O91   Zn13  S    
C49   C187  S    
O88   Zn11  S    
C183  O28   A    
C88   H12   S    
O24   Zn23  S    
C37   O47   A    
C44   C183  S    
C14   C178  S    
O84   Zn14  S    
C145  C154  A    
C43   C55   T    
C105  O12   A    
C91   H34   S    
C24   C106  S    
C35   C100  A    
C41   O51   A    
O71   Zn14  S    
C122  C131  A    
O76   Zn16  S    
C22   O72   A    
C95   H78   S    
C176  H50   S    
C132  C141  A    
C28   O84   A    
C19   C158  S    
C108  C117  S    
C110  C119  S    
C173  H47   S    
C127  O4    A    
C121  C165  A    
C39   O58   A    
C49   C59   T    
O81   Zn16  S    
C176  H52   S    
C89   C98   A    
C65   C115  S    
C111  H18   S    
O14   Zn18  S    
C146  H36   S    
C75   C149  S    
C62   C71   A    
C144  I7    S    
C148  C157  A    
O6    Zn6   S    
O29   Zn24  S    
C120  C164  A    
C116  O23   A    
C44   C54   T    
C90   H4    S    
C39   O49   A    
C2    C62   A    
C7    O43   A    
C91   C99   A    
C22   O74   A    
C29   O85   A    
C16   C180  S    
C61   C70   A    
C84   I13   S    
C26   O82   A    
C9    H65   S    
O87   Zn15  S    
O56   Zn21  S    
O30   Zn2   S    
C41   C135  S    
O61   Zn8   S    
O22   Zn22  S    
C17   O64   A    
C74   C138  S    
C8    C120  S    
C166  C175  S    
C140  I3    S    
C106  H8    S    
C46   C66   A    
C15   H75   S    
C128  C136  A    
O64   Zn10  S    
C35   C65   A    
C168  C177  S    
C10   C175  S    
C11   H70   S    
O55   Zn3   S    
C4    O22   A    
C37   O55   A    
C177  H53   S    
C146  C155  A    
C34   C129  S    
C68   C69   A    
C66   C117  S    
C154  H43   S    
C158  C167  A    
O70   Zn13  S    
C47   C185  S    
C72   C81   A    
C51   C189  S    
C106  H6    S    
O51   Zn22  S    
C81   C89   A    
C172  C180  S    
C181  O27   A    
C24   C64   A    
C28   O86   A    
C38   O48   A    
C138  O5    A    
C130  C139  A    
C6    C59   S    
O47   Zn18  S    
C57   C103  A    
O15   Zn19  S    
C50   C58   T    
C31   C102  S    
C41   O60   A    
C160  O7    A    
O43   Zn8   S    
O40   Zn7   S    
C152  H41   S    
C137  I16   S    
C73   C127  S    
C143  I6    S    
C150  H39   S    
C21   O71   A    
C189  O17   A    
C174  H48   S    
C42   O61   A    
O8    Zn8   S    
C90   H2    S    
C101  H7    S    
C133  C142  A    
C32   C103  S    
C52   C190  S    
C147  C156  A    
C53   C191  S    
C32   O95   A    
C143  C152  A    
C138  O45   A    
C126  C135  A    
C20   C157  S    
C71   C105  S    
C192  O20   A    
O92   Zn13  S    
O60   Zn7   S    
C73   C82   A    
C39   C133  S    
C28   C98   S    
C150  C158  A    
C118  H31   S    
C115  H29   S    
O77   Zn17  S    
C81   I10   S    
C68   C104  A    
O82   Zn17  S    
C96   C182  A    
C108  H13   S    
C93   C102  A    
C72   C116  S    
C79   H80   S    
C10   H69   S    
C153  C162  A    
C11   H68   S    
C174  H46   S    
O85   Zn14  S    
C125  C134  A    
C18   O63   A    
C177  H55   S    
O59   Zn6   S    
C156  C165  A    
C66   C75   A    
C119  H32   S    
C8    H64   S    
O50   Zn21  S    
C149  O6    A    
C62   C112  S    
C63   C72   A    
O62   Zn9   S    
C17   C156  S    
C18   C155  S    
C27   O83   A    
C34   O53   A    
C122  C166  A    
C70   C78   A    
C24   C99   A    
C90   C112  S    
C23   O75   A    
C178  H54   S    
C140  C148  A    
O39   Zn6   S    
C119  H35   S    
O74   Zn15  S    
O7    Zn7   S    
C175  H51   S    
C83   C92   A    
C46   C102  A    
C139  C147  A    
C14   C125  S    
C106  C114  S    
C27   O81   A    
O36   Zn5   S    
O66   Zn11  S    
O4    Zn4   S    
C188  O16   A    
C13   C98   A    
C191  O19   A    
C159  C168  A    
C117  H28   S    
C51   C56   T    
C144  C153  A    
O96   Zn10  S    
C105  O2    A    
C108  H10   S    
C184  O29   A    
O32   Zn4   S    
C15   C126  S    
C162  C170  A    
C10   H66   S    
O31   Zn3   S    
C136  C145  A    
C89   H23   S    
C123  C167  A    
C12   C177  S    
C148  H38   S    
C185  O30   A    
O20   Zn20  S    
O21   Zn21  S    
C3    O21   A    
C115  H27   S    
C187  O32   A    
C3    C55   S    
C2    C97   A    
C82   I11   S    
C113  H25   S    
C71   C80   A    
C48   C60   T    
C23   C163  S    
C118  H33   S    
O67   Zn22  S    
C1    O89   A    
C92   H45   S    
O63   Zn9   S    
C21   C161  S    
C25   O79   A    
O10   Zn12  S    
C154  C163  A    
O11   Zn1   S    
O86   Zn15  S    
O58   Zn5   S    
C8    C173  S    
O54   Zn2   S    
O23   Zn18  S    
C34   O44   A    
C12   H71   S    
C48   C186  S    
C93   H56   S    
C192  O38   A    
C29   O87   A    
C85   C94   A    
C151  H40   S    
C12   C124  S    
O41   Zn8   S    
C25   C162  S    
O49   Zn20  S    
O42   Zn7   S    
C9    C174  S    
C112  H21   S    
C16   C128  S    
O2    Zn2   S    
O34   Zn19  S    
C16   H76   S    
C135  C144  A    
C7    O26   A    
C77   C86   A    
C128  C172  A    
O72   Zn14  S    
C145  I8    S    
C13   C101  S    
C61   C111  S    
C169  C178  S    
C95   C104  A    
C92   C100  A    
O18   Zn20  S    
C175  H49   S    
C76   C160  S    
C170  C179  S    
C61   C182  A    
C157  C166  A    
C190  O18   A    
C18   O65   A    
C155  C164  A    
O83   Zn17  S    
C116  O3    A    
C78   I1    S    
C79   C111  S    
C36   O54   A    
C8    H62   S    
C188  O33   A    
C109  H14   S    
O52   Zn23  S    
C40   O50   A    
C42   O52   A    
C186  O31   A    
C67   C76   A    
C141  I4    S    
O75   Zn16  S    
C15   H77   S    
C14   H74   S    
C167  C176  S    
C12   H73   S    
