data_mof_unit_56853.cif
_audit_creation_date              2012-12-11T17:15:54-0500
_audit_creation_method            fapswitch 2.2
_symmetry_space_group_name_H-M    P1
_symmetry_Int_Tables_number       1
_space_group_crystal_system       triclinic
_cell_length_a                    14.628541
_cell_length_b                    7.270011
_cell_length_c                    13.595134
_cell_angle_alpha                 89.573211
_cell_angle_beta                  99.635288
_cell_angle_gamma                 90.309552
_cell_volume                      1425.38935257

loop_
_atom_site_label
_atom_site_type_symbol
_atom_type_description
_atom_site_fract_x
_atom_site_fract_y
_atom_site_fract_z
_atom_type_partial_charge
O1    O     O_R   0.398210 0.494340 0.401550 -0.515199
O2    O     O_R   0.601790 0.994340 0.598450 -0.519790
O3    O     O_R   0.586310 0.821730 0.403360 -0.521770
O4    O     O_R   0.413690 0.321730 0.596640 -0.518834
C1    C     C_R   0.616211 0.656790 0.383674 0.760083
C2    C     C_R   0.383911 0.155569 0.616707 0.760413
O5    O     O_R   0.397970 0.823900 0.389580 -0.537995
O6    O     O_R   0.602030 0.323900 0.610420 -0.542909
O7    O     O_R   0.412100 0.996500 0.584560 -0.545087
O8    O     O_R   0.587900 0.496500 0.415440 -0.545512
C3    C     C_R   0.365397 0.655252 0.362684 0.778423
C4    C     C_R   0.634747 0.155141 0.637059 0.764065
O9    O     O_3   0.504860 0.661550 0.563990 -0.379718
O10   O     O_3   0.495140 0.161550 0.436010 -0.375964
V1    V     V_3+5 0.499100 0.935510 0.488130 1.623843
V2    V     V_3+5 0.500900 0.435510 0.511870 1.615643
C5    C     C_1   0.716095 0.144463 0.716750 -0.084086
C6    C     C_1   0.284166 0.644648 0.282863 -0.076742
C7    C     C_1   0.784127 0.134067 0.782922 -0.048775
C8    C     C_1   0.216236 0.633980 0.216595 -0.040877
C9    C     C_3   0.188229 0.326468 0.761791 -0.441010
C10   C     C_3   0.809008 0.822434 0.233460 -0.428724
H1    H     H_    0.118587 0.365563 0.722796 0.297813
H2    H     H_    0.879136 0.867908 0.267180 0.296972
H3    H     H_    0.205984 0.428406 0.822352 0.208312
H4    H     H_    0.786628 0.920770 0.171195 0.188670
C11   C     C_3   0.262727 0.340039 0.692104 0.355477
C12   C     C_3   0.739789 0.837450 0.308587 0.341253
H5    H     H_    0.316998 0.436718 0.728963 0.088767
H6    H     H_    0.687501 0.942009 0.276640 0.135974
H7    H     H_    0.206703 0.016275 0.571919 0.230366
H8    H     H_    0.786444 0.495421 0.424317 0.225781
C13   C     C_3   0.160629 0.993170 0.720263 0.638487
C14   C     C_3   0.835745 0.486664 0.277509 0.641106
C15   C     C_3   0.289981 0.106076 0.867241 0.303877
C16   C     C_3   0.705799 0.594945 0.132168 0.334642
C17   C     C_3   0.186603 0.131869 0.810617 -0.269373
C18   C     C_3   0.810200 0.625975 0.187111 -0.262777
H9    H     H_    0.308457 0.235275 0.909695 0.114807
H10   H     H_    0.690889 0.708982 0.076765 0.091473
C19   C     C_3   0.311289 0.148948 0.685429 -0.196346
C20   C     C_3   0.687394 0.651173 0.313879 -0.215777
C21   C     C_3   0.236594 0.000007 0.651701 -0.318642
C22   C     C_3   0.757902 0.492173 0.343773 -0.298302
C23   C     C_3   0.358972 0.093455 0.792153 -0.487953
C24   C     C_3   0.636198 0.614202 0.206942 -0.448029
H11   H     H_    0.419430 0.185405 0.817003 0.175070
H12   H     H_    0.587340 0.728661 0.181754 0.168113
H13   H     H_    0.386993 0.951700 0.791099 0.201101
H14   H     H_    0.591466 0.490532 0.208421 0.233685
H15   H     H_    0.272723 0.866056 0.654871 0.207178
H16   H     H_    0.717458 0.361839 0.334875 0.215553
O11   O     O_R   0.912140 0.786650 0.084610 -0.554816
O12   O     O_R   0.087860 0.286650 0.915390 -0.544911
O13   O     O_R   0.102040 0.454810 0.110430 -0.552473
O14   O     O_R   0.897960 0.954810 0.889570 -0.553902
C25   C     C_R   0.135072 0.623463 0.136691 0.804916
C26   C     C_R   0.865386 0.123551 0.862776 0.752765
O15   O     O_R   0.913690 0.457060 0.096650 -0.497076
O16   O     O_R   0.086310 0.957060 0.903350 -0.485043
O17   O     O_R   0.898200 0.284560 0.901540 -0.514108
O18   O     O_R   0.101800 0.784560 0.098460 -0.502371
C27   C     C_R   0.881926 0.623500 0.115060 0.792320
C28   C     C_R   0.115968 0.125483 0.882989 0.854261
O19   O     O_3   0.995160 0.617270 0.936040 -0.372972
O20   O     O_3   0.004840 0.117270 0.063960 -0.378842
V3    V     V_3+5 0.000900 0.343280 0.011870 1.639331
V4    V     V_3+5 0.999100 0.843280 0.988130 1.660527
Cl1   Cl    Cl    0.155116 0.761720 0.762265 -0.611633
Cl2   Cl    Cl    0.840523 0.255409 0.235838 -0.629560
S1    S     S_3+6 0.218901 0.446246 0.571807 0.069110
O21   O     O_2   0.285541 0.595382 0.553429 -0.383753
O22   O     O_2   0.211947 0.310953 0.487879 -0.305048
O23   O     O_3   0.114475 0.541506 0.569968 -0.387967
H17   H     H_    0.115451 0.654463 0.528967 0.431682
S2    S     S_3+6 0.790338 0.930718 0.429068 0.083971
O24   O     O_2   0.730334 0.086533 0.451975 -0.378174
O25   O     O_2   0.794080 0.790281 0.511212 -0.304710
O26   O     O_3   0.897653 0.012255 0.427841 -0.381689
H18   H     H_    0.895826 0.140964 0.450571 0.438058
S3    S     S_3+6 0.046314 0.038971 0.647432 0.084532
O27   O     O_2   0.985297 0.141635 0.706475 -0.384112
O28   O     O_2   0.055106 0.152615 0.557033 -0.225566
O29   O     O_3   0.992792 0.840623 0.609561 -0.384596
H19   H     H_    0.959811 0.802080 0.664339 0.390492
S4    S     S_3+6 0.950819 0.529652 0.350643 0.089382
O30   O     O_2   0.006705 0.664052 0.300369 -0.378409
O31   O     O_2   0.942288 0.604683 0.450999 -0.219148
O32   O     O_3   0.012074 0.333515 0.368736 -0.400368
H20   H     H_    0.041866 0.320363 0.308878 0.372627
S5    S     S_3+6 0.315183 0.935786 0.965527 0.030065
O33   O     O_2   0.414333 0.961677 0.014812 -0.307518
O34   O     O_2   0.254881 0.966792 0.042912 -0.333098
O35   O     O_3   0.302046 0.717867 0.925105 -0.476463
H21   H     H_    0.358640 0.690401 0.896945 0.347090
S6    S     S_3+6 0.674422 0.390539 0.058640 0.021445
O36   O     O_2   0.650832 0.233972 0.123164 -0.327568
O37   O     O_2   0.589615 0.433550 0.983357 -0.309974
O38   O     O_3   0.757800 0.324304 0.996778 -0.499147
H22   H     H_    0.768951 0.193337 0.015395 0.345686

loop_
_geom_bond_atom_site_label_1
_geom_bond_atom_site_label_2
_ccdc_geom_bond_type
C1    C20   S    
C3    C6    S    
C11   H5    S    
O1    C3    A    
S2    O26   S    
O2    C4    A    
C17   C28   S    
C2    O7    A    
S3    O27   D    
O3    V1    S    
C25   O18   A    
O5    C3    A    
H7    C21   S    
C15   C17   S    
S2    O25   D    
C14   S4    S    
S4    O31   D    
C10   C18   S    
S6    O38   S    
C20   C24   S    
C12   C20   S    
O11   V4    S    
C11   C19   S    
O15   V3    S    
C2    C19   S    
S6    O37   D    
C4    C5    S    
C16   C24   S    
C14   Cl2   S    
C13   Cl1   S    
C22   H16   S    
C26   O17   A    
O5    V1    S    
O20   V3    S    
C9    C11   S    
O6    V2    S    
C10   C12   S    
C19   C21   S    
C20   C22   S    
S3    O28   D    
C23   H11   S    
C9    H1    S    
C24   H12   S    
O23   H17   S    
C13   C21   S    
C16   H10   S    
C14   C22   S    
O29   H19   S    
O4    C2    A    
O32   H20   S    
S5    O33   D    
S1    O22   D    
S4    O30   D    
O12   V3    S    
O14   V4    S    
C13   C17   S    
C7    C26   S    
O4    V2    S    
C15   H9    S    
C15   C23   S    
S5    O34   D    
O17   V3    S    
O38   H22   S    
C23   H13   S    
O6    C4    A    
O19   V4    S    
S6    O36   D    
H8    C22   S    
O1    V2    S    
S2    O24   D    
O2    V1    S    
O13   C25   A    
C10   H2    S    
C12   S2    S    
S3    O29   S    
C11   S1    S    
C18   C27   S    
C9    H3    S    
C14   C18   S    
O3    C1    A    
S4    O32   S    
S1    O23   S    
O13   V3    S    
C24   H14   S    
O15   C27   A    
O18   V4    S    
O16   C28   A    
C12   H6    S    
O7    V1    S    
C1    O8    A    
O8    V2    S    
S5    O35   S    
O11   C27   A    
C21   H15   S    
O12   C28   A    
C16   C18   S    
C5    C7    T    
O14   C26   A    
C6    C8    T    
O35   H21   S    
O26   H18   S    
S1    O21   D    
C9    C17   S    
O16   V4    S    
C10   H4    S    
O9    V2    S    
C19   C23   S    
O10   V1    S    
C8    C25   S    
C13   S3    S    
C16   S6    S    
C15   S5    S    
