data_mof_unit_22143.cif
_audit_creation_date              2012-12-11T15:48:43-0500
_audit_creation_method            fapswitch 2.2
_symmetry_space_group_name_H-M    P1
_symmetry_Int_Tables_number       1
_space_group_crystal_system       triclinic
_cell_length_a                    10.925374
_cell_length_b                    10.98474
_cell_length_c                    18.801564
_cell_angle_alpha                 90.457661
_cell_angle_beta                  89.843861
_cell_angle_gamma                 60.092302
_cell_volume                      1955.81165298

loop_
_atom_site_label
_atom_site_type_symbol
_atom_type_description
_atom_site_fract_x
_atom_site_fract_y
_atom_site_fract_z
_atom_type_partial_charge
C1    C     C_R   0.241124 0.645027 0.610832 0.552213
C2    C     C_3   0.677522 0.548919 0.798784 -0.308153
C3    C     C_3   0.699372 0.675502 0.811973 0.035126
C4    C     C_3   0.670090 0.649212 0.675641 0.029710
C5    C     C_3   0.823596 0.617241 0.691601 0.230255
C6    C     C_3   0.644757 0.543414 0.719707 -0.284487
C7    C     C_R   0.683828 0.150314 0.821982 0.030348
C8    C     C_R   0.781945 0.171131 0.784200 -0.002234
C9    C     C_R   0.775613 0.180844 0.710094 0.015536
C10   C     C_R   0.578481 0.140958 0.709814 -0.174997
C11   C     C_R   0.576152 0.145513 0.782889 -0.143693
C12   C     C_R   0.653617 0.622192 0.600778 0.565580
C13   C     C_3   0.938082 0.085711 0.784356 -0.263058
C14   C     C_3   0.932570 0.094295 0.703911 -0.275436
C15   C     C_R   0.674526 0.164167 0.671940 0.001016
C16   C     C_R   0.186480 0.664805 0.836205 0.008563
C17   C     C_R   0.160850 0.573422 0.795234 0.040162
C18   C     C_R   0.168173 0.571931 0.721568 0.100454
C19   C     C_R   0.219170 0.760655 0.726825 -0.178779
C20   C     C_R   0.219033 0.757020 0.800804 -0.180246
C21   C     C_3   0.233883 0.417500 0.798230 -0.308820
C22   C     C_3   0.239707 0.416388 0.717640 -0.274140
C23   C     C_R   0.630281 0.225680 0.601836 0.525184
C24   C     C_R   0.199431 0.663842 0.685799 0.040477
C25   C     C_R   0.650012 0.655804 0.164571 0.000084
C26   C     C_R   0.750999 0.536497 0.200542 0.068281
C27   C     C_R   0.736409 0.515388 0.271039 0.035678
C28   C     C_R   0.507787 0.724159 0.273169 -0.157651
C29   C     C_R   0.522492 0.745527 0.200315 -0.175509
C30   C     C_3   0.906193 0.481824 0.208524 -0.233715
C31   C     C_3   0.889830 0.458423 0.285886 -0.253712
C32   C     C_R   0.619913 0.612508 0.309987 0.002265
C33   C     C_R   0.632688 0.190462 0.169116 -0.026043
C34   C     C_R   0.224271 0.647403 0.400730 0.544117
C35   C     C_R   0.518028 0.201191 0.208639 0.023094
C36   C     C_R   0.522914 0.202269 0.281519 -0.011777
C37   C     C_R   0.733127 0.219287 0.278424 -0.111550
C38   C     C_R   0.729934 0.219971 0.204083 0.193470
C39   C     C_3   0.448232 0.111839 0.210520 0.154078
C40   C     C_3   0.459932 0.110778 0.290833 -0.206124
C41   C     C_R   0.634168 0.201153 0.317828 -0.050117
C42   C     C_R   0.157863 0.672260 0.180906 0.008448
C43   C     C_R   0.168331 0.775874 0.219734 0.013879
C44   C     C_R   0.177338 0.769462 0.291452 0.019270
C45   C     C_R   0.615536 0.589297 0.386156 0.562448
C46   C     C_R   0.194466 0.542444 0.289266 -0.149682
C47   C     C_R   0.183120 0.549101 0.215134 -0.167786
C48   C     C_3   0.073786 0.932835 0.223344 -0.226186
C49   C     C_3   0.086551 0.923308 0.303224 -0.281782
C50   C     C_R   0.181183 0.659077 0.328116 0.013308
C51   C     C_R   0.702493 0.099449 0.895139 0.541750
C52   C     C_R   0.722670 0.687827 0.888415 0.538277
C53   C     C_R   0.120837 0.704735 0.906548 0.528698
C54   C     C_R   0.672000 0.111887 0.102510 0.527143
C55   C     C_R   0.694729 0.689013 0.097221 0.539333
C56   C     C_R   0.615123 0.233316 0.393238 0.539360
C57   C     C_R   0.094246 0.709659 0.112017 0.540307
C58   C     C_3   0.567581 0.809172 0.783352 -0.214517
C59   C     C_3   0.557322 0.798326 0.702244 -0.243211
C60   C     C_3   0.832378 0.655630 0.769873 0.146190
Cr1   Cr    Cr6+3 0.392960 0.397920 0.502240 1.012222
Cr2   Cr    Cr6+3 0.398340 0.708480 0.501250 0.997489
Cr3   Cr    Cr6+3 0.708670 0.393570 0.496460 1.006906
Cr4   Cr    Cr6+3 0.937650 0.938540 0.007610 1.010211
Cr5   Cr    Cr6+3 0.625330 0.937370 0.994520 0.977854
Cr6   Cr    Cr6+3 0.937940 0.625230 0.001190 0.991017
H1    H     H_    0.574618 0.903718 0.796007 0.175708
H2    H     H_    0.713586 0.435190 0.699632 0.145448
H3    H     H_    0.928185 0.565748 0.792663 0.113412
H4    H     H_    0.889144 0.500413 0.689474 0.102274
H5    H     H_    0.496715 0.129949 0.683101 0.122822
H6    H     H_    0.493216 0.134503 0.808200 0.130649
H7    H     H_    0.972868 0.979289 0.804730 0.188187
H8    H     H_    0.987787 0.142281 0.809354 0.119979
H9    H     H_    0.979902 0.155475 0.682183 0.128875
H10   H     H_    0.967075 0.991788 0.676817 0.154134
H11   H     H_    0.239105 0.837421 0.701998 0.131411
H12   H     H_    0.470067 0.822365 0.809416 0.105495
H13   H     H_    0.233337 0.834325 0.830063 0.129102
H14   H     H_    0.164858 0.378744 0.819740 0.129264
H15   H     H_    0.337946 0.374686 0.824367 0.139689
H16   H     H_    0.347201 0.372852 0.695535 0.168655
H17   H     H_    0.172874 0.378650 0.692155 0.140918
H18   H     H_    0.413281 0.799180 0.301391 0.147246
H19   H     H_    0.439325 0.836110 0.173932 0.127739
H20   H     H_    0.932985 0.565706 0.200318 0.146207
H21   H     H_    0.971519 0.382940 0.178039 0.190385
H22   H     H_    0.945632 0.345587 0.300188 0.154512
H23   H     H_    0.449865 0.818930 0.689547 0.130918
H24   H     H_    0.910006 0.527241 0.321920 0.147532
H25   H     H_    0.813111 0.232661 0.305172 0.153049
H26   H     H_    0.511693 0.004908 0.186863 0.134295
H27   H     H_    0.356730 0.165824 0.319405 0.168260
H28   H     H_    0.536563 0.005854 0.312203 0.095540
H29   H     H_    0.211736 0.448085 0.315798 0.154736
H30   H     H_    0.183359 0.464057 0.185689 0.170284
H31   H     H_    0.965128 0.965898 0.205359 0.195748
H32   H     H_    0.567226 0.882172 0.675611 0.106586
H33   H     H_    0.123526 0.989866 0.199160 0.174041
H34   H     H_    0.146217 0.972325 0.325335 0.147147
H35   H     H_    0.985811 0.951354 0.331095 0.132514
H36   H     H_    0.774458 0.449823 0.813463 0.124055
H37   H     H_    0.588821 0.558119 0.832087 0.133873
H38   H     H_    0.533735 0.566630 0.713970 0.141705
O1    O     O_R   0.507380 0.255700 0.581440 -0.535687
O2    O     O_R   0.524480 0.695810 0.424040 -0.506368
O3    O     O_R   0.736390 0.504290 0.414790 -0.519980
O4    O     O_R   0.691300 0.277290 0.422170 -0.526367
O5    O     O_3   0.499990 0.499990 0.499980 -0.269482
O6    O     O_R   0.089400 0.825690 0.930570 -0.531204
O7    O     O_R   0.818460 0.054440 0.929850 -0.503648
O8    O     O_R   0.606060 0.077150 0.915510 -0.540032
O9    O     O_R   0.646550 0.806680 0.917570 -0.508110
O10   O     O_R   0.837170 0.593410 0.915250 -0.537735
O11   O     O_R   0.065200 0.635530 0.931570 -0.508162
O12   O     O_R   0.280320 0.527350 0.578930 -0.490163
O13   O     O_R   0.068260 0.828890 0.091840 -0.517520
O14   O     O_R   0.798870 0.057410 0.079340 -0.484949
O15   O     O_R   0.584930 0.080350 0.076780 -0.547735
O16   O     O_R   0.626960 0.809650 0.067060 -0.514859
O17   O     O_R   0.816040 0.596610 0.076510 -0.520590
O18   O     O_R   0.045610 0.638500 0.081060 -0.516187
O19   O     O_3   0.833640 0.833710 0.001100 -0.245856
O20   O     O_R   0.260510 0.739590 0.584590 -0.538385
O21   O     O_R   0.532300 0.695080 0.573820 -0.515651
O22   O     O_R   0.744840 0.503500 0.576370 -0.507929
O23   O     O_R   0.699120 0.276560 0.571960 -0.501557
O24   O     O_R   0.498940 0.256500 0.419860 -0.514245
O25   O     O_R   0.272500 0.528080 0.429150 -0.506322
O26   O     O_R   0.252060 0.740380 0.423010 -0.525412
O27   O     O_3   0.830653 0.236512 0.168077 -0.723320
H39   H     H_    0.795157 0.270156 0.119586 0.334003
O28   O     O_3   0.303995 0.186496 0.191343 -0.593801
C61   C     C_3   0.289087 0.176184 0.117552 -0.108789
H40   H     H_    0.346621 0.065474 0.097999 0.131068
H41   H     H_    0.322602 0.242374 0.088426 0.149150
H42   H     H_    0.175744 0.217721 0.105946 0.120591
O29   O     O_3   0.844309 0.777204 0.774436 -0.711179
H43   H     H_    0.872501 0.784132 0.823676 0.332411
O30   O     O_3   0.894019 0.658791 0.641470 -0.550376
C62   C     C_3   0.815044 0.797991 0.617324 -0.070898
H44   H     H_    0.773392 0.875540 0.661221 0.181761
H45   H     H_    0.730178 0.811018 0.580688 0.105937
H46   H     H_    0.886810 0.821725 0.586143 0.128791

loop_
_geom_bond_atom_site_label_1
_geom_bond_atom_site_label_2
_ccdc_geom_bond_type
C53   O6    A    
C44   C49   S    
C55   O17   A    
C51   O8    A    
C28   H18   S    
C32   C45   S    
Cr2   O26   S    
C35   C36   A    
C40   H27   S    
C9    C14   S    
Cr1   O5    S    
C61   H42   S    
Cr2   O20   S    
C7    C8    A    
Cr5   O8    S    
C52   O9    A    
C7    C11   A    
C48   H31   S    
C26   C27   A    
C8    C13   S    
C18   C24   A    
C22   H16   S    
C23   O23   A    
C28   C29   A    
C10   C15   A    
C62   H45   S    
C49   H35   S    
C30   C31   S    
C12   O22   A    
C2    H36   S    
C23   O1    A    
Cr4   O14   S    
C4    C59   S    
C59   H23   S    
C19   H11   S    
C16   C53   S    
C56   O4    A    
C56   O24   A    
C57   O18   A    
C46   H29   S    
C19   C20   A    
C34   O25   A    
C16   C17   A    
C47   H30   S    
Cr6   O18   S    
C1    O12   A    
C6    H38   S    
C30   H20   S    
Cr1   O1    S    
C43   C48   S    
C29   H19   S    
C20   H13   S    
Cr1   O25   S    
C3    C60   S    
C15   C23   S    
C21   C22   S    
C37   C41   A    
C36   C41   A    
C2    C6    S    
C42   C57   S    
C55   O16   A    
C25   C29   A    
C54   O15   A    
C34   C50   S    
Cr6   O11   S    
C37   H25   S    
C27   C31   S    
C28   C32   A    
O30   C62   S    
C4    C6    S    
O29   H43   S    
C62   H46   S    
C40   H28   S    
C39   C40   S    
C11   H6    S    
C8    C9    A    
Cr4   O7    S    
C61   H41   S    
C12   O21   A    
C25   C26   A    
C17   C21   S    
Cr4   O13   S    
C14   H10   S    
Cr3   O5    S    
C35   C39   S    
C43   C44   A    
C41   C56   S    
C37   C38   A    
Cr3   O4    S    
Cr4   O6    S    
C36   C40   S    
C16   C20   A    
C31   H24   S    
Cr1   O12   S    
C17   C18   A    
Cr5   O15   S    
Cr6   O17   S    
C48   C49   S    
C21   H15   S    
C26   C30   S    
C54   O14   A    
O28   C61   S    
C4    C12   S    
C42   C43   A    
Cr3   O3    S    
O27   H39   S    
C39   H26   S    
C45   O2    A    
C5    O30   S    
C57   O13   A    
C39   O28   S    
C44   C50   A    
C33   C54   S    
C48   H33   S    
C46   C47   A    
C51   O7    A    
C31   H22   S    
Cr6   O10   S    
C5    C60   S    
C27   C32   A    
C18   C22   S    
Cr5   O9    S    
C25   C55   S    
C13   H7    S    
C4    C5    S    
C5    H4    S    
Cr2   O21   S    
C3    C52   S    
C61   H40   S    
Cr2   O2    S    
C52   O10   A    
Cr4   O19   S    
C46   C50   A    
C33   C38   A    
C38   O27   S    
C19   C24   A    
C58   C59   S    
C1    O20   A    
C7    C51   S    
C62   H44   S    
C22   H17   S    
C49   H34   S    
Cr2   O5    S    
C60   H3    S    
C21   H14   S    
C6    H2    S    
C33   C35   A    
Cr5   O16   S    
C2    C3    S    
Cr1   O24   S    
C42   C47   A    
Cr5   O19   S    
C9    C15   A    
C2    H37   S    
Cr3   O22   S    
C10   C11   A    
C58   H12   S    
C10   H5    S    
C3    C58   S    
C53   O11   A    
C58   H1    S    
C13   H8    S    
C34   O26   A    
C1    C24   S    
C59   H32   S    
Cr6   O19   S    
C30   H21   S    
C13   C14   S    
Cr3   O23   S    
C45   O3    A    
C14   H9    S    
C60   O29   S    
