data_mof_unit_57433.cif
_audit_creation_date              2012-10-26T19:43:42-0400
_audit_creation_method            fapswitch 2.2
_symmetry_space_group_name_H-M    P1
_symmetry_Int_Tables_number       1
_space_group_crystal_system       triclinic
_cell_length_a                    12.352685
_cell_length_b                    13.163512
_cell_length_c                    13.870906
_cell_angle_alpha                 105.335571
_cell_angle_beta                  73.533131
_cell_angle_gamma                 116.720167
_cell_volume                      1907.11038392

loop_
_atom_site_label
_atom_site_type_symbol
_atom_type_description
_atom_site_fract_x
_atom_site_fract_y
_atom_site_fract_z
_atom_type_partial_charge
C1    C     C_R   0.144933 0.713064 0.503763 0.547229
C2    C     C_R   0.566557 0.017644 0.457117 -0.019911
C3    C     C_R   0.615636 0.931771 0.417718 0.084165
C4    C     C_R   0.984056 0.504201 0.686420 0.561940
C5    C     C_R   0.536049 0.819546 0.380759 0.141920
C6    C     C_R   0.409575 0.790404 0.399344 -0.111699
C7    C     C_R   0.647685 0.131534 0.484552 -0.144289
C8    C     C_R   0.820656 0.078157 0.439052 -0.131005
C9    C     C_R   0.228458 0.834504 0.493157 -0.031294
C10   C     C_R   0.637658 0.677433 0.660524 0.141537
C11   C     C_R   0.250892 0.349589 0.365280 0.053511
C12   C     C_1   0.975798 0.507850 0.791732 -0.007831
C13   C     C_R   0.348689 0.315431 0.336319 -0.151327
C14   C     C_R   0.448076 0.371894 0.386891 -0.139559
C15   C     C_R   0.450560 0.463591 0.467727 -0.006234
C16   C     C_R   0.855813 0.285906 0.486567 0.545006
C17   C     C_R   0.347241 0.494633 0.494983 0.170292
C18   C     C_R   0.550436 0.525112 0.523032 -0.035969
C19   C     C_R   0.543411 0.615480 0.603788 0.056356
C20   C     C_R   0.441875 0.643975 0.627716 -0.154473
C21   C     C_R   0.345993 0.584056 0.575842 -0.111018
C22   C     C_R   0.657169 0.501375 0.501963 0.021581
C23   C     C_R   0.742568 0.962671 0.415569 0.108339
C24   C     C_R   0.740881 0.650504 0.635881 0.253881
C25   C     C_R   0.016383 0.496267 0.313576 0.544107
C26   C     C_1   0.028918 0.497056 0.208412 -0.036861
C27   C     C_2   0.056565 0.500212 0.013118 0.158764
C28   C     C_2   0.969054 0.513686 0.984620 -0.094529
C29   C     C_1   0.971223 0.510800 0.879959 -0.043388
C30   C     C_1   0.041421 0.498318 0.119646 -0.027265
C31   C     C_3   0.564253 0.730522 0.839854 -0.316509
C32   C     C_3   0.262394 0.496078 0.978341 -0.304289
C33   C     C_3   0.622455 0.748668 0.212562 -0.284860
C34   C     C_R   0.774190 0.163021 0.470554 -0.029512
C35   C     C_3   0.086499 0.100293 0.610360 -0.290796
C36   C     C_R   0.179035 0.918007 0.524208 -0.078662
C37   C     C_R   0.255924 0.035319 0.524713 0.149899
C38   C     C_R   0.384060 0.068684 0.500588 -0.098473
C39   C     C_R   0.437142 0.986728 0.471857 -0.001496
C40   C     C_R   0.357674 0.869094 0.456035 -0.013703
Cu1   Cu    Cu3+1 0.899780 0.525060 0.522890 0.990429
Cu2   Cu    Cu3+1 0.100220 0.474940 0.477110 0.912303
H1    H     H_    0.892192 0.525253 0.041001 0.111690
H2    H     H_    0.614286 0.198072 0.518302 0.131104
H3    H     H_    0.080214 0.890827 0.546875 0.167253
H4    H     H_    0.439732 0.159462 0.501029 0.092674
H5    H     H_    0.706602 0.842465 0.745239 0.279182
H6    H     H_    0.617178 0.697481 0.866623 0.166691
H7    H     H_    0.470642 0.661835 0.834527 0.146073
H8    H     H_    0.554100 0.804549 0.896554 0.149318
H9    H     H_    0.182921 0.514695 0.873264 0.254752
H10   H     H_    0.331302 0.476668 0.913829 0.134106
H11   H     H_    0.232148 0.434762 0.031994 0.165479
H12   H     H_    0.353746 0.706638 0.362922 0.151932
H13   H     H_    0.306843 0.585900 0.017003 0.137212
H14   H     H_    0.523300 0.652778 0.329284 0.259333
H15   H     H_    0.662537 0.685150 0.170858 0.159337
H16   H     H_    0.694763 0.836463 0.203333 0.176584
H17   H     H_    0.543375 0.732575 0.178967 0.119299
H18   H     H_    0.270903 0.205749 0.558673 0.254388
H19   H     H_    0.068629 0.179322 0.627109 0.153405
H20   H     H_    0.081194 0.077080 0.683480 0.161826
H21   H     H_    0.013921 0.030991 0.569790 0.177643
H22   H     H_    0.434531 0.713392 0.688200 0.155726
H23   H     H_    0.669378 0.434367 0.441577 0.124187
H24   H     H_    0.174200 0.305066 0.325597 0.133981
H25   H     H_    0.521120 0.341823 0.361528 0.102113
H26   H     H_    0.347370 0.244843 0.274500 0.114812
H27   H     H_    0.272032 0.611063 0.602930 0.187964
H28   H     H_    0.917921 0.101419 0.433725 0.153783
I1    I     I_    0.879582 0.749834 0.727715 -0.401782
I2    I     I_    0.826557 0.845341 0.393104 -0.405033
N1    N     N_R   0.748810 0.563010 0.557590 -0.236533
N2    N     N_R   0.250540 0.437620 0.443020 -0.240477
N3    N     N_2   0.627843 0.767431 0.742027 -0.527900
N4    N     N_2   0.158305 0.483052 0.940385 -0.501011
N5    N     N_2   0.581407 0.736597 0.319098 -0.480574
N6    N     N_2   0.207649 0.121443 0.547050 -0.513465
O1    O     O_R   0.025040 0.682470 0.528790 -0.461547
O2    O     O_R   0.194310 0.640150 0.490130 -0.535382
O3    O     O_R   0.903380 0.524130 0.659910 -0.457662
O4    O     O_R   0.072660 0.481800 0.621240 -0.520107
O5    O     O_R   0.805690 0.359850 0.509870 -0.514201
O6    O     O_R   0.974960 0.317530 0.471210 -0.505281
O7    O     O_R   0.927340 0.518200 0.378760 -0.484332
O8    O     O_R   0.096620 0.475870 0.340090 -0.512866

loop_
_geom_bond_atom_site_label_1
_geom_bond_atom_site_label_2
_ccdc_geom_bond_type
C15   C18   A    
Cu2   O2    S    
C33   H16   S    
C12   C29   T    
Cu1   Cu2   S    
C3    C23   A    
C2    C7    A    
Cu2   O4    S    
H18   N6    S    
C28   C29   S    
C6    H12   S    
C5    C6    A    
C24   N1    A    
Cu1   O5    S    
C16   O6    A    
C8    C23   A    
C18   C19   A    
C32   H10   S    
C16   C34   S    
C2    C39   A    
C4    O3    A    
C19   C20   A    
C9    C36   A    
C14   H25   S    
Cu2   O8    S    
C4    C12   S    
C32   H13   S    
C11   H24   S    
C33   H17   S    
C13   C14   A    
C27   C30   S    
C31   H7    S    
Cu2   N2    S    
Cu2   O6    S    
H9    N4    S    
C39   C40   A    
C10   C24   A    
C25   C26   S    
C9    C40   A    
C17   C21   A    
H14   N5    S    
C21   H27   S    
C20   H22   S    
C22   H23   S    
Cu1   O1    S    
C37   C38   A    
C10   N3    S    
C31   N3    S    
C10   C19   A    
Cu1   O3    S    
C25   O7    A    
C1    C9    S    
C36   H3    S    
C35   H19   S    
C8    C34   A    
C7    H2    S    
C26   C30   T    
C31   H6    S    
C17   N2    A    
C1    O1    A    
C7    C34   A    
C6    C40   A    
C31   H8    S    
C5    N5    S    
C27   N4    S    
C32   H11   S    
C15   C17   A    
C36   C37   A    
C33   H15   S    
C35   N6    S    
C18   C22   A    
C23   I2    S    
C3    C5    A    
C11   N2    A    
C32   N4    S    
Cu1   O7    S    
C37   N6    S    
C28   H1    S    
C8    H28   S    
C2    C3    A    
H5    N3    S    
C11   C13   A    
C33   N5    S    
C38   C39   A    
C25   O8    A    
C35   H20   S    
C16   O5    A    
C38   H4    S    
Cu1   N1    S    
C4    O4    A    
C20   C21   A    
C27   C28   D    
C1    O2    A    
C14   C15   A    
C35   H21   S    
C22   N1    A    
C24   I1    S    
C13   H26   S    
