data_mof_unit_29765.cif
_audit_creation_date              2012-12-10T17:44:28-0500
_audit_creation_method            fapswitch 2.2
_symmetry_space_group_name_H-M    P1
_symmetry_Int_Tables_number       1
_space_group_crystal_system       triclinic
_cell_length_a                    9.989564
_cell_length_b                    10.626935
_cell_length_c                    15.448185
_cell_angle_alpha                 92.80797
_cell_angle_beta                  66.838351
_cell_angle_gamma                 89.800283
_cell_volume                      1505.50026812

loop_
_atom_site_label
_atom_site_type_symbol
_atom_type_description
_atom_site_fract_x
_atom_site_fract_y
_atom_site_fract_z
_atom_type_partial_charge
C1    C     C_R   0.500966 0.738872 0.498090 0.906718
C2    C     C_R   0.738011 0.492082 0.025115 0.156390
C3    C     C_R   0.595749 0.453339 0.081087 0.099814
C4    C     C_R   0.407667 0.496032 0.676034 0.920372
C5    C     C_R   0.837721 0.519316 0.066733 -0.199928
C6    C     C_R   0.793903 0.517215 0.164396 -0.198083
C7    C     C_R   0.555106 0.451222 0.178276 -0.205264
C8    C     C_R   0.502633 0.859323 0.333880 -0.204893
C9    C     C_R   0.504055 0.920262 0.255668 -0.254379
C10   C     C_R   0.505532 0.052200 0.255760 0.497863
C11   C     C_R   0.505092 0.121416 0.335089 -0.166579
C12   C     C_R   0.417338 0.458399 0.910421 -0.020441
C13   C     C_R   0.501954 0.060740 0.415597 -0.028002
C14   C     C_R   0.501381 0.929032 0.414548 0.087604
C15   C     C_R   0.503357 0.870846 0.493875 -0.174427
C16   C     C_R   0.500533 0.260910 0.499431 0.819328
C17   C     C_R   0.508118 0.938271 0.571783 -0.206059
C18   C     C_R   0.505025 0.067274 0.575356 0.444999
C19   C     C_R   0.502081 0.128077 0.496884 -0.185354
C20   C     C_R   0.784084 0.675882 0.615328 -0.087068
C21   C     C_R   0.812316 0.768329 0.670718 -0.229024
C22   C     C_R   0.946023 0.770972 0.675403 -0.294918
C23   C     C_R   0.289467 0.390954 0.957448 0.034954
C24   C     C_R   0.055073 0.680335 0.624674 0.484374
C25   C     C_R   0.034039 0.587920 0.559658 0.109136
C26   C     C_R   0.890880 0.587211 0.557599 0.083686
C27   C     C_R   0.963233 0.417366 0.444393 -0.097845
C28   C     C_R   0.592189 0.497011 0.323617 0.822149
C29   C     C_R   0.105796 0.417629 0.444151 -0.110025
C30   C     C_R   0.349675 0.472786 0.776814 -0.216961
C31   C     C_R   0.650446 0.487196 0.220510 -0.065767
C32   C     C_R   0.193084 0.364588 0.913643 -0.216768
C33   C     C_R   0.228308 0.395529 0.820653 0.359235
C34   C     C_R   0.527747 0.463094 0.946560 0.065339
C35   C     C_R   0.430757 0.516826 0.827629 0.334168
C36   C     C_R   0.494233 0.427658 0.039656 0.077834
C37   C     C_R   0.361137 0.367204 0.087700 -0.192343
C38   C     C_R   0.262242 0.346616 0.045979 -0.183854
C39   C     C_R   0.672984 0.493657 0.890404 -0.205884
C40   C     C_R   0.777054 0.506243 0.929051 -0.207487
H1    H     H_    0.164310 0.295350 0.083061 0.148729
H2    H     H_    0.869806 0.543586 0.196069 0.161310
H3    H     H_    0.097153 0.309747 0.948396 0.182661
H4    H     H_    0.334312 0.327839 0.155390 0.166060
H5    H     H_    0.708684 0.505218 0.815551 0.212778
H6    H     H_    0.505185 0.864393 0.194825 0.141672
H7    H     H_    0.508180 0.054179 0.129487 0.333235
H8    H     H_    0.478584 0.219271 0.658431 0.319797
H9    H     H_    0.445169 0.429773 0.223403 0.154903
H10   H     H_    0.962932 0.842019 0.722605 0.163044
H11   H     H_    0.173246 0.749697 0.690393 0.311748
H12   H     H_    0.947384 0.547204 0.024281 0.148172
H13   H     H_    0.886653 0.531931 0.884409 0.185213
H14   H     H_    0.208818 0.320385 0.709997 0.346371
H15   H     H_    0.522340 0.666980 0.852437 0.335720
H16   H     H_    0.509975 0.889958 0.631639 0.165782
H17   H     H_    0.504022 0.757513 0.330020 0.155644
H18   H     H_    0.508619 0.222878 0.332208 0.152463
H19   H     H_    0.938372 0.349450 0.398690 0.142741
H20   H     H_    0.675009 0.677049 0.621730 0.242554
H21   H     H_    0.727764 0.836082 0.712978 0.196169
H22   H     H_    0.187007 0.350012 0.398241 0.144869
N1    N     N_R   0.856800 0.501200 0.500850 -0.108105
N2    N     N_R   0.142390 0.501280 0.500880 -0.095341
O1    O     O_R   0.385310 0.683220 0.500000 -0.551363
O2    O     O_3   0.503022 0.128848 0.656940 -0.756474
O3    O     O_3   0.176444 0.680006 0.644363 -0.712888
O4    O     O_3   0.143882 0.346299 0.775594 -0.740707
O5    O     O_3   0.515709 0.620827 0.796958 -0.800523
O6    O     O_R   0.614640 0.683250 0.500010 -0.646984
O7    O     O_R   0.319840 0.499980 0.632240 -0.542750
O8    O     O_R   0.549160 0.500000 0.632250 -0.595967
O9    O     O_R   0.385360 0.316750 0.499990 -0.622266
O10   O     O_R   0.614690 0.316780 0.500000 -0.602820
O11   O     O_R   0.450840 0.500000 0.367750 -0.628565
O12   O     O_R   0.680160 0.500020 0.367760 -0.609665
O13   O     O_3   0.508396 0.116221 0.179524 -0.790424
Zn1   Zn    Zn3+2 0.346880 0.499980 0.499990 0.984462
Zn2   Zn    Zn3+2 0.653120 0.500020 0.500010 0.956133

loop_
_geom_bond_atom_site_label_1
_geom_bond_atom_site_label_2
_ccdc_geom_bond_type
C27   C29   A    
O12   Zn2   S    
N1    Zn2   S    
C12   C23   A    
C30   C35   A    
C16   O10   A    
C36   C37   A    
O8    Zn2   S    
C3    C7    A    
C5    C6    A    
H14   O4    S    
C18   C19   A    
C24   O3    S    
C8    C9    A    
C1    O1    A    
O9    Zn1   S    
C5    H12   S    
C1    C15   S    
C20   H20   S    
C11   H18   S    
C9    C10   A    
C21   H21   S    
C39   H5    S    
C6    C31   A    
C29   N2    A    
C9    H6    S    
C13   C14   A    
C10   O13   S    
C7    C31   A    
C13   C19   A    
C16   O9    A    
C24   C25   A    
C7    H9    S    
C38   H1    S    
C39   C40   A    
C25   C26   A    
C34   C39   A    
C25   N2    A    
C26   N1    A    
C37   C38   A    
C8    H17   S    
C17   C18   A    
H11   O3    S    
C12   C35   A    
C17   H16   S    
H15   O5    S    
C27   N1    A    
O10   Zn2   S    
C22   C24   A    
C2    C5    A    
H7    O13   S    
C12   C34   A    
C28   O12   A    
C4    O8    A    
C15   C17   A    
C29   H22   S    
C8    C14   A    
O1    Zn1   S    
C30   C33   A    
O6    Zn2   S    
N2    Zn1   S    
C28   C31   S    
C18   O2    S    
C23   C38   A    
C1    O6    A    
C22   H10   S    
C23   C32   A    
C37   H4    S    
C2    C3    A    
C27   H19   S    
C32   C33   A    
C11   C13   A    
C20   C26   A    
C3    C36   A    
C16   C19   S    
C32   H3    S    
C34   C36   A    
O7    Zn1   S    
O11   Zn1   S    
C10   C11   A    
C2    C40   A    
C20   C21   A    
C35   O5    S    
C40   H13   S    
C6    H2    S    
C14   C15   A    
H8    O2    S    
C21   C22   A    
C28   O11   A    
C4    O7    A    
C4    C30   S    
C33   O4    S    
