data_mof_unit_18325.cif
_audit_creation_date              2012-12-10T16:58:40-0500
_audit_creation_method            fapswitch 2.2
_symmetry_space_group_name_H-M    P1
_symmetry_Int_Tables_number       1
_space_group_crystal_system       triclinic
_cell_length_a                    13.181204
_cell_length_b                    13.068004
_cell_length_c                    15.43409
_cell_angle_alpha                 108.184512
_cell_angle_beta                  73.885293
_cell_angle_gamma                 91.207448
_cell_volume                      2420.26719067

loop_
_atom_site_label
_atom_site_type_symbol
_atom_type_description
_atom_site_fract_x
_atom_site_fract_y
_atom_site_fract_z
_atom_type_partial_charge
C1    C     C_R   0.218063 0.541908 0.536019 0.517847
C2    C     C_R   0.507542 0.477434 0.113556 -0.173339
C3    C     C_R   0.657953 0.355465 0.082041 0.125248
C4    C     C_R   0.781065 0.458101 0.464384 0.515405
C5    C     C_R   0.435769 0.581603 0.857559 -0.043527
C6    C     C_2   0.895019 0.440549 0.446488 0.124670
C7    C     C_2   0.939511 0.491648 0.515204 -0.104566
C8    C     C_2   0.102908 0.554420 0.554475 -0.121601
C9    C     C_2   0.054608 0.482839 0.498904 -0.139969
C10   C     C_2   0.539644 0.895675 0.534395 0.083683
C11   C     C_2   0.456666 0.955321 0.536110 -0.103996
C12   C     C_R   0.298600 0.621180 0.007926 0.317659
C13   C     C_2   0.445908 0.106880 0.475719 0.262985
C14   C     C_2   0.464909 0.071120 0.544073 0.262207
C15   C     C_R   0.467471 0.218909 0.475373 0.523167
C16   C     C_R   0.529202 0.781714 0.526708 0.500265
C17   C     C_R   0.545825 0.442200 0.247230 0.535803
C18   C     C_R   0.457583 0.557803 0.753398 0.555646
C19   C     C_R   0.692338 0.356253 0.987463 0.118618
C20   C     C_R   0.568169 0.420127 0.145255 0.046376
C21   C     C_R   0.338749 0.636645 0.919547 0.230234
C22   C     C_3   0.456255 0.128837 0.703910 0.018616
C23   C     C_R   0.354359 0.550737 0.033701 0.067794
C24   C     C_3   0.481675 0.223271 0.780917 -0.238098
C25   C     C_3   0.433451 0.212386 0.879401 -0.490148
C26   C     C_3   0.470931 0.996594 0.323214 0.003233
C27   C     C_3   0.417547 0.915405 0.257470 -0.250000
C28   C     C_3   0.495383 0.859217 0.160305 -0.494066
C29   C     C_3   0.312697 0.796924 0.897257 0.029085
C30   C     C_3   0.258239 0.850986 0.845760 -0.227415
C31   C     C_3   0.300110 0.960951 0.846924 -0.496738
C32   C     C_3   0.203199 0.750411 0.141202 0.014796
C33   C     C_3   0.091779 0.800933 0.198627 -0.249042
C34   C     C_R   0.463813 0.520405 0.983821 -0.071701
C35   C     C_3   0.094176 0.897458 0.284623 -0.479152
C36   C     C_3   0.673069 0.667144 0.811135 -0.006247
C37   C     C_3   0.684575 0.718557 0.732680 -0.247413
C38   C     C_3   0.686189 0.841105 0.770903 -0.484841
C39   C     C_R   0.504759 0.538470 0.895205 -0.083052
C40   C     C_R   0.533041 0.471227 0.017730 -0.040925
C41   C     C_R   0.633919 0.421816 0.956422 0.025044
C42   C     C_R   0.674662 0.446553 0.870700 0.107291
C43   C     C_R   0.614068 0.514385 0.846607 0.289652
H1    H     H_    0.890418 0.543411 0.583410 0.108245
H2    H     H_    0.486714 0.052692 0.708651 0.158097
H3    H     H_    0.368517 0.129624 0.717694 0.115153
H4    H     H_    0.568953 0.225524 0.767186 0.185842
H5    H     H_    0.449775 0.300408 0.779085 0.187098
H6    H     H_    0.345936 0.212119 0.895502 0.156688
H7    H     H_    0.453040 0.281273 0.933993 0.165020
H8    H     H_    0.465829 0.136669 0.883278 0.142120
H9    H     H_    0.538475 0.953106 0.330527 0.119792
H10   H     H_    0.501335 0.060348 0.290741 0.147142
H11   H     H_    0.383992 0.853358 0.290791 0.163791
H12   H     H_    0.057500 0.621335 0.613930 0.105184
H13   H     H_    0.351526 0.957952 0.247643 0.170060
H14   H     H_    0.528597 0.919386 0.124687 0.145383
H15   H     H_    0.453871 0.801036 0.114755 0.126124
H16   H     H_    0.560953 0.814142 0.168227 0.157431
H17   H     H_    0.693243 0.884785 0.537089 0.222736
H18   H     H_    0.671637 0.951666 0.466300 0.232323
H19   H     H_    0.777369 0.369472 0.742386 0.264351
H20   H     H_    0.823390 0.479260 0.809151 0.251086
H21   H     H_    0.770529 0.242507 0.862832 0.254809
H22   H     H_    0.848335 0.337733 0.912382 0.271621
H23   H     H_    0.383816 0.918203 0.528010 0.110083
H24   H     H_    0.400065 0.792920 0.864618 0.119111
H25   H     H_    0.293672 0.847399 0.973283 0.113736
H26   H     H_    0.272492 0.798754 0.770648 0.211277
H27   H     H_    0.171480 0.861339 0.880710 0.165532
H28   H     H_    0.284796 0.015586 0.921289 0.146768
H29   H     H_    0.259793 0.997844 0.808431 0.144343
H30   H     H_    0.386565 0.951697 0.811138 0.141512
H31   H     H_    0.326710 0.420312 0.083520 0.237328
H32   H     H_    0.281535 0.544331 0.167730 0.219708
H33   H     H_    0.251088 0.813177 0.117649 0.104596
H34   H     H_    0.444712 0.533314 0.166296 0.110585
H35   H     H_    0.239629 0.723873 0.188339 0.119732
H36   H     H_    0.054267 0.828005 0.152517 0.178462
H37   H     H_    0.043207 0.739521 0.223525 0.180242
H38   H     H_    0.140240 0.961030 0.261177 0.154653
H39   H     H_    0.130582 0.872061 0.332211 0.154485
H40   H     H_    0.012127 0.931854 0.325234 0.157653
H41   H     H_    0.744814 0.679662 0.836712 0.133151
H42   H     H_    0.603383 0.709543 0.871627 0.107211
H43   H     H_    0.759004 0.685235 0.675335 0.151074
H44   H     H_    0.617325 0.698943 0.701445 0.170445
H45   H     H_    0.101118 0.417105 0.438951 0.196871
H46   H     H_    0.753273 0.863190 0.801995 0.150540
H47   H     H_    0.610659 0.876630 0.826138 0.135843
H48   H     H_    0.695759 0.875399 0.711946 0.155389
H49   H     H_    0.721330 0.212425 0.075059 0.242000
H50   H     H_    0.794345 0.318951 0.105622 0.251502
H51   H     H_    0.909276 0.339807 0.311869 0.233127
H52   H     H_    0.999704 0.431743 0.320496 0.234524
N1    N     N_3   0.717372 0.293625 0.115953 -0.626996
N2    N     N_3   0.958626 0.377939 0.353072 -0.636786
N3    N     N_3   0.640694 0.940459 0.532577 -0.599256
N4    N     N_3   0.780590 0.411371 0.811309 -0.646640
N5    N     N_3   0.785655 0.289344 0.925916 -0.640139
N6    N     N_3   0.292456 0.497128 0.096993 -0.595873
O1    O     O_3   0.500000 0.500000 0.500000 -0.446612
O2    O     O_R   0.468210 0.402800 0.293550 -0.542715
O3    O     O_R   0.410220 0.615430 0.721590 -0.528506
O4    O     O_R   0.602670 0.506150 0.290200 -0.530629
O5    O     O_R   0.518910 0.475630 0.694660 -0.495479
O6    O     O_3   0.506194 0.139209 0.613630 -0.531172
O7    O     O_3   0.395634 0.042604 0.412407 -0.601682
O8    O     O_3   0.275154 0.693230 0.889760 -0.515667
O9    O     O_3   0.196897 0.662112 0.062204 -0.508233
O10   O     O_3   0.663343 0.554896 0.773476 -0.554578
O11   O     O_R   0.526920 0.270960 0.524520 -0.504351
O12   O     O_R   0.454490 0.752910 0.584610 -0.564564
O13   O     O_R   0.270990 0.462040 0.468400 -0.538473
O14   O     O_R   0.747590 0.514090 0.422470 -0.548579
O15   O     O_R   0.265290 0.607490 0.589320 -0.541096
O16   O     O_R   0.716130 0.416380 0.519810 -0.516470
O17   O     O_R   0.423930 0.265320 0.430520 -0.531300
O18   O     O_R   0.594650 0.710810 0.460350 -0.542679
Zn1   Zn    Zn3+2 0.564370 0.417180 0.558730 0.982067
Zn2   Zn    Zn3+2 0.417220 0.409120 0.424430 0.944909
Zn3   Zn    Zn3+2 0.609330 0.556780 0.419650 0.930231
Zn4   Zn    Zn3+2 0.409080 0.616930 0.597190 0.920198

loop_
_geom_bond_atom_site_label_1
_geom_bond_atom_site_label_2
_ccdc_geom_bond_type
O15   Zn4   S    
C1    C8    S    
C41   C42   A    
C4    O14   A    
H18   N3    S    
C16   O12   A    
C12   O9    S    
C35   H38   S    
C27   H11   S    
O3    Zn4   S    
C28   H14   S    
C12   C23   A    
C26   C27   S    
C29   C30   S    
C32   O9    S    
C34   C40   A    
C29   O8    S    
C36   C37   S    
H17   N3    S    
C9    H45   S    
C30   C31   S    
C11   C14   S    
C31   H30   S    
C22   O6    S    
H49   N1    S    
C17   C20   S    
C10   N3    S    
C25   H7    S    
H20   N4    S    
C29   H24   S    
O13   Zn2   S    
C8    C9    D    
C3    C19   A    
C3    N1    S    
C1    O15   A    
O1    Zn2   S    
C11   H23   S    
C31   H28   S    
O14   Zn3   S    
C13   C14   D    
C43   O10   S    
C13   O7    S    
C8    H12   S    
C30   H27   S    
C35   H39   S    
C31   H29   S    
C2    C20   A    
C34   C39   A    
C24   H5    S    
C6    N2    S    
C37   H43   S    
C24   C25   S    
C4    C6    S    
C17   O4    A    
O16   Zn1   S    
C26   O7    S    
O11   Zn1   S    
C35   H40   S    
C27   H13   S    
C33   H36   S    
C39   C43   A    
C5    C18   S    
H51   N2    S    
C38   H48   S    
O17   Zn2   S    
C18   O5    A    
C37   C38   S    
C26   H9    S    
C29   H25   S    
O12   Zn4   S    
C23   C34   A    
C36   O10   S    
C3    C20   A    
C18   O3    A    
C7    H1    S    
H31   N6    S    
C40   C41   A    
C22   H3    S    
H50   N1    S    
C13   C15   S    
C22   C24   S    
C4    O16   A    
C16   O18   A    
C42   C43   A    
O1    Zn4   S    
O2    Zn2   S    
C26   H10   S    
C30   H26   S    
O1    Zn1   S    
C28   H16   S    
C7    C9    S    
C14   O6    S    
O5    Zn1   S    
C24   H4    S    
O18   Zn3   S    
C15   O11   A    
C37   H44   S    
H22   N5    S    
C32   H33   S    
C21   O8    S    
C19   N5    S    
H52   N2    S    
C33   H37   S    
C6    C7    D    
C28   H15   S    
C36   H42   S    
C38   H47   S    
C25   H8    S    
C15   O17   A    
C38   H46   S    
C32   C33   S    
C5    C39   A    
C17   O2    A    
C2    H34   S    
C10   C16   S    
C42   N4    S    
C23   N6    S    
C36   H41   S    
C12   C21   A    
C33   C35   S    
O4    Zn3   S    
C25   H6    S    
C10   C11   D    
C32   H35   S    
H19   N4    S    
C2    C40   A    
H21   N5    S    
C22   H2    S    
C5    C21   A    
C1    O13   A    
C27   C28   S    
H32   N6    S    
O1    Zn3   S    
C19   C41   A    
