data_mof_unit_64115.cif
_audit_creation_date              2012-10-26T20:48:25-0400
_audit_creation_method            fapswitch 2.2
_symmetry_space_group_name_H-M    P1
_symmetry_Int_Tables_number       1
_space_group_crystal_system       triclinic
_cell_length_a                    15.120321
_cell_length_b                    13.897834
_cell_length_c                    19.368854
_cell_angle_alpha                 90.00499
_cell_angle_beta                  92.743349
_cell_angle_gamma                 89.999044
_cell_volume                      4065.50075522

loop_
_atom_site_label
_atom_site_type_symbol
_atom_type_description
_atom_site_fract_x
_atom_site_fract_y
_atom_site_fract_z
_atom_type_partial_charge
C1    C     C_R   0.330027 0.499883 0.500240 0.522408
C2    C     C_R   0.576120 0.892780 0.521177 0.198245
C3    C     C_R   0.542731 0.208820 0.552947 0.347507
C4    C     C_R   0.429073 0.791228 0.470920 0.339635
C5    C     C_R   0.457302 0.208805 0.447040 0.347501
C6    C     C_R   0.570937 0.791222 0.529069 0.339771
C7    C     C_R   0.500035 0.054607 0.499987 -0.002715
C8    C     C_R   0.500029 0.945510 0.499985 0.001123
C9    C     C_R   0.504829 0.500062 0.367575 0.551957
C10   C     C_R   0.495159 0.500065 0.632423 0.551905
C11   C     C_R   0.511414 0.587504 0.254141 0.198414
C12   C     C_R   0.669972 0.499881 0.499769 0.522385
C13   C     C_R   0.469142 0.413538 0.743983 0.217029
C14   C     C_R   0.488516 0.587487 0.745871 0.198219
C15   C     C_R   0.530954 0.413567 0.256013 0.216984
C16   C     C_R   0.507876 0.585191 0.181861 -0.138044
C17   C     C_R   0.472984 0.412553 0.816251 -0.126948
C18   C     C_R   0.492103 0.585185 0.818146 -0.137891
C19   C     C_R   0.527176 0.412583 0.183745 -0.126937
C20   C     C_R   0.513540 0.497890 0.146205 -0.059351
C21   C     C_R   0.486569 0.497874 0.853797 -0.059396
C22   C     C_R   0.514630 0.500269 0.291762 0.007820
C23   C     C_R   0.233713 0.498902 0.500649 -0.095830
C24   C     C_R   0.485369 0.500259 0.708238 0.007632
C25   C     C_R   0.492993 0.496927 0.929937 0.349838
C26   C     C_R   0.507151 0.496934 0.070064 0.349850
C27   C     C_R   0.092845 0.574066 0.470625 0.242320
C28   C     C_R   0.901770 0.417646 0.471697 0.248870
C29   C     C_R   0.907149 0.574034 0.529469 0.242307
C30   C     C_R   0.098235 0.417627 0.528306 0.248865
C31   C     C_R   0.184856 0.577244 0.474708 -0.143025
C32   C     C_R   0.809827 0.418659 0.473803 -0.164455
C33   C     C_R   0.815138 0.577214 0.525380 -0.143028
C34   C     C_R   0.766286 0.498897 0.499382 -0.095837
C35   C     C_R   0.190177 0.418643 0.526191 -0.164452
C36   C     C_3   0.588289 0.727487 0.276000 -0.010312
C37   C     C_3   0.613984 0.787963 0.339344 -0.373156
C38   C     C_3   0.354466 0.329924 0.694142 0.003880
C39   C     C_3   0.326915 0.237735 0.656606 -0.378177
C40   C     C_3   0.410891 0.726792 0.723685 -0.009890
C41   C     C_3   0.385800 0.788002 0.660605 -0.373462
C42   C     C_3   0.645630 0.329981 0.305872 0.003871
C43   C     C_3   0.673185 0.237779 0.343378 -0.378201
C44   C     C_3   0.022053 0.631611 0.372989 -0.007743
C45   C     C_R   0.048613 0.494923 0.499236 0.054220
C46   C     C_3   0.984014 0.722191 0.339062 -0.364767
C47   C     C_3   0.944930 0.349318 0.372120 -0.012724
C48   C     C_3   0.972858 0.254515 0.340642 -0.366169
C49   C     C_3   0.977896 0.631528 0.627144 -0.007743
C50   C     C_3   0.016080 0.722039 0.661079 -0.364759
C51   C     C_3   0.055124 0.349155 0.627841 -0.012726
C52   C     C_3   0.027243 0.254295 0.659246 -0.366173
C53   C     C_3   0.507089 0.067501 0.667884 -0.010789
C54   C     C_3   0.541985 0.012500 0.731326 -0.374779
C55   C     C_3   0.293264 0.937310 0.522062 -0.014600
C56   C     C_R   0.951386 0.494919 0.500814 0.054201
C57   C     C_3   0.212332 0.000935 0.509296 -0.364617
C58   C     C_3   0.493088 0.067499 0.332108 -0.010732
C59   C     C_3   0.458343 0.012353 0.268680 -0.374907
C60   C     C_3   0.706786 0.937253 0.477917 -0.014464
C61   C     C_3   0.787791 0.000757 0.490727 -0.364548
C62   C     C_3   0.680073 0.258406 0.594547 0.043509
C63   C     C_3   0.729882 0.193117 0.646314 -0.377474
C64   C     C_3   0.345272 0.772802 0.369153 0.029774
C65   C     C_3   0.301936 0.692821 0.325770 -0.359076
C66   C     C_3   0.319965 0.258381 0.405435 0.043454
C67   C     C_R   0.535465 0.107260 0.557118 0.210152
C68   C     C_3   0.270169 0.192998 0.353715 -0.377470
C69   C     C_3   0.654509 0.772751 0.630916 0.029602
C70   C     C_3   0.697918 0.692815 0.674289 -0.359115
C71   C     C_R   0.423923 0.892798 0.478797 0.198184
C72   C     C_R   0.464604 0.107248 0.442858 0.210232
Cu1   Cu    Cu3+1 0.500000 0.596430 0.500000 1.041686
Cu2   Cu    Cu3+1 0.500000 0.403570 0.500000 1.015915
H1    H     H_    0.500425 0.652418 0.153930 0.145184
H2    H     H_    0.646199 0.680500 0.265706 0.116172
H3    H     H_    0.627602 0.740467 0.384713 0.180320
H4    H     H_    0.674593 0.830061 0.329777 0.072387
H5    H     H_    0.560086 0.838687 0.350963 0.131870
H6    H     H_    0.334722 0.391756 0.660158 0.121609
H7    H     H_    0.317633 0.334050 0.742558 0.112254
H8    H     H_    0.340728 0.174722 0.690602 0.125379
H9    H     H_    0.254795 0.239550 0.642925 0.092364
H10   H     H_    0.363302 0.230152 0.608452 0.157109
H11   H     H_    0.422527 0.774959 0.769031 0.129314
H12   H     H_    0.463580 0.344911 0.842689 0.153166
H13   H     H_    0.353075 0.679231 0.733078 0.116108
H14   H     H_    0.372925 0.741048 0.614839 0.180341
H15   H     H_    0.324894 0.829698 0.669976 0.072471
H16   H     H_    0.439701 0.839115 0.649771 0.131882
H17   H     H_    0.665344 0.391802 0.339883 0.121667
H18   H     H_    0.682482 0.334140 0.257467 0.112259
H19   H     H_    0.659384 0.174780 0.309357 0.125407
H20   H     H_    0.745304 0.239595 0.357065 0.092422
H21   H     H_    0.636790 0.230169 0.391526 0.157096
H22   H     H_    0.969900 0.575192 0.369952 0.113196
H23   H     H_    0.499464 0.652429 0.846074 0.145335
H24   H     H_    0.079676 0.607812 0.343447 0.105125
H25   H     H_    0.034777 0.780026 0.340567 0.153506
H26   H     H_    0.963341 0.707012 0.284358 0.083866
H27   H     H_    0.925467 0.746948 0.366721 0.164339
H28   H     H_    0.994338 0.405150 0.359543 0.113342
H29   H     H_    0.878877 0.369126 0.348111 0.101913
H30   H     H_    0.923359 0.197833 0.350841 0.147560
H31   H     H_    0.977597 0.262784 0.283918 0.087305
H32   H     H_    0.038344 0.232205 0.363586 0.164363
H33   H     H_    0.029954 0.575005 0.630189 0.113110
H34   H     H_    0.536656 0.344952 0.157305 0.153155
H35   H     H_    0.920221 0.607855 0.656671 0.105192
H36   H     H_    0.965416 0.779980 0.659562 0.153566
H37   H     H_    0.036708 0.706838 0.715785 0.083834
H38   H     H_    0.074681 0.746664 0.633432 0.164315
H39   H     H_    0.005711 0.404951 0.640487 0.113356
H40   H     H_    0.121184 0.368950 0.651843 0.101893
H41   H     H_    0.076745 0.197643 0.648971 0.147564
H42   H     H_    0.022544 0.262474 0.715981 0.087298
H43   H     H_    0.961746 0.231999 0.636311 0.164358
H44   H     H_    0.441708 0.036630 0.650740 0.094108
H45   H     H_    0.217776 0.640262 0.455904 0.190377
H46   H     H_    0.498910 0.143891 0.683291 0.209458
H47   H     H_    0.606445 0.043172 0.750400 0.157665
H48   H     H_    0.494072 0.017949 0.772844 0.099506
H49   H     H_    0.551311 0.935548 0.718408 0.146419
H50   H     H_    0.330656 0.964813 0.568978 0.102544
H51   H     H_    0.270508 0.862464 0.531537 0.153249
H52   H     H_    0.173135 0.975719 0.462806 0.163284
H53   H     H_    0.170171 0.998077 0.554647 0.098602
H54   H     H_    0.233253 0.076557 0.501221 0.147732
H55   H     H_    0.558500 0.036757 0.349307 0.094118
H56   H     H_    0.772566 0.357500 0.453607 0.131488
H57   H     H_    0.501170 0.143884 0.316664 0.209474
H58   H     H_    0.393820 0.042837 0.249576 0.157746
H59   H     H_    0.506262 0.017890 0.227174 0.099373
H60   H     H_    0.449193 0.935386 0.281626 0.146336
H61   H     H_    0.669418 0.964857 0.431028 0.102508
H62   H     H_    0.729456 0.862388 0.468383 0.153203
H63   H     H_    0.826976 0.975419 0.537185 0.163351
H64   H     H_    0.829932 0.997914 0.445364 0.098561
H65   H     H_    0.766956 0.076392 0.498880 0.147793
H66   H     H_    0.704648 0.332712 0.604152 0.157378
H67   H     H_    0.782213 0.640211 0.544223 0.190376
H68   H     H_    0.697577 0.239069 0.540876 0.099558
H69   H     H_    0.722712 0.116686 0.630758 0.204470
H70   H     H_    0.801445 0.211062 0.647839 0.077358
H71   H     H_    0.704864 0.203224 0.698815 0.170025
H72   H     H_    0.407778 0.793252 0.344992 0.165977
H73   H     H_    0.299724 0.835491 0.367008 0.174586
H74   H     H_    0.232555 0.682155 0.340237 0.116018
H75   H     H_    0.301358 0.712613 0.270204 0.109201
H76   H     H_    0.338968 0.624429 0.333502 0.192545
H77   H     H_    0.295378 0.332670 0.395781 0.157367
H78   H     H_    0.227441 0.357466 0.546348 0.131486
H79   H     H_    0.302467 0.239129 0.459120 0.099572
H80   H     H_    0.277370 0.116593 0.369322 0.204513
H81   H     H_    0.198600 0.210917 0.352187 0.077355
H82   H     H_    0.295174 0.203033 0.301206 0.170060
H83   H     H_    0.591908 0.793019 0.655012 0.166084
H84   H     H_    0.699927 0.835550 0.633163 0.174621
H85   H     H_    0.767338 0.682293 0.659870 0.116112
H86   H     H_    0.698392 0.712560 0.729863 0.109262
H87   H     H_    0.661001 0.624361 0.666494 0.192323
H88   H     H_    0.575697 0.776216 0.231096 0.129289
N1    N     N_R   0.503557 0.412797 0.034387 -0.235279
N2    N     N_R   0.496670 0.580840 0.965698 -0.240890
N3    N     N_R   0.496632 0.412793 0.965607 -0.235284
N4    N     N_R   0.503438 0.580844 0.034309 -0.240892
N5    N     N_R   0.500000 0.258690 0.500000 -0.284139
N6    N     N_R   0.500000 0.741310 0.500000 -0.256937
O1    O     O_R   0.371460 0.581430 0.500010 -0.457767
O2    O     O_3   0.447033 0.329423 0.709081 -0.525569
O3    O     O_3   0.489429 0.675054 0.711829 -0.558607
O4    O     O_3   0.553068 0.329461 0.290914 -0.525600
O5    O     O_3   0.047225 0.652071 0.442518 -0.510535
O6    O     O_3   0.942658 0.338262 0.444416 -0.510963
O7    O     O_3   0.952770 0.652019 0.557614 -0.510522
O8    O     O_3   0.057349 0.338211 0.555531 -0.510962
O9    O     O_3   0.568094 0.059180 0.615439 -0.523983
O10   O     O_3   0.345159 0.940416 0.463525 -0.530928
O11   O     O_3   0.432036 0.059154 0.384517 -0.524001
O12   O     O_R   0.628540 0.418570 0.499990 -0.523485
O13   O     O_3   0.654898 0.940364 0.536459 -0.530787
O14   O     O_3   0.588058 0.258008 0.605572 -0.490249
O15   O     O_3   0.359836 0.741004 0.438247 -0.531822
O16   O     O_3   0.411980 0.257977 0.394410 -0.490286
O17   O     O_3   0.640140 0.741011 0.561787 -0.531760
O18   O     O_R   0.628540 0.581430 0.499990 -0.457782
O19   O     O_R   0.371460 0.418570 0.500010 -0.523504
O20   O     O_R   0.499990 0.581460 0.400140 -0.452159
O21   O     O_R   0.500010 0.418540 0.599860 -0.421993
O22   O     O_R   0.500010 0.581460 0.599860 -0.452293
O23   O     O_R   0.499990 0.418540 0.400140 -0.422011
O24   O     O_3   0.510240 0.675060 0.288209 -0.558507

loop_
_geom_bond_atom_site_label_1
_geom_bond_atom_site_label_2
_ccdc_geom_bond_type
C66   C68   S    
C46   H25   S    
C18   C21   A    
Cu1   Cu2   S    
C14   C18   A    
C30   C45   A    
C41   H15   S    
C19   C20   A    
C49   O7    S    
C54   H49   S    
C68   H81   S    
C61   H63   S    
C27   O5    S    
C57   H54   S    
C32   H56   S    
Cu1   O18   S    
C28   C56   A    
C53   H46   S    
C3    N5    A    
C7    C8    S    
C49   H33   S    
C53   C54   S    
C15   C19   A    
C37   H5    S    
C6    O17   S    
C10   O22   A    
C38   H6    S    
C30   C35   A    
C71   O10   S    
C36   C37   S    
N1    N3    A    
C62   H68   S    
C39   H10   S    
C11   O24   S    
C5    C72   A    
C68   H80   S    
C38   C39   S    
C61   H64   S    
C25   N2    A    
C48   H30   S    
C29   C33   A    
C26   N1    A    
C50   H36   S    
C43   H20   S    
C70   H85   S    
C14   C24   A    
C65   H76   S    
C21   C25   S    
C36   H2    S    
C64   O15   S    
C44   H24   S    
C15   C22   A    
C48   H32   S    
C55   H51   S    
C45   C56   S    
C43   H21   S    
C63   H70   S    
C58   O11   S    
C18   H23   S    
C60   H62   S    
C5    O16   S    
C42   H18   S    
Cu1   O22   S    
C52   H43   S    
C27   C45   A    
C52   H42   S    
C41   H16   S    
C54   H48   S    
C47   H28   S    
C36   H88   S    
C2    C6    A    
C29   O7    S    
Cu1   N6    S    
C30   O8    S    
Cu2   N5    S    
C44   C46   S    
C38   O2    S    
C1    O19   A    
C46   H27   S    
C6    N6    A    
C59   H58   S    
C10   O21   A    
C47   H29   S    
C27   C31   A    
C51   C52   S    
C51   H40   S    
C47   C48   S    
C28   C32   A    
C44   O5    S    
C67   O9    S    
C57   H52   S    
C53   H44   S    
C61   H65   S    
C25   N3    A    
C58   C59   S    
C37   H3    S    
C59   H59   S    
C17   C21   A    
C4    N6    A    
C13   C24   A    
C60   C61   S    
C2    O13   S    
C32   C34   A    
C40   H11   S    
C62   C63   S    
C44   H22   S    
C62   O14   S    
Cu2   O21   S    
C26   N4    A    
C11   C16   A    
C69   H83   S    
C48   H31   S    
C58   H57   S    
C16   C20   A    
C12   O18   A    
C50   H38   S    
C69   H84   S    
C51   H39   S    
C65   H74   S    
C60   H61   S    
C16   H1    S    
C42   O4    S    
C40   C41   S    
C12   O12   A    
C54   H47   S    
C1    C23   S    
C23   C35   A    
C17   H12   S    
C55   C57   S    
C64   H73   S    
C55   O10   S    
C42   C43   S    
C12   C34   S    
C4    C71   A    
C70   H87   S    
C69   O17   S    
C7    C72   A    
Cu1   O20   S    
C40   H13   S    
C49   H35   S    
Cu2   O19   S    
C52   H41   S    
C60   O13   S    
C41   H14   S    
C66   O16   S    
C55   H50   S    
C13   O2    S    
C8    C71   A    
C46   H26   S    
C11   C22   A    
C64   H72   S    
C36   O24   S    
C3    C67   A    
C39   H8    S    
C14   O3    S    
C68   H82   S    
C53   O9    S    
C57   H53   S    
C66   H79   S    
C29   C56   A    
C37   H4    S    
C59   H60   S    
C51   O8    S    
C13   C17   A    
C33   H67   S    
C64   C65   S    
N2    N4    A    
C39   H9    S    
C66   H77   S    
C38   H7    S    
C9    O23   A    
C19   H34   S    
C28   O6    S    
C20   C26   S    
C1    O1    A    
C50   H37   S    
C43   H19   S    
C33   C34   A    
C15   O4    S    
C70   H86   S    
C5    N5    A    
C4    O15   S    
C65   H75   S    
C69   C70   S    
C9    C22   S    
C3    O14   S    
C47   O6    S    
C7    C67   A    
Cu2   O23   S    
Cu2   O12   S    
C10   C24   S    
C49   C50   S    
C35   H78   S    
C2    C8    A    
C63   H69   S    
C58   H55   S    
C72   O11   S    
C62   H66   S    
C31   H45   S    
C9    O20   A    
Cu1   O1    S    
C63   H71   S    
C40   O3    S    
C42   H17   S    
C23   C31   A    
