data_mof_unit_14701.cif
_audit_creation_date              2012-12-11T15:37:26-0500
_audit_creation_method            fapswitch 2.2
_symmetry_space_group_name_H-M    P1
_symmetry_Int_Tables_number       1
_space_group_crystal_system       triclinic
_cell_length_a                    17.366617
_cell_length_b                    24.406459
_cell_length_c                    14.858375
_cell_angle_alpha                 89.543132
_cell_angle_beta                  125.89539
_cell_angle_gamma                 91.133468
_cell_volume                      5100.75680188

loop_
_atom_site_label
_atom_site_type_symbol
_atom_type_description
_atom_site_fract_x
_atom_site_fract_y
_atom_site_fract_z
_atom_type_partial_charge
C1    C     C_R   0.851077 0.652417 0.910531 -0.093357
C2    C     C_3   0.576041 0.498302 0.652245 -0.228015
C3    C     C_3   0.046894 0.000707 0.532854 0.247940
C4    C     C_3   0.899019 0.000131 0.471575 -0.266452
C5    C     C_3   0.075610 0.998422 0.653197 -0.227066
C6    C     C_R   0.772656 0.231936 0.887656 0.392144
C7    C     C_R   0.357817 0.673057 0.085771 0.309828
C8    C     C_R   0.201994 0.260402 0.000945 0.414775
C9    C     C_R   0.863247 0.779890 0.001612 0.330900
C10   C     C_R   0.272442 0.732093 0.887867 0.389384
C11   C     C_R   0.857847 0.173113 0.085795 0.310910
C12   C     C_R   0.704554 0.760413 0.005482 0.409673
C13   C     C_R   0.188914 0.373079 0.092468 -0.118111
C14   C     C_R   0.365206 0.279737 0.006029 0.331831
C15   C     C_R   0.243475 0.679003 0.889204 0.402286
C16   C     C_R   0.905629 0.219497 0.080410 0.400882
C17   C     C_R   0.754294 0.716450 0.008817 0.454743
C18   C     C_R   0.314344 0.324338 0.003172 0.439026
C19   C     C_R   0.743431 0.178928 0.889192 0.398630
C20   C     C_R   0.405495 0.719561 0.080584 0.401563
C21   C     C_R   0.251806 0.216359 0.004760 0.447729
C22   C     C_R   0.812331 0.824409 0.998977 0.439939
C23   C     C_R   0.266247 0.659354 0.990677 -0.264416
C24   C     C_R   0.192436 0.624266 0.090292 -0.112631
C25   C     C_R   0.852910 0.255108 0.988422 -0.215717
C26   C     C_R   0.833474 0.726752 0.006488 -0.363583
C27   C     C_R   0.233479 0.313521 0.000033 -0.343159
C28   C     C_R   0.766204 0.159448 0.990785 -0.262885
C29   C     C_R   0.352710 0.755213 0.988660 -0.219501
C30   C     C_R   0.333127 0.226595 0.006691 -0.364378
C31   C     C_R   0.733833 0.813520 0.000552 -0.344852
C32   C     C_R   0.865286 0.450137 0.446830 0.325844
C33   C     C_R   0.877095 0.548910 0.358575 0.319212
C34   C     C_R   0.876391 0.449548 0.359959 0.317802
C35   C     C_R   0.855875 0.346062 0.907980 -0.049952
C36   C     C_R   0.866936 0.548703 0.446241 0.339284
C37   C     C_R   0.349171 0.012257 0.432262 0.339344
C38   C     C_R   0.524246 0.987607 0.469403 0.332185
C39   C     C_R   0.354769 0.010563 0.341871 0.322927
C40   C     C_R   0.518744 0.989611 0.558626 0.335546
C41   C     C_R   0.897424 0.499269 0.328473 -0.094484
C42   C     C_R   0.881639 0.499602 0.504055 -0.072298
C43   C     C_R   0.442576 0.999014 0.363221 -0.189475
C44   C     C_R   0.430514 0.999658 0.537498 -0.190512
C45   C     C_R   0.940305 0.348218 0.090502 0.534067
C46   C     C_R   0.350891 0.152363 0.910625 -0.089323
C47   C     C_R   0.092608 0.627765 0.905161 0.495577
C48   C     C_R   0.092437 0.372512 0.906098 0.550474
C49   C     C_R   0.945415 0.650195 0.095002 0.491179
C50   C     C_R   0.440199 0.848301 0.090605 0.514684
C51   C     C_R   0.592538 0.128031 0.905316 0.505440
C52   C     C_R   0.592386 0.872270 0.906246 0.570707
C53   C     C_R   0.444961 0.149979 0.095168 0.478732
C54   C     C_R   0.982619 0.545571 0.251399 -0.059733
C55   C     C_R   0.942607 0.454545 0.691256 -0.023940
C56   C     C_R   0.943930 0.545450 0.691503 -0.023258
C57   C     C_R   0.689023 0.873208 0.092618 -0.122399
C58   C     C_R   0.982380 0.453933 0.252175 -0.058587
C59   C     C_R   0.481878 0.045634 0.249862 -0.039615
C60   C     C_R   0.444883 0.954456 0.692907 0.016003
C61   C     C_R   0.447262 0.045762 0.693559 -0.018821
C62   C     C_R   0.480605 0.953534 0.248857 -0.041894
C63   C     C_R   0.731873 0.454059 0.757119 0.446810
C64   C     C_R   0.259555 0.545359 0.303157 0.462630
C65   C     C_R   0.258545 0.455155 0.302709 0.447840
C66   C     C_R   0.732342 0.544382 0.757350 0.450136
C67   C     C_R   0.231759 0.954140 0.757086 0.443750
C68   C     C_R   0.692478 0.124216 0.090422 -0.111675
C69   C     C_R   0.758647 0.045283 0.304199 0.468491
C70   C     C_R   0.757532 0.955135 0.303716 0.454674
C71   C     C_R   0.232261 0.044432 0.756986 0.451560
C72   C     C_R   0.882042 0.681322 0.004632 0.056098
C73   C     C_R   0.181159 0.357827 0.998513 0.118036
C74   C     C_R   0.187812 0.637657 0.995496 -0.009021
C75   C     C_R   0.879519 0.314355 0.997162 0.054655
C76   C     C_R   0.381585 0.181128 0.004831 0.058227
C77   C     C_R   0.681227 0.857757 0.998746 0.120627
C78   C     C_R   0.687801 0.137773 0.995679 -0.006879
C79   C     C_R   0.355864 0.846056 0.908077 -0.049389
C80   C     C_R   0.379399 0.814423 0.997325 0.055692
C81   C     C_R   0.949649 0.499506 0.276559 0.138905
C82   C     C_R   0.921452 0.499928 0.624146 0.113511
C83   C     C_R   0.452458 0.999243 0.275376 0.211951
C84   C     C_R   0.428370 0.000095 0.630888 0.209998
C85   C     C_R   0.676835 0.498658 0.738491 0.084750
C86   C     C_R   0.310377 0.500427 0.362051 0.128018
C87   C     C_R   0.176748 0.998778 0.738451 0.086703
C88   C     C_R   0.808630 0.000341 0.364171 0.133569
C89   C     C_3   0.500197 0.453175 0.616059 0.361389
C90   C     C_3   0.400485 0.500243 0.469334 -0.267547
C91   C     C_3   0.476654 0.545178 0.506073 0.357279
C92   C     C_3   0.474067 0.456368 0.498329 0.335003
C93   C     C_3   0.502819 0.542236 0.623897 0.344378
C94   C     C_3   0.999748 0.953578 0.618934 0.355933
C95   C     C_3   0.975326 0.044794 0.506593 0.349087
C96   C     C_3   0.972226 0.955958 0.500526 0.330662
C97   C     C_3   0.002869 0.042650 0.625062 0.343061
C98   C     C_3   0.426083 0.497039 0.587877 0.277075
C99   C     C_3   0.548755 0.501392 0.532503 0.246115
C100  C     C_3   0.926065 0.997752 0.590892 0.288288
Cl1   Cl    Cl    0.342834 0.494384 0.621026 -0.486518
Cl2   Cl    Cl    0.915269 0.129640 0.202814 -0.551015
Cl3   Cl    Cl    0.604334 0.747863 0.007018 -0.494330
Cl4   Cl    Cl    0.467627 0.289088 0.007839 -0.575584
Cl5   Cl    Cl    0.625705 0.503942 0.489530 -0.518418
Cl6   Cl    Cl    0.844838 0.996179 0.627017 -0.486166
Cl7   Cl    Cl    0.122374 0.002270 0.488027 -0.504571
Cl8   Cl    Cl    0.696355 0.266686 0.760542 -0.499870
Cl9   Cl    Cl    0.415272 0.629479 0.202629 -0.543557
Cl10  Cl    Cl    0.099495 0.247952 0.997960 -0.495261
Cl11  Cl    Cl    0.963019 0.789335 0.998227 -0.582932
Cl12  Cl    Cl    0.195788 0.766990 0.761026 -0.504905
H1    H     H_    0.810456 0.668963 0.827687 0.179559
H2    H     H_    0.921291 0.412870 0.663848 0.232054
H3    H     H_    0.925043 0.587076 0.664480 0.235984
H4    H     H_    0.975641 0.411991 0.267300 0.213972
H5    H     H_    0.477015 0.087211 0.269585 0.175404
H6    H     H_    0.425682 0.912975 0.661543 0.165631
H7    H     H_    0.431711 0.087327 0.663369 0.186042
H8    H     H_    0.475367 0.912060 0.269689 0.163558
H9    H     H_    0.952879 0.308415 0.208986 0.342837
H10   H     H_    0.068253 0.689985 0.813462 0.368993
H11   H     H_    0.097580 0.337717 0.793863 0.336229
H12   H     H_    0.246225 0.363782 0.177304 0.188246
H13   H     H_    0.994475 0.707154 0.205995 0.351151
H14   H     H_    0.452389 0.808526 0.208925 0.335182
H15   H     H_    0.568914 0.190854 0.815134 0.367247
H16   H     H_    0.597258 0.836854 0.794331 0.336942
H17   H     H_    0.492999 0.206539 0.206747 0.351712
H18   H     H_    0.738741 0.387625 0.695376 0.333231
H19   H     H_    0.210761 0.616288 0.296527 0.335121
H20   H     H_    0.206115 0.384108 0.296259 0.338368
H21   H     H_    0.738889 0.609749 0.690482 0.325854
H22   H     H_    0.238420 0.887532 0.695703 0.329188
H23   H     H_    0.252947 0.628599 0.175235 0.215341
H24   H     H_    0.709758 0.116432 0.295775 0.335845
H25   H     H_    0.704528 0.883973 0.295229 0.339956
H26   H     H_    0.239166 0.109803 0.690396 0.322979
H27   H     H_    0.453769 0.383886 0.628923 0.372953
H28   H     H_    0.525984 0.613696 0.494191 0.379108
H29   H     H_    0.519037 0.390461 0.475657 0.378895
H30   H     H_    0.460790 0.608379 0.649604 0.370929
H31   H     H_    0.953574 0.884791 0.634252 0.372389
H32   H     H_    0.024668 0.112829 0.492785 0.379611
H33   H     H_    0.016579 0.889514 0.478714 0.378589
H34   H     H_    0.836160 0.330298 0.829633 0.189090
H35   H     H_    0.961796 0.109326 0.650368 0.372515
H36   H     H_    0.185669 0.610935 0.809620 0.345943
H37   H     H_    0.030701 0.199590 0.212406 0.384726
H38   H     H_    0.762683 0.635713 0.016254 0.331854
H39   H     H_    0.398758 0.380317 0.007016 0.387817
H40   H     H_    0.684991 0.110893 0.809690 0.349654
H41   H     H_    0.530567 0.699726 0.212670 0.385961
H42   H     H_    0.260470 0.135669 0.013453 0.328393
H43   H     H_    0.892727 0.880447 0.995022 0.385803
H44   H     H_    0.794639 0.381100 0.406636 0.365131
H45   H     H_    0.310243 0.168958 0.827822 0.177730
H46   H     H_    0.890366 0.627857 0.354552 0.352763
H47   H     H_    0.888814 0.370745 0.359070 0.343268
H48   H     H_    0.798753 0.617041 0.406131 0.368012
H49   H     H_    0.230347 0.051411 0.357279 0.360433
H50   H     H_    0.643553 0.948849 0.545242 0.365777
H51   H     H_    0.218631 0.007820 0.226074 0.357184
H52   H     H_    0.655138 0.996895 0.673241 0.367978
H53   H     H_    0.746425 0.864136 0.177562 0.187635
H54   H     H_    0.753017 0.128334 0.175424 0.214982
H55   H     H_    0.336110 0.830222 0.829752 0.186604
H56   H     H_    0.975945 0.587684 0.264411 0.220491
N1    N     N_R   0.892620 0.603790 0.941800 -0.099577
N2    N     N_R   0.047790 0.602400 0.942090 -0.079090
N3    N     N_R   0.047790 0.397600 0.942090 -0.091292
N4    N     N_R   0.952210 0.602400 0.057910 -0.096970
N5    N     N_R   0.452210 0.897600 0.057910 -0.102474
N6    N     N_R   0.547790 0.102400 0.942090 -0.079623
N7    N     N_R   0.547790 0.897600 0.942090 -0.093992
N8    N     N_R   0.452210 0.102400 0.057910 -0.097696
N9    N     N_R   0.026300 0.529110 0.206760 -0.068938
N10   N     N_R   0.973700 0.470890 0.793240 -0.077908
N11   N     N_R   0.973700 0.529110 0.793240 -0.079233
N12   N     N_R   0.107380 0.396210 0.058200 -0.089901
N13   N     N_R   0.026300 0.470890 0.206760 -0.069363
N14   N     N_R   0.526300 0.029110 0.206760 -0.064555
N15   N     N_R   0.473700 0.970890 0.793240 -0.072472
N16   N     N_R   0.473700 0.029110 0.793240 -0.075133
N17   N     N_R   0.526300 0.970890 0.206760 -0.059660
N18   N     N_R   0.818530 0.472270 0.792960 -0.144843
N19   N     N_R   0.181470 0.527730 0.207040 -0.153179
N20   N     N_R   0.181470 0.472270 0.207040 -0.151879
N21   N     N_R   0.818530 0.527730 0.792960 -0.139703
N22   N     N_R   0.318530 0.972270 0.792960 -0.149033
N23   N     N_R   0.107380 0.603790 0.058200 -0.087950
N24   N     N_R   0.681470 0.027730 0.207040 -0.154458
N25   N     N_R   0.681470 0.972270 0.207040 -0.152676
N26   N     N_R   0.318530 0.027730 0.792960 -0.142622
N27   N     N_R   0.892620 0.396210 0.941800 -0.109057
N28   N     N_R   0.392620 0.103790 0.941800 -0.100329
N29   N     N_R   0.607380 0.896210 0.058200 -0.089940
N30   N     N_R   0.607380 0.103790 0.058200 -0.088943
N31   N     N_R   0.392620 0.896210 0.941800 -0.109943
N32   N     N_R   0.952210 0.397600 0.057910 -0.100823
Ni1   Ni    Ni4+2 0.934150 0.565840 0.869060 0.240999
Ni2   Ni    Ni4+2 0.065850 0.434160 0.130940 0.263021
Ni3   Ni    Ni4+2 0.065850 0.565840 0.130940 0.257124
Ni4   Ni    Ni4+2 0.934150 0.434160 0.869060 0.241052
Ni5   Ni    Ni4+2 0.434150 0.065840 0.869060 0.237855
Ni6   Ni    Ni4+2 0.565850 0.934160 0.130940 0.270608
Ni7   Ni    Ni4+2 0.565850 0.065840 0.130940 0.263666
Ni8   Ni    Ni4+2 0.434150 0.934160 0.869060 0.235037
O1    O     O_3   0.994475 0.332260 0.199511 -0.717349
O2    O     O_3   0.269574 0.595884 0.349618 -0.669127
O3    O     O_3   0.266372 0.404620 0.348772 -0.678030
O4    O     O_3   0.696268 0.594302 0.708583 -0.709858
O5    O     O_3   0.195562 0.903085 0.712011 -0.659950
O6    O     O_3   0.768082 0.095917 0.349989 -0.664339
O7    O     O_3   0.764353 0.904535 0.349070 -0.672408
O8    O     O_3   0.196259 0.094329 0.708046 -0.708425
O9    O     O_3   0.514397 0.405012 0.675103 -0.595113
O10   O     O_3   0.464245 0.593608 0.448431 -0.596430
O11   O     O_3   0.459165 0.411192 0.432170 -0.633476
O12   O     O_3   0.043083 0.651979 0.802489 -0.727428
O13   O     O_3   0.520159 0.587158 0.691597 -0.609537
O14   O     O_3   0.014451 0.905785 0.679147 -0.597674
O15   O     O_3   0.962738 0.092875 0.447941 -0.598050
O16   O     O_3   0.956741 0.910276 0.435205 -0.635198
O17   O     O_3   0.021097 0.088040 0.692119 -0.606758
O18   O     O_3   0.187103 0.649905 0.790990 -0.631042
O19   O     O_3   0.001591 0.229937 0.158574 -0.642336
O20   O     O_3   0.722221 0.664622 0.012914 -0.624076
O21   O     O_3   0.339890 0.378397 0.002848 -0.684512
O22   O     O_3   0.686575 0.149838 0.791018 -0.632363
O23   O     O_3   0.049156 0.355608 0.798261 -0.753115
O24   O     O_3   0.501396 0.730104 0.158920 -0.639044
O25   O     O_3   0.217744 0.164519 0.005079 -0.629919
O26   O     O_3   0.835600 0.878453 0.994455 -0.682145
O27   O     O_3   0.835402 0.404186 0.473884 -0.724485
O28   O     O_3   0.867440 0.596476 0.302378 -0.723989
O29   O     O_3   0.867035 0.401499 0.305915 -0.741208
O30   O     O_3   0.839644 0.594651 0.473658 -0.715635
O31   O     O_3   0.268057 0.026999 0.422191 -0.662561
O32   O     O_3   0.607530 0.974730 0.482518 -0.682298
O33   O     O_3   0.277318 0.018398 0.233235 -0.701880
O34   O     O_3   0.009985 0.668772 0.202141 -0.744938
O35   O     O_3   0.597946 0.983850 0.667319 -0.715791
O36   O     O_3   0.493986 0.832530 0.199729 -0.715789
O37   O     O_3   0.542858 0.153032 0.803399 -0.732912
O38   O     O_3   0.548865 0.854799 0.798712 -0.754020
O39   O     O_3   0.508789 0.168261 0.202670 -0.742999
O40   O     O_3   0.695768 0.403051 0.711635 -0.658780

loop_
_geom_bond_atom_site_label_1
_geom_bond_atom_site_label_2
_ccdc_geom_bond_type
C9    Cl11  S    
C97   O17   S    
C62   C83   A    
C16   O19   S    
C20   O24   S    
C59   N14   A    
N10   Ni4   S    
C61   H7    S    
C43   C83   S    
C14   C18   A    
C36   C42   A    
N13   Ni2   S    
C42   C82   S    
C70   C88   A    
C97   C100  S    
H31   O14   S    
C46   C76   A    
C5    C94   S    
H35   O17   S    
C67   N22   A    
C65   C86   A    
H33   O16   S    
C45   N32   A    
C63   O40   S    
C34   C41   A    
C35   C75   A    
H22   O5    S    
H10   O12   S    
C58   N13   A    
C17   C26   A    
N8    Ni7   S    
C51   O37   S    
C68   C78   A    
C59   C83   A    
N12   Ni2   S    
C10   C15   A    
H17   O39   S    
C17   O20   S    
C7    C23   A    
C9    C22   A    
C37   O31   S    
C6    C25   A    
N5    N31   A    
H11   O23   S    
H44   O27   S    
C71   O8    S    
C48   N3    A    
C66   N21   A    
N19   Ni3   S    
N28   Ni5   S    
C33   C36   A    
H50   O32   S    
C2    C85   S    
C68   N30   A    
N14   Ni7   S    
C1    N1    A    
N3    Ni4   S    
C34   O29   S    
N7    N29   A    
N2    Ni1   S    
H46   O28   S    
C4    C88   S    
C22   O26   S    
C48   O23   S    
C90   C92   S    
C21   O25   S    
N11   Ni1   S    
C61   N16   A    
C49   C72   A    
C12   C17   A    
N6    Ni5   S    
N9    Ni3   S    
H41   O24   S    
C10   Cl12  S    
N5    Ni6   S    
H15   O37   S    
H9    O1    S    
C24   N23   A    
C28   C78   S    
H30   O13   S    
C62   H8    S    
C35   N27   A    
C92   O11   S    
C60   N15   A    
C15   C23   A    
C65   N20   A    
C59   H5    S    
C4    C96   S    
C8    Cl10  S    
H25   O7    S    
C58   H4    S    
N15   Ni8   S    
C64   O2    S    
N29   Ni6   S    
H20   O3    S    
N23   Ni3   S    
N7    Ni8   S    
C14   C30   A    
N17   Ni6   S    
C69   N24   A    
C64   C86   A    
C9    C26   A    
C49   O34   S    
H24   O6    S    
C20   C29   A    
C36   O30   S    
C99   Cl5   S    
C66   C85   A    
N6    N30   A    
C1    C72   A    
H38   O20   S    
C22   C31   A    
C69   O6    S    
C15   O18   S    
C64   N19   A    
N10   N11   A    
H36   O18   S    
C12   Cl3   S    
C86   C90   S    
C58   C81   A    
C54   H56   S    
C96   O16   S    
C13   H12   S    
H18   O40   S    
C71   N26   A    
C39   C43   A    
N27   Ni4   S    
H43   O26   S    
C3    Cl7   S    
C46   H45   S    
N1    Ni1   S    
N2    N23   A    
C61   C84   A    
H40   O22   S    
C95   O15   S    
N16   Ni5   S    
C7    Cl9   S    
C52   O38   S    
C25   C75   S    
C35   H34   S    
C32   C34   A    
C37   C39   A    
C2    C89   S    
C94   C96   S    
N15   N16   A    
C53   O39   S    
C6    C19   A    
C57   C77   A    
C91   C93   S    
C4    C95   S    
C30   C76   S    
C11   C16   A    
H27   O9    S    
C14   Cl4   S    
C94   C100  S    
C63   N18   A    
C41   C81   S    
H19   O2    S    
C8    C21   A    
H47   O29   S    
N18   Ni4   S    
H13   O34   S    
C26   C72   S    
N8    N28   A    
C89   C92   S    
C60   H6    S    
C19   C28   A    
C33   O28   S    
C52   N7    A    
C3    C96   S    
C69   C88   A    
H48   O30   S    
C62   N17   A    
C71   C87   A    
C24   H23   S    
N22   Ni8   S    
C5    C97   S    
C2    C99   S    
C51   N6    A    
C4    C100  S    
C12   C31   A    
H14   O36   S    
H37   O19   S    
N4    Ni3   S    
C38   C43   A    
N3    N12   A    
N21   Ni1   S    
C53   C76   A    
C70   O7    S    
C23   C74   S    
C66   O4    S    
C52   C77   A    
C13   N12   A    
C79   H55   S    
C47   N2    A    
N27   N32   A    
C21   C30   A    
H28   O10   S    
C16   C25   A    
H21   O4    S    
N26   Ni5   S    
H26   O8    S    
C31   C77   S    
C32   C42   A    
N25   Ni6   S    
C79   N31   A    
C57   N29   A    
N30   Ni7   S    
C67   C87   A    
C48   C73   A    
C2    C93   S    
C18   C27   A    
C47   C74   A    
C13   C73   A    
C55   N10   A    
C3    C5    S    
C18   O21   S    
C50   C80   A    
C49   N4    A    
C93   O13   S    
C95   C97   S    
C56   C82   A    
H49   O31   S    
C55   H2    S    
C100  Cl6   S    
C98   Cl1   S    
C47   O12   S    
C50   O36   S    
H32   O15   S    
C54   N9    A    
C44   C84   S    
C89   C98   S    
C45   C75   A    
C33   C41   A    
N24   N25   A    
C91   O10   S    
C51   C78   A    
H16   O38   S    
N19   N20   A    
C55   C82   A    
H29   O11   S    
C38   C40   A    
C60   C84   A    
C10   C29   A    
C24   C74   A    
C90   C91   S    
H39   O21   S    
C29   C80   S    
C11   C28   A    
N18   N21   A    
C70   N25   A    
N9    N13   A    
H42   O25   S    
N20   Ni2   S    
N31   Ni8   S    
N1    N4    A    
C56   H3    S    
C90   C98   S    
H51   O33   S    
C11   Cl2   S    
C1    H1    S    
C19   O22   S    
C45   O1    S    
N24   Ni7   S    
C65   O3    S    
C40   O35   S    
C67   O5    S    
N22   N26   A    
C38   O32   S    
C79   C80   A    
C5    C87   S    
C37   C44   A    
C40   C44   A    
C57   H53   S    
C92   C99   S    
N32   Ni2   S    
C7    C20   A    
C89   O9    S    
C46   N28   A    
C94   O14   S    
C8    C27   A    
C6    Cl8   S    
C3    C95   S    
C91   C99   S    
C27   C73   S    
H52   O35   S    
C93   C98   S    
N14   N17   A    
C54   C81   A    
C63   C85   A    
C56   N11   A    
C53   N8    A    
C50   N5    A    
C39   O33   S    
C32   O27   S    
C68   H54   S    
