data_mof_unit_20233.cif
_audit_creation_date              2012-12-10T20:53:10-0500
_audit_creation_method            fapswitch 2.2
_symmetry_space_group_name_H-M    P1
_symmetry_Int_Tables_number       1
_space_group_crystal_system       triclinic
_cell_length_a                    18.902132
_cell_length_b                    19.015109
_cell_length_c                    18.837464
_cell_angle_alpha                 57.928336
_cell_angle_beta                  58.102476
_cell_angle_gamma                 57.843341
_cell_volume                      4563.23809918

loop_
_atom_site_label
_atom_site_type_symbol
_atom_type_description
_atom_site_fract_x
_atom_site_fract_y
_atom_site_fract_z
_atom_type_partial_charge
C1    C     C_R   0.391567 0.106902 0.113357 0.781170
C2    C     C_R   0.351574 0.825977 0.835767 -0.251778
C3    C     C_R   0.002085 0.586986 0.940304 0.071485
C4    C     C_R   0.410040 0.994535 0.066887 0.077009
C5    C     C_R   0.591868 0.941156 0.998957 0.072037
C6    C     C_R   0.933102 0.958776 0.550657 -0.199307
C7    C     C_R   0.040215 0.066838 0.449118 -0.199976
C8    C     C_R   0.961373 0.548859 0.931842 -0.207647
C9    C     C_R   0.040321 0.453828 0.065772 -0.212277
C10   C     C_R   0.550460 0.927969 0.964569 -0.203810
C11   C     C_R   0.450089 0.037760 0.070194 -0.196453
C12   C     C_3   0.122079 0.765699 0.038073 -0.457014
C13   C     C_R   0.176018 0.165383 0.652757 -0.251861
C14   C     C_3   0.186963 0.721191 0.967520 -0.278287
C15   C     C_3   0.179588 0.784278 0.875444 -0.867703
C16   C     C_3   0.890465 0.226018 0.957498 -0.436136
C17   C     C_3   0.819428 0.264633 0.031839 -0.303399
C18   C     C_3   0.829944 0.199976 0.122588 -0.893925
C19   C     C_3   0.765488 0.036856 0.117045 -0.458007
C20   C     C_3   0.717427 0.969624 0.178327 -0.276213
C21   C     C_3   0.779384 0.877753 0.172178 -0.861117
C22   C     C_3   0.233741 0.959213 0.881561 -0.450795
C23   C     C_3   0.282427 0.025832 0.819028 -0.285986
C24   C     C_R   0.825370 0.835633 0.346250 -0.253761
C25   C     C_3   0.224869 0.116482 0.828821 -0.885123
C26   C     C_3   0.039972 0.123860 0.767605 -0.460581
C27   C     C_3   0.971820 0.184092 0.719402 -0.274613
C28   C     C_3   0.880715 0.174808 0.780248 -0.853177
C29   C     C_3   0.962040 0.875816 0.231193 -0.455026
C30   C     C_3   0.029530 0.806276 0.279643 -0.290838
C31   C     C_3   0.123212 0.809942 0.222759 -0.887731
C32   C     C_3   0.905788 0.621727 0.307742 -0.368507
C33   C     C_3   0.914923 0.534331 0.312561 -0.340364
C34   C     C_3   0.824037 0.529994 0.344394 -0.792656
C35   C     C_R   0.141748 0.593214 0.264294 0.451617
C36   C     C_3   0.079476 0.409664 0.687221 -0.365906
C37   C     C_3   0.135170 0.377019 0.742540 -0.354476
C38   C     C_3   0.202626 0.423370 0.692109 -0.781358
C39   C     C_3   0.622486 0.318445 0.905821 -0.362914
C40   C     C_3   0.533620 0.327364 0.912788 -0.337606
C41   C     C_3   0.533593 0.350727 0.821765 -0.789596
C42   C     C_3   0.381090 0.685943 0.093627 -0.363849
C43   C     C_3   0.462073 0.695346 0.083064 -0.348573
C44   C     C_3   0.471935 0.657707 0.173095 -0.791845
C45   C     C_3   0.310266 0.910254 0.620920 -0.373122
C46   C     C_R   0.859891 0.400213 0.737147 0.478872
C47   C     C_3   0.312965 0.920380 0.533258 -0.333990
C48   C     C_3   0.340619 0.830572 0.529717 -0.794431
C49   C     C_3   0.693767 0.088327 0.381442 -0.371515
C50   C     C_3   0.735231 0.084227 0.435474 -0.359601
C51   C     C_3   0.691166 0.170154 0.453688 -0.815579
C52   C     C_R   0.595687 0.258626 0.147339 0.396723
C53   C     C_R   0.404531 0.735929 0.856880 0.475342
C54   C     C_R   0.265829 0.142950 0.598564 0.460860
C55   C     C_R   0.735486 0.858034 0.399913 0.470375
C56   C     C_R   0.055457 0.587813 0.310340 -0.059518
C57   C     C_R   0.608497 0.885491 0.894315 0.782880
C58   C     C_R   0.943055 0.412067 0.689556 -0.087782
C59   C     C_R   0.589244 0.310576 0.060796 -0.054189
C60   C     C_R   0.411246 0.687363 0.943138 -0.069207
C61   C     C_R   0.311736 0.058524 0.589683 -0.056047
C62   C     C_R   0.689552 0.942433 0.408915 -0.067632
C63   C     C_R   0.995238 0.632534 0.264353 0.027749
C64   C     C_R   0.001909 0.377098 0.734359 0.056160
C65   C     C_R   0.634332 0.270320 0.995987 0.033859
C66   C     C_R   0.366615 0.730289 0.005466 0.029204
C67   C     C_R   0.266611 0.998700 0.633371 0.029209
C68   C     C_R   0.106950 0.113061 0.391473 0.776933
C69   C     C_R   0.735707 0.001380 0.366569 0.040069
C70   C     C_R   0.017814 0.690398 0.176491 -0.247879
C71   C     C_R   0.984727 0.315667 0.821698 -0.232495
C72   C     C_R   0.694060 0.183317 0.014328 -0.244562
C73   C     C_R   0.306955 0.816878 0.985489 -0.229848
C74   C     C_R   0.179379 0.020451 0.692146 -0.244261
C75   C     C_R   0.823645 0.979076 0.308623 -0.225605
C76   C     C_R   0.101863 0.698302 0.130858 0.112300
C77   C     C_R   0.905226 0.298203 0.867361 0.089802
C78   C     C_R   0.700377 0.131027 0.099338 0.115435
C79   C     C_R   0.887067 0.892541 0.608642 0.779352
C80   C     C_R   0.299145 0.865618 0.901014 0.098595
C81   C     C_R   0.133452 0.103293 0.702168 0.106539
C82   C     C_R   0.868593 0.897069 0.297107 0.095927
C83   C     C_R   0.972657 0.592070 0.462055 -0.175571
C84   C     C_R   0.024384 0.408006 0.538012 -0.191585
C85   C     C_R   0.592376 0.462068 0.982208 -0.259227
C86   C     C_R   0.408481 0.536516 0.023887 -0.204095
C87   C     C_R   0.463517 0.976136 0.591982 -0.180265
C88   C     C_R   0.537398 0.024616 0.407154 -0.164251
C89   C     C_R   0.945041 0.552828 0.554675 -0.000004
C90   C     C_R   0.105871 0.392016 0.114354 0.776973
C91   C     C_R   0.052875 0.447215 0.445376 -0.022243
C92   C     C_R   0.552820 0.554318 0.948825 -0.002826
C93   C     C_R   0.447910 0.444561 0.055547 -0.017066
C94   C     C_R   0.555717 0.946639 0.551854 -0.001745
C95   C     C_R   0.445145 0.054595 0.447366 -0.011796
C96   C     C_R   0.970397 0.459499 0.592630 0.087692
C97   C     C_R   0.025951 0.540647 0.407306 0.093159
C98   C     C_R   0.459465 0.591295 0.971293 0.101288
C99   C     C_R   0.541268 0.407139 0.034725 0.074865
C100  C     C_R   0.593006 0.971233 0.457889 0.077161
C101  C     C_R   0.894880 0.608592 0.884601 0.779100
C102  C     C_R   0.408108 0.029584 0.541107 0.090825
C103  C     C_R   0.109888 0.390203 0.390101 0.858889
C104  C     C_R   0.889755 0.609765 0.609932 0.864336
C105  C     C_R   0.390570 0.389721 0.110235 0.868879
C106  C     C_R   0.609570 0.610011 0.890656 0.868044
C107  C     C_R   0.389810 0.110448 0.390430 0.864890
C108  C     C_R   0.610378 0.890211 0.609368 0.880883
C109  C     C_R   0.011728 0.099028 0.317446 -0.094052
C110  C     C_R   0.883108 0.002341 0.677330 -0.092274
C111  C     C_R   0.979918 0.339854 0.125128 -0.106784
C112  C     C_R   0.164874 0.646127 0.173818 -0.248953
C113  C     C_R   0.011261 0.669658 0.878503 -0.095438
C114  C     C_R   0.324228 0.990965 0.125573 -0.090321
C115  C     C_R   0.680822 0.890727 0.995951 -0.088256
C116  C     C_R   0.011799 0.061853 0.271235 -0.193799
C117  C     C_R   0.912811 0.005671 0.728080 -0.149025
C118  C     C_R   0.962471 0.291167 0.105957 -0.132134
C119  C     C_R   0.017327 0.721782 0.903776 -0.139766
C120  C     C_R   0.274190 0.981058 0.100432 -0.146750
C121  C     C_R   0.730392 0.927932 0.989912 -0.156897
C122  C     C_R   0.997368 0.983003 0.316103 -0.208381
C123  C     C_R   0.840800 0.346043 0.826959 -0.254456
C124  C     C_R   0.993922 0.016125 0.689565 -0.179060
C125  C     C_R   0.962488 0.319826 0.021412 -0.182154
C126  C     C_R   0.024316 0.687743 0.986390 -0.183441
C127  C     C_R   0.311557 0.969178 0.019952 -0.182207
C128  C     C_R   0.688804 0.010299 0.998003 -0.169706
C129  C     C_R   0.976308 0.943429 0.407913 -0.137419
C130  C     C_R   0.038709 0.037019 0.597519 -0.154308
C131  C     C_R   0.957483 0.406134 0.964025 -0.166298
C132  C     C_R   0.038731 0.598078 0.038037 -0.145003
C133  C     C_R   0.402514 0.951492 0.972320 -0.156768
C134  C     C_R   0.648586 0.168474 0.166162 -0.232943
C135  C     C_R   0.596042 0.050105 0.024434 -0.151390
C136  C     C_R   0.972187 0.982609 0.456594 0.066946
C137  C     C_R   0.007897 0.035483 0.544411 0.078075
C138  C     C_R   0.969721 0.459151 0.984648 0.084531
C139  C     C_R   0.030729 0.544457 0.014100 0.083945
C140  C     C_R   0.455556 0.957350 0.999338 0.072439
C141  C     C_R   0.544664 0.011611 0.031888 0.076600
C142  C     C_R   0.007060 0.051685 0.407568 0.080742
C143  C     C_R   0.939271 0.000136 0.590508 0.070115
C144  C     C_R   0.997151 0.417640 0.058792 0.086728
H1    H     H_    0.018595 0.012920 0.731189 0.151109
H2    H     H_    0.337156 0.566163 0.040154 0.143679
H3    H     H_    0.246587 0.413738 0.626889 0.300847
H4    H     H_    0.091891 0.390819 0.805493 0.213937
H5    H     H_    0.170960 0.304823 0.758641 0.246827
H6    H     H_    0.123617 0.391747 0.626368 0.251204
H7    H     H_    0.051590 0.483206 0.665197 0.196749
H8    H     H_    0.547825 0.412920 0.774261 0.288731
H9    H     H_    0.584572 0.296393 0.794802 0.259589
H10   H     H_    0.467362 0.360149 0.828502 0.236925
H11   H     H_    0.520443 0.264404 0.958186 0.219304
H12   H     H_    0.478693 0.380410 0.939759 0.221636
H13   H     H_    0.434090 0.957793 0.663693 0.140340
H14   H     H_    0.627338 0.384975 0.874278 0.259645
H15   H     H_    0.677039 0.280888 0.860566 0.230827
H16   H     H_    0.412358 0.694033 0.217466 0.269762
H17   H     H_    0.480475 0.586256 0.205362 0.298409
H18   H     H_    0.531340 0.664977 0.163293 0.231370
H19   H     H_    0.523426 0.659333 0.039743 0.208583
H20   H     H_    0.455015 0.766298 0.051695 0.239849
H21   H     H_    0.321545 0.717116 0.142228 0.227941
H22   H     H_    0.389996 0.614817 0.122106 0.256181
H23   H     H_    0.407172 0.787164 0.536489 0.288830
H24   H     H_    0.566548 0.042290 0.335583 0.142864
H25   H     H_    0.291396 0.797866 0.584128 0.261109
H26   H     H_    0.343795 0.839923 0.464811 0.234746
H27   H     H_    0.246534 0.962168 0.526055 0.222045
H28   H     H_    0.361432 0.952468 0.476086 0.216612
H29   H     H_    0.378831 0.877207 0.622462 0.254029
H30   H     H_    0.272700 0.865730 0.676995 0.226508
H31   H     H_    0.619310 0.182009 0.493311 0.271634
H32   H     H_    0.698761 0.226905 0.389908 0.288933
H33   H     H_    0.723267 0.165394 0.492033 0.237933
H34   H     H_    0.727682 0.028343 0.500125 0.234736
H35   H     H_    0.015779 0.164323 0.281630 0.154333
H36   H     H_    0.807168 0.073264 0.398040 0.243226
H37   H     H_    0.703939 0.142498 0.315901 0.238953
H38   H     H_    0.621012 0.105724 0.417132 0.253046
H39   H     H_    0.817977 0.997569 0.707950 0.160041
H40   H     H_    0.982761 0.315399 0.190485 0.121843
H41   H     H_    0.007427 0.696997 0.812990 0.149058
H42   H     H_    0.294138 0.998857 0.189400 0.156289
H43   H     H_    0.713758 0.824500 0.993656 0.160601
H44   H     H_    0.025956 0.091794 0.200136 0.126396
H45   H     H_    0.998490 0.955662 0.279093 0.174911
H46   H     H_    0.874132 0.997479 0.797754 0.129444
H47   H     H_    0.952113 0.230365 0.155297 0.128135
H48   H     H_    0.012709 0.789570 0.860818 0.132290
H49   H     H_    0.205550 0.986562 0.141216 0.137581
H50   H     H_    0.801305 0.893922 0.976569 0.124915
H51   H     H_    0.966494 0.881731 0.437500 0.177211
H52   H     H_    0.097767 0.050581 0.571792 0.178230
H53   H     H_    0.951121 0.427042 0.901603 0.181603
H54   H     H_    0.047570 0.574890 0.099790 0.175853
H55   H     H_    0.427704 0.936156 0.914410 0.181348
H56   H     H_    0.020369 0.731191 0.008794 0.154149
H57   H     H_    0.567793 0.111073 0.035518 0.175934
H58   H     H_    0.230110 0.651312 0.138311 0.161443
H59   H     H_    0.777847 0.335989 0.863936 0.157751
H60   H     H_    0.654906 0.128752 0.231235 0.157197
H61   H     H_    0.346349 0.863876 0.770195 0.157319
H62   H     H_    0.140392 0.229525 0.660364 0.170411
H63   H     H_    0.860779 0.771629 0.338862 0.159052
H64   H     H_    0.968634 0.730555 0.144194 0.133763
H65   H     H_    0.032965 0.280754 0.854356 0.136046
H66   H     H_    0.737058 0.157325 0.960844 0.127436
H67   H     H_    0.965304 0.275531 0.001047 0.165065
H68   H     H_    0.265563 0.845475 0.037156 0.138053
H69   H     H_    0.148101 0.971280 0.731680 0.132904
H70   H     H_    0.856766 0.026607 0.271863 0.149384
H71   H     H_    0.110424 0.813036 0.877295 0.235272
H72   H     H_    0.199551 0.840233 0.851196 0.251441
H73   H     H_    0.222802 0.748240 0.827638 0.288848
H74   H     H_    0.255238 0.698921 0.964021 0.213853
H75   H     H_    0.175952 0.660909 0.986238 0.236293
H76   H     H_    0.059329 0.813523 0.023819 0.188042
H77   H     H_    0.150280 0.806336 0.034075 0.199614
H78   H     H_    0.729257 0.039537 0.988588 0.145259
H79   H     H_    0.788605 0.234384 0.171620 0.282713
H80   H     H_    0.809356 0.144495 0.146964 0.256071
H81   H     H_    0.899925 0.171127 0.118873 0.237662
H82   H     H_    0.821144 0.328511 0.017224 0.227882
H83   H     H_    0.753192 0.280588 0.034617 0.214088
H84   H     H_    0.869708 0.181408 0.957359 0.199383
H85   H     H_    0.954445 0.183428 0.970330 0.187078
H86   H     H_    0.808303 0.879913 0.102804 0.241298
H87   H     H_    0.835241 0.852117 0.193900 0.249843
H88   H     H_    0.741957 0.831513 0.214788 0.287200
H89   H     H_    0.269743 0.972135 0.995926 0.155819
H90   H     H_    0.692030 0.965244 0.247944 0.212948
H91   H     H_    0.659166 0.991277 0.161560 0.240113
H92   H     H_    0.811737 0.024833 0.053087 0.190655
H93   H     H_    0.808033 0.026328 0.147916 0.201211
H94   H     H_    0.162421 0.143223 0.816747 0.256126
H95   H     H_    0.207929 0.112680 0.896556 0.250333
H96   H     H_    0.262920 0.161885 0.779498 0.283150
H97   H     H_    0.343954 0.001964 0.831296 0.221660
H98   H     H_    0.302844 0.032770 0.749662 0.218271
H99   H     H_    0.192116 0.967322 0.851160 0.200105
H100  H     H_    0.953146 0.663342 0.432019 0.138158
H101  H     H_    0.186428 0.972753 0.944646 0.191071
H102  H     H_    0.885893 0.104550 0.814167 0.231696
H103  H     H_    0.850116 0.202457 0.832631 0.248524
H104  H     H_    0.836545 0.210385 0.740706 0.289031
H105  H     H_    0.965159 0.253547 0.695399 0.214683
H106  H     H_    0.994819 0.169342 0.659485 0.234628
H107  H     H_    0.027208 0.061090 0.816659 0.189400
H108  H     H_    0.032796 0.155928 0.806971 0.202100
H109  H     H_    0.145369 0.803498 0.158750 0.251800
H110  H     H_    0.126403 0.873104 0.207797 0.242772
H111  H     H_    0.044537 0.336676 0.568208 0.143044
H112  H     H_    0.169796 0.755041 0.258915 0.291619
H113  H     H_    0.008711 0.812956 0.343495 0.218381
H114  H     H_    0.031159 0.740615 0.297517 0.218029
H115  H     H_    0.966043 0.850991 0.187169 0.200106
H116  H     H_    0.978629 0.937118 0.185853 0.190820
H117  H     H_    0.221679 0.471313 0.453086 0.408932
H118  H     H_    0.760863 0.528797 0.559724 0.405886
H119  H     H_    0.638844 0.369570 0.171005 0.342549
H120  H     H_    0.524657 0.558277 0.762730 0.404307
H121  H     H_    0.449707 0.220894 0.502787 0.405796
H122  H     H_    0.663870 0.432066 0.965961 0.150055
H123  H     H_    0.553365 0.768745 0.526989 0.407001
H124  H     H_    0.783348 0.536011 0.411435 0.288426
H125  H     H_    0.788456 0.584131 0.296869 0.262468
H126  H     H_    0.832736 0.465529 0.348539 0.232466
H127  H     H_    0.954105 0.527499 0.245892 0.216734
H128  H     H_    0.949727 0.477669 0.359607 0.217023
H129  H     H_    0.872547 0.624628 0.375826 0.255198
H130  H     H_    0.861602 0.677277 0.268879 0.224577
H131  H     H_    0.167682 0.495474 0.680516 0.240063
H132  H     H_    0.244343 0.395599 0.732183 0.244671
O1    O     O_3   0.250000 0.250000 0.250000 -0.494811
O2    O     O_R   0.865800 0.694910 0.573470 -0.635444
O3    O     O_R   0.305090 0.426530 0.134200 -0.629420
O4    O     O_R   0.694910 0.573470 0.865800 -0.628670
O5    O     O_R   0.426530 0.134200 0.305090 -0.633748
O6    O     O_R   0.573470 0.865800 0.694910 -0.634158
O7    O     O_R   0.134190 0.426530 0.134200 -0.672897
O8    O     O_R   0.865810 0.573470 0.865800 -0.665795
O9    O     O_R   0.426530 0.134200 0.134190 -0.674838
O10   O     O_R   0.573470 0.865800 0.865810 -0.676409
O11   O     O_R   0.134200 0.134190 0.426530 -0.675212
O12   O     O_3   0.750000 0.750000 0.750000 -0.494823
O13   O     O_R   0.865800 0.865810 0.573470 -0.676974
O14   O     O_R   0.426530 0.305080 0.134210 -0.643323
O15   O     O_R   0.573470 0.694920 0.865790 -0.643286
O16   O     O_R   0.305080 0.134210 0.426530 -0.643563
O17   O     O_R   0.694920 0.865790 0.573470 -0.642157
O18   O     O_R   0.134210 0.426530 0.305080 -0.639637
O19   O     O_R   0.865790 0.573470 0.694920 -0.640366
O20   O     O_2   0.277919 0.447834 0.304204 -0.222612
O21   O     O_2   0.280452 0.587036 0.277351 -0.343619
O22   O     O_3   0.174113 0.518294 0.427683 -0.584740
O23   O     O_R   0.305080 0.134200 0.134200 -0.632783
O24   O     O_2   0.745155 0.382346 0.710812 -0.373538
O25   O     O_2   0.701257 0.520274 0.727908 -0.266032
O26   O     O_3   0.814224 0.498569 0.576796 -0.556969
O27   O     O_2   0.467636 0.387490 0.220139 -0.246794
O28   O     O_2   0.516118 0.236613 0.321118 -0.268822
O29   O     O_3   0.622307 0.324883 0.230747 -0.577228
O30   O     O_2   0.396059 0.718125 0.730059 -0.378692
O31   O     O_2   0.536630 0.718378 0.705061 -0.257557
O32   O     O_3   0.496802 0.576280 0.814938 -0.557118
O33   O     O_2   0.309801 0.277392 0.454134 -0.230320
O34   O     O_R   0.694920 0.865800 0.865800 -0.645670
O35   O     O_2   0.274663 0.279201 0.598159 -0.376006
O36   O     O_3   0.427253 0.171688 0.533093 -0.572509
O37   O     O_2   0.713109 0.736081 0.389978 -0.369642
O38   O     O_2   0.715552 0.707739 0.531422 -0.262147
O39   O     O_3   0.572737 0.820663 0.491248 -0.567219
O40   O     O_R   0.134200 0.134200 0.305080 -0.653885
O41   O     O_R   0.865800 0.865800 0.694920 -0.645658
O42   O     O_R   0.134200 0.305080 0.134200 -0.630808
O43   O     O_R   0.865800 0.694920 0.865800 -0.644149
O44   O     O_R   0.134200 0.305090 0.426530 -0.634892
S1    S     S_3+6 0.221684 0.535555 0.317725 0.022537
S2    S     S_3+6 0.777625 0.450957 0.688380 -0.003995
S3    S     S_3+6 0.546132 0.303498 0.231892 0.025787
S4    S     S_3+6 0.459436 0.687601 0.773907 -0.001364
S5    S     S_3+6 0.318795 0.221121 0.544639 0.009281
S6    S     S_3+6 0.684489 0.777941 0.453983 -0.003181
Zn1   Zn    Zn3+2 0.206620 0.206630 0.380140 0.995900
Zn2   Zn    Zn3+2 0.793380 0.793370 0.619860 0.999265
Zn3   Zn    Zn3+2 0.206630 0.380140 0.206620 1.002853
Zn4   Zn    Zn3+2 0.793370 0.619860 0.793380 1.004598
Zn5   Zn    Zn3+2 0.380140 0.206620 0.206630 1.003582
Zn6   Zn    Zn3+2 0.619860 0.793380 0.793370 0.999687
Zn7   Zn    Zn3+2 0.206620 0.206620 0.206620 0.940324
Zn8   Zn    Zn3+2 0.793380 0.793380 0.793380 0.930285

loop_
_geom_bond_atom_site_label_1
_geom_bond_atom_site_label_2
_ccdc_geom_bond_type
C30   H113  S    
C73   H68   S    
C19   C20   S    
C112  H58   S    
O8    Zn4   S    
C31   H112  S    
C103  O18   A    
C111  C118  A    
C131  H53   S    
C60   C98   S    
C87   C94   A    
C68   O40   A    
C8    C138  A    
C79   O41   A    
C7    C68   S    
C85   C92   A    
C88   H24   S    
O22   S1    S    
C109  C142  A    
C84   C91   A    
H118  O26   S    
C101  O8    A    
C95   C102  A    
C88   C95   A    
C49   C69   S    
C33   H127  S    
C39   C65   S    
C10   C140  A    
O3    Zn3   S    
H123  O39   S    
O27   S3    D    
C22   H99   S    
C129  H51   S    
C45   C47   S    
H119  O29   S    
C121  C128  A    
C15   H71   S    
C3    C8    A    
C128  C135  A    
C7    C137  A    
O21   S1    D    
C83   H100  S    
O5    Zn5   S    
C28   H103  S    
C43   C44   S    
C37   C38   S    
C45   H29   S    
C118  H47   S    
C132  H54   S    
C124  C130  A    
C67   C74   A    
C18   H79   S    
C78   C134  A    
C92   C106  S    
C110  H39   S    
C46   S2    S    
C26   C81   S    
C13   H62   S    
C3    C113  A    
C44   H17   S    
C74   C81   A    
C128  H78   S    
C121  H50   S    
C122  H45   S    
C13   C54   A    
C126  H56   S    
C16   H84   S    
C103  O44   A    
O29   S3    S    
C31   H110  S    
C50   H34   S    
C91   C103  S    
C2    C53   A    
C9    C90   S    
C47   H27   S    
C108  O17   A    
O9    Zn5   S    
C54   C61   A    
C24   H63   S    
C123  H59   S    
C89   C96   A    
C27   H105  S    
C29   C82   S    
C131  C138  A    
C36   H6    S    
C21   H86   S    
C110  C143  A    
O39   S6    S    
O12   Zn8   S    
C48   H25   S    
C119  C126  A    
C20   C21   S    
O1    Zn7   S    
C22   C23   S    
C34   H126  S    
C36   C64   S    
O30   S4    D    
C12   H76   S    
O18   Zn3   S    
C55   C62   A    
C115  C121  A    
C13   C81   A    
C52   C134  A    
O42   Zn7   S    
O24   S2    D    
C19   H92   S    
C120  C127  A    
C135  H57   S    
C132  C139  A    
C29   H115  S    
C36   C37   S    
C86   C93   A    
C25   H95   S    
C87   C102  A    
C16   H85   S    
O10   Zn6   S    
O19   Zn4   S    
C61   C67   A    
C72   C78   A    
O13   Zn2   S    
C71   H65   S    
O6    Zn6   S    
C126  C132  A    
C23   H97   S    
O32   S4    S    
C42   H21   S    
C43   H20   S    
C26   H107  S    
C133  H55   S    
C5    C115  A    
C51   H32   S    
C54   S5    S    
C56   C97   S    
C53   C60   A    
C41   H9    S    
C58   C64   A    
C83   C89   A    
O40   Zn7   S    
C127  H89   S    
C119  H48   S    
C39   C40   S    
H121  O36   S    
C21   H88   S    
C87   H13   S    
C19   C78   S    
C29   C30   S    
C85   C99   A    
C18   H81   S    
C68   O11   A    
C115  H43   S    
C125  C131  A    
C94   C100  A    
O41   Zn8   S    
C113  H41   S    
C17   C18   S    
C28   H102  S    
C11   C141  A    
C26   H108  S    
C49   H37   S    
O20   S1    D    
C39   H14   S    
C3    C139  A    
C71   C77   A    
C107  O16   A    
C53   S4    S    
C90   O7    A    
C30   H114  S    
C85   H122  S    
C14   H74   S    
C75   C82   A    
O23   Zn7   S    
C65   C72   A    
C120  H49   S    
C138  C144  A    
C59   C65   A    
C17   H83   S    
O4    Zn4   S    
C48   H23   S    
O31   S4    D    
O28   S3    D    
C135  C141  A    
C49   C50   S    
O25   S2    D    
C14   C15   S    
C51   H33   S    
C35   C112  A    
O33   S5    D    
C1    O9    A    
C125  H67   S    
C26   C27   S    
C116  C122  A    
C4    C114  A    
C117  C124  A    
C130  H52   S    
C19   H93   S    
O12   Zn4   S    
C30   C31   S    
C38   H131  S    
O1    Zn3   S    
C16   C77   S    
C28   H104  S    
C64   C71   A    
C136  C142  A    
C32   H129  S    
C109  C116  A    
C113  C119  A    
C16   C17   S    
C45   C67   S    
C40   H11   S    
C118  C125  A    
C15   H73   S    
C18   H80   S    
C8    C101  S    
C93   C99   A    
C122  C129  A    
O16   Zn1   S    
O14   Zn5   S    
O11   Zn1   S    
C35   C56   A    
C60   C66   A    
C44   H18   S    
C86   H2    S    
C110  C117  A    
O2    Zn2   S    
C9    C144  A    
C55   S6    S    
C31   H109  S    
O38   S6    D    
C62   C69   A    
C104  O19   A    
C77   C123  A    
C20   H91   S    
C84   H111  S    
C50   C51   S    
C91   C97   A    
C4    C11   A    
C51   H31   S    
C88   C100  A    
C95   C107  S    
C48   H26   S    
C12   C76   S    
C33   H128  S    
C44   H16   S    
C46   C123  A    
C42   C43   S    
C39   H15   S    
C1    O23   A    
C127  C133  A    
C37   H5    S    
C15   H72   S    
O12   Zn6   S    
C134  H60   S    
O1    Zn5   S    
C114  H42   S    
C32   C33   S    
C45   H30   S    
C9    C139  A    
C6    C79   S    
C25   H94   S    
C69   C75   A    
C37   H4    S    
C86   C98   A    
C38   H3    S    
C133  C140  A    
O36   S5    S    
C83   C97   A    
O7    Zn3   S    
C130  C137  A    
C114  C120  A    
C42   H22   S    
C101  O43   A    
O43   Zn8   S    
C43   H19   S    
H117  O22   S    
C59   C99   S    
C1    C11   S    
C47   H28   S    
C92   C98   A    
O12   Zn2   S    
C41   H8    S    
C24   C55   A    
C116  H44   S    
C94   C108  S    
C52   S3    S    
O1    Zn1   S    
C34   H124  S    
C57   O34   A    
C27   H106  S    
O26   S2    S    
C70   H64   S    
C21   H87   S    
C84   C96   A    
O44   Zn1   S    
C58   C96   S    
C105  O14   A    
C24   C82   A    
C93   C105  S    
C72   H66   S    
C6    C136  A    
C34   H125  S    
O37   S6    D    
H120  O32   S    
C137  C143  A    
C107  O5    A    
O15   Zn6   S    
C29   H116  S    
C10   C57   S    
C32   H130  S    
C90   O42   A    
C104  O2    A    
C25   H96   S    
C66   C73   A    
C50   H36   S    
C52   C59   A    
C4    C140  A    
C129  C136  A    
C17   H82   S    
C109  H35   S    
C5    C141  A    
C47   C48   S    
C63   C70   A    
C76   C112  A    
C33   C34   S    
C56   C63   A    
C2    H61   S    
O35   S5    D    
C23   H98   S    
C111  C144  A    
C79   O13   A    
C40   C41   S    
C12   C14   S    
C20   H90   S    
C89   C104  S    
C70   C76   A    
C105  O3    A    
C62   C100  S    
C106  O4    A    
C35   S1    S    
C108  O6    A    
C41   H10   S    
C32   C63   S    
C22   H101  S    
C57   O10   A    
C36   H7    S    
C124  H1    S    
C75   H70   S    
C61   C102  S    
C22   C80   S    
C5    C10   A    
C74   H69   S    
C106  O15   A    
C38   H132  S    
C111  H40   S    
C73   C80   A    
C23   C25   S    
C14   H75   S    
C12   H77   S    
C2    C80   A    
C117  H46   S    
C49   H38   S    
O17   Zn2   S    
C27   C28   S    
C42   C66   S    
C40   H12   S    
C6    C143  A    
C7    C142  A    
C46   C58   A    
O34   Zn8   S    
