data_mof_unit_36021.cif
_audit_creation_date              2012-12-10T17:41:01-0500
_audit_creation_method            fapswitch 2.2
_symmetry_space_group_name_H-M    P1
_symmetry_Int_Tables_number       1
_space_group_crystal_system       triclinic
_cell_length_a                    15.038871
_cell_length_b                    13.80492
_cell_length_c                    11.710654
_cell_angle_alpha                 90.249069
_cell_angle_beta                  88.946238
_cell_angle_gamma                 88.999292
_cell_volume                      2430.44526071

loop_
_atom_site_label
_atom_site_type_symbol
_atom_type_description
_atom_site_fract_x
_atom_site_fract_y
_atom_site_fract_z
_atom_type_partial_charge
C1    C     C_R   0.329382 0.500791 0.498564 0.792389
C2    C     C_R   0.670634 0.499311 0.500999 0.901879
C3    C     C_R   0.906909 0.498619 0.394324 -0.037735
C4    C     C_R   0.092935 0.501036 0.604466 -0.020112
C5    C     C_R   0.951608 0.511086 0.708956 0.306144
C6    C     C_R   0.048221 0.512423 0.291060 0.345420
C7    C     C_R   0.043990 0.499078 0.708344 0.356134
C8    C     C_R   0.956696 0.496286 0.290566 0.311629
C9    C     C_R   0.445483 0.796296 0.575231 0.278420
C10   C     C_R   0.556718 0.202911 0.429176 0.277800
C11   C     C_R   0.558176 0.794171 0.430272 0.291032
C12   C     C_R   0.448660 0.209398 0.580202 0.322836
C13   C     C_R   0.571126 0.895587 0.445283 -0.134343
C14   C     C_R   0.455553 0.105680 0.594976 -0.166554
C15   C     C_R   0.457105 0.897699 0.593710 -0.124144
C16   C     C_R   0.570129 0.101691 0.445051 -0.132048
C17   C     C_R   0.515582 0.948360 0.522180 -0.113459
C18   C     C_R   0.514767 0.052069 0.522373 -0.097548
C19   C     C_R   0.638199 0.946290 0.384259 0.369801
C20   C     C_R   0.407378 0.053304 0.680302 0.342229
C21   C     C_R   0.410179 0.950449 0.681105 0.395796
C22   C     C_R   0.637767 0.048253 0.384434 0.373358
C23   C     C_R   0.500081 0.499839 0.284017 0.822427
C24   C     C_R   0.499651 0.500173 0.715989 0.830222
C25   C     C_1   0.499770 0.499627 0.162348 -0.192309
C26   C     C_1   0.499365 0.500440 0.837672 -0.194463
C27   C     C_1   0.499486 0.499855 0.059901 -0.000917
C28   C     C_1   0.499300 0.500266 0.940126 -0.003619
C29   C     C_R   0.812742 0.499149 0.396450 0.066957
C30   C     C_R   0.186703 0.501799 0.603069 0.119101
C31   C     C_R   0.766915 0.498113 0.500826 -0.069652
C32   C     C_R   0.233142 0.502864 0.498575 -0.169728
C33   C     C_R   0.810445 0.499049 0.604829 0.073793
C34   C     C_R   0.188927 0.506085 0.394471 0.109115
C35   C     C_R   0.904342 0.504619 0.605843 -0.050441
C36   C     C_R   0.095119 0.508055 0.394221 -0.019271
C37   C     C_R   0.952639 0.502446 0.499887 -0.110317
C38   C     C_R   0.046921 0.503783 0.499525 -0.145682
Cu1   Cu    Cu3+1 0.500000 0.597420 0.500000 0.912143
Cu2   Cu    Cu3+1 0.500000 0.402580 0.500000 0.941297
N1    N     N_R   0.500000 0.743810 0.500000 -0.223203
N2    N     N_R   0.500000 0.256190 0.500000 -0.202625
O1    O     O_R   0.370260 0.582280 0.500020 -0.605192
O2    O     O_R   0.629740 0.417720 0.499980 -0.595634
O3    O     O_R   0.629740 0.582280 0.499980 -0.597657
O4    O     O_R   0.370260 0.417720 0.500020 -0.550105
O5    O     O_R   0.500010 0.582270 0.337200 -0.592190
O6    O     O_R   0.499990 0.417730 0.662800 -0.558642
O7    O     O_R   0.499990 0.582270 0.662800 -0.597351
O8    O     O_R   0.500010 0.417730 0.337200 -0.595558
N3    N     N_3   0.760578 0.503743 0.294954 -0.613727
H1    H     H_    0.768057 0.438943 0.249512 0.255080
H2    H     H_    0.778904 0.563353 0.245733 0.259829
N4    N     N_3   0.235314 0.503488 0.707644 -0.529001
H3    H     H_    0.278115 0.443050 0.709714 0.212368
H4    H     H_    0.273131 0.566209 0.709973 0.210141
N5    N     N_3   0.756797 0.490193 0.707036 -0.596793
H5    H     H_    0.780163 0.432150 0.755769 0.258437
H6    H     H_    0.756779 0.555050 0.753096 0.252706
N6    N     N_3   0.239653 0.503904 0.289125 -0.530007
H7    H     H_    0.279075 0.440763 0.286363 0.216418
H8    H     H_    0.281174 0.563863 0.286761 0.210505
O9    O     O_3   0.908699 0.527047 0.812862 -0.593846
C39   C     C_3   0.912891 0.626849 0.839593 0.076355
H9    H     H_    0.878951 0.671304 0.773586 0.126755
H10   H     H_    0.983000 0.650609 0.846287 0.171067
C40   C     C_3   0.866360 0.645865 0.954068 -0.789384
H11   H     H_    0.901134 0.605428 0.022033 0.294138
H12   H     H_    0.867483 0.724423 0.974645 0.198801
H13   H     H_    0.796192 0.622340 0.951262 0.246220
O10   O     O_3   0.091268 0.529288 0.187933 -0.559114
C41   C     C_3   0.088851 0.630049 0.167340 0.097063
H14   H     H_    0.121409 0.670481 0.237314 0.136580
H15   H     H_    0.019059 0.657171 0.159172 0.145595
C42   C     C_3   0.138916 0.650724 0.056371 -0.762368
H16   H     H_    0.106385 0.613993 0.984292 0.287696
H17   H     H_    0.138698 0.729933 0.040260 0.191797
H18   H     H_    0.208844 0.624097 0.061665 0.254076
O11   O     O_3   0.086000 0.490811 0.812028 -0.548635
C43   C     C_3   0.088332 0.392068 0.843492 0.116034
H19   H     H_    0.109622 0.343771 0.770923 0.129271
H20   H     H_    0.021583 0.369999 0.875098 0.157774
C44   C     C_3   0.154859 0.377530 0.938480 -0.775891
H21   H     H_    0.138915 0.427277 0.010630 0.294645
H22   H     H_    0.152766 0.301652 0.969331 0.190912
H23   H     H_    0.223097 0.392704 0.906586 0.247193
O12   O     O_3   0.916261 0.481803 0.186739 -0.592052
C45   C     C_3   0.938246 0.387488 0.146196 0.089843
H24   H     H_    0.932719 0.332201 0.214757 0.127671
H25   H     H_    0.007138 0.385038 0.110822 0.191362
C46   C     C_3   0.875674 0.359841 0.051200 -0.812388
H26   H     H_    0.876212 0.415803 0.983721 0.300404
H27   H     H_    0.897429 0.289341 0.013106 0.197634
H28   H     H_    0.806768 0.352710 0.085081 0.237537
N7    N     N_3   0.366724 0.754248 0.622666 -0.539354
H29   H     H_    0.381512 0.692164 0.668778 0.245842
H30   H     H_    0.322868 0.740052 0.556853 0.236150
N8    N     N_3   0.595803 0.245774 0.329529 -0.534976
H31   H     H_    0.632510 0.306206 0.350259 0.254674
H32   H     H_    0.545816 0.262486 0.271822 0.234738
N9    N     N_3   0.596447 0.749705 0.329661 -0.534796
H33   H     H_    0.546123 0.735208 0.272154 0.234880
H34   H     H_    0.633830 0.688074 0.348405 0.260449
N10   N     N_3   0.384905 0.266923 0.643551 -0.519628
H35   H     H_    0.321389 0.238663 0.634560 0.239265
H36   H     H_    0.403068 0.270302 0.728750 0.228838
O13   O     O_3   0.702999 0.898132 0.318871 -0.525509
C47   C     C_3   0.767124 0.855989 0.391426 0.100578
H37   H     H_    0.736665 0.806374 0.455117 0.133595
H38   H     H_    0.803444 0.912557 0.438202 0.112740
C48   C     C_3   0.834192 0.797293 0.319584 -0.774109
H39   H     H_    0.869393 0.845423 0.258652 0.246100
H40   H     H_    0.883736 0.761925 0.375734 0.188475
H41   H     H_    0.799638 0.740452 0.270891 0.248892
O14   O     O_3   0.351687 0.100769 0.758719 -0.568099
C49   C     C_3   0.397160 0.115007 0.862001 0.070321
H42   H     H_    0.462823 0.149532 0.847266 0.118168
H43   H     H_    0.407474 0.045704 0.907024 0.174529
C50   C     C_3   0.340780 0.179726 0.941390 -0.796619
H44   H     H_    0.275667 0.145641 0.959307 0.256130
H45   H     H_    0.375562 0.190106 0.023268 0.206603
H46   H     H_    0.329023 0.251634 0.902149 0.234833
O15   O     O_3   0.363984 0.903278 0.767471 -0.533237
C51   C     C_3   0.425143 0.858014 0.842158 0.069417
H47   H     H_    0.479135 0.907451 0.867626 0.099201
H48   H     H_    0.457330 0.793013 0.802318 0.157549
C52   C     C_3   0.375588 0.825488 0.949340 -0.769645
H49   H     H_    0.323503 0.773093 0.926470 0.253264
H50   H     H_    0.422752 0.789812 0.008452 0.200944
H51   H     H_    0.343750 0.888917 0.993287 0.243257
O16   O     O_3   0.703281 0.094175 0.321247 -0.525104
C53   C     C_3   0.766234 0.133161 0.396371 0.101491
H52   H     H_    0.804774 0.074521 0.438300 0.117214
H53   H     H_    0.734609 0.179886 0.463978 0.132221
C54   C     C_3   0.830686 0.195096 0.328652 -0.782861
H54   H     H_    0.793830 0.254998 0.286501 0.245925
H55   H     H_    0.880215 0.226541 0.386765 0.190012
H56   H     H_    0.866096 0.150408 0.262502 0.249511

loop_
_geom_bond_atom_site_label_1
_geom_bond_atom_site_label_2
_ccdc_geom_bond_type
C54   H56   S    
O12   C45   S    
N9    H33   S    
C22   O16   S    
C10   N2    A    
C14   C18   A    
N7    H29   S    
N10   H36   S    
O15   C51   S    
Cu1   N1    S    
C49   H42   S    
Cu2   O4    S    
C30   N4    S    
C7    O11   S    
Cu1   O5    S    
C35   C37   A    
C24   C26   S    
C12   N10   S    
C41   C42   S    
C1    O4    A    
N5    H6    S    
O14   C49   S    
C47   H37   S    
C5    O9    S    
C3    C29   A    
C10   N8    S    
C12   N2    A    
C1    O1    A    
C48   H40   S    
C48   H39   S    
C2    O2    A    
C53   H52   S    
C33   N5    S    
O13   C47   S    
C31   C33   A    
C9    N7    S    
Cu1   O3    S    
Cu2   N2    S    
N9    H34   S    
C54   H55   S    
C34   N6    S    
C4    C7    A    
N10   H35   S    
C50   H45   S    
C2    O3    A    
C6    O10   S    
N4    H4    S    
C23   O5    A    
C13   C19   A    
C40   H11   S    
C24   O6    A    
C39   C40   S    
C14   C20   A    
C54   H54   S    
C19   C22   A    
O11   C43   S    
C41   H15   S    
C3    C8    A    
Cu1   Cu2   S    
C5    C7    A    
C43   H19   S    
C23   O8    A    
Cu1   O1    S    
C1    C32   S    
N3    H1    S    
N6    H7    S    
N3    H2    S    
C39   H10   S    
C21   O15   S    
C42   H16   S    
C52   H50   S    
C37   C38   A    
C46   H27   S    
C44   H21   S    
C45   C46   S    
C15   C21   A    
C17   C18   A    
C11   N9    S    
C47   C48   S    
C20   C21   A    
C42   H17   S    
C49   H43   S    
C51   C52   S    
C43   H20   S    
Cu1   O7    S    
C12   C14   A    
N8    H32   S    
O16   C53   S    
C46   H26   S    
C51   H48   S    
C29   N3    S    
C50   H46   S    
C24   O7    A    
Cu2   O6    S    
N4    H3    S    
C16   C22   A    
C44   H22   S    
C9    N1    A    
C16   C18   A    
C4    C38   A    
C41   H14   S    
C20   O14   S    
C6    C8    A    
C50   H44   S    
N7    H30   S    
C15   C17   A    
C25   C27   T    
C26   C28   T    
C49   C50   S    
C13   C17   A    
C8    O12   S    
C39   H9    S    
C40   H13   S    
C36   C38   A    
C45   H25   S    
C9    C15   A    
C52   H51   S    
O10   C41   S    
C29   C31   A    
C10   C16   A    
N6    H8    S    
C30   C32   A    
C11   C13   A    
N5    H5    S    
C47   H38   S    
C53   C54   S    
Cu2   O8    S    
C5    C35   A    
C43   C44   S    
C33   C35   A    
C6    C36   A    
C11   N1    A    
C48   H41   S    
C34   C36   A    
C23   C25   S    
C42   H18   S    
O9    C39   S    
Cu2   O2    S    
C44   H23   S    
C45   H24   S    
C3    C37   A    
C53   H53   S    
N8    H31   S    
C27   C28   S    
C2    C31   S    
C40   H12   S    
C4    C30   A    
C52   H49   S    
C32   C34   A    
C51   H47   S    
C46   H28   S    
C19   O13   S    
