data_mof_unit_17242.cif
_audit_creation_date              2012-12-10T20:25:38-0500
_audit_creation_method            fapswitch 2.2
_symmetry_space_group_name_H-M    P1
_symmetry_Int_Tables_number       1
_space_group_crystal_system       triclinic
_cell_length_a                    8.622236
_cell_length_b                    10.721173
_cell_length_c                    9.958323
_cell_angle_alpha                 88.76876
_cell_angle_beta                  97.166479
_cell_angle_gamma                 92.506141
_cell_volume                      912.367755163

loop_
_atom_site_label
_atom_site_type_symbol
_atom_type_description
_atom_site_fract_x
_atom_site_fract_y
_atom_site_fract_z
_atom_type_partial_charge
C1    C     C_R   0.504008 0.260723 0.501767 0.870873
C2    C     C_R   0.566774 0.943532 0.388373 0.078717
C3    C     C_R   0.520973 0.873194 0.499621 -0.113511
C4    C     C_R   0.500962 0.933580 0.618523 0.070965
C5    C     C_3   0.369260 0.919918 0.703358 -0.519089
C6    C     C_3   0.376572 0.061703 0.710441 -0.096279
C7    C     C_R   0.419798 0.408543 0.064891 0.130124
C8    C     C_R   0.599458 0.578373 0.080142 0.166054
C9    C     C_R   0.589801 0.585413 0.935408 0.196870
C10   C     C_R   0.417967 0.409754 0.922964 0.152081
C11   C     C_3   0.244044 0.383070 0.906775 0.014008
C12   C     C_R   0.202307 0.490871 0.465982 0.899513
C13   C     C_3   0.250774 0.373691 0.060046 -0.534888
C14   C     C_R   0.503209 0.740077 0.498886 0.876224
C15   C     C_R   0.797807 0.500457 0.533756 0.940807
C16   C     C_2   0.038876 0.463506 0.452816 -0.081718
C17   C     C_2   0.961806 0.512115 0.545821 -0.416904
C18   C     C_R   0.505833 0.061081 0.623030 0.130533
C19   C     C_R   0.526366 0.130475 0.506726 -0.150256
C20   C     C_R   0.570854 0.072615 0.393806 -0.285393
H1    H     H_    0.210534 0.293019 0.855546 0.125246
H2    H     H_    0.184019 0.443339 0.106957 0.231651
H3    H     H_    0.232085 0.276420 0.097384 0.167864
H4    H     H_    0.018850 0.573606 0.623298 0.158874
H5    H     H_    0.598910 0.126502 0.305988 0.176625
H6    H     H_    0.259299 0.881836 0.645535 0.182439
H7    H     H_    0.403022 0.871559 0.801650 0.202177
H8    H     H_    0.269762 0.107282 0.661935 0.151862
N1    N     N_R   0.498950 0.499140 0.142680 -0.142405
N2    N     N_R   0.498950 0.499180 0.857030 -0.131213
O1    O     O_R   0.500020 0.316790 0.614690 -0.607688
O2    O     O_R   0.500000 0.316760 0.385350 -0.621331
O3    O     O_R   0.271760 0.500010 0.587850 -0.590717
O4    O     O_R   0.271740 0.499970 0.358500 -0.629972
O5    O     O_R   0.500000 0.683240 0.614650 -0.589013
O6    O     O_R   0.499980 0.683210 0.385310 -0.625701
O7    O     O_R   0.728260 0.500030 0.641500 -0.630083
O8    O     O_R   0.728240 0.499990 0.412150 -0.593163
Zn1   Zn    Zn3+2 0.500010 0.500020 0.653130 0.964124
Zn2   Zn    Zn3+2 0.499990 0.499980 0.346870 0.938579
N3    N     N_3   0.965196 0.379331 0.350269 -0.422072
H9    H     H_    0.047592 0.348901 0.291148 0.173909
H10   H     H_    0.924669 0.299598 0.399678 0.179006
N4    N     N_2   0.643992 0.697471 0.873699 -0.254915
H11   H     H_    0.623233 0.777681 0.922831 0.203750
C21   C     C_3   0.797664 0.699839 0.830063 -0.690639
H12   H     H_    0.874608 0.772818 0.884702 0.193925
H13   H     H_    0.789066 0.725051 0.720961 0.235881
H14   H     H_    0.851855 0.608389 0.847995 0.243676
N5    N     N_2   0.150983 0.484922 0.846284 -0.255340
H15   H     H_    0.034118 0.458215 0.828362 0.221481
C22   C     C_3   0.175968 0.611506 0.897132 -0.758140
H16   H     H_    0.120754 0.678050 0.820990 0.218315
H17   H     H_    0.300150 0.641168 0.915376 0.242210
H18   H     H_    0.123786 0.620726 0.992077 0.219696
N6    N     N_3   0.600068 0.886411 0.267284 -0.448537
H19   H     H_    0.521060 0.917757 0.186638 0.179680
H20   H     H_    0.712623 0.916676 0.249080 0.179649
N7    N     N_3   0.431727 0.108445 0.845926 -0.445743
H21   H     H_    0.532483 0.063277 0.887060 0.192139
H22   H     H_    0.345137 0.085675 0.908098 0.173261
N8    N     N_2   0.712084 0.656935 0.158177 -0.297363
H23   H     H_    0.693256 0.669924 0.255530 0.302535
C23   C     C_3   0.875157 0.635932 0.148908 -0.783686
H24   H     H_    0.938578 0.619726 0.250978 0.256589
H25   H     H_    0.930348 0.721144 0.107616 0.230777
H26   H     H_    0.889977 0.553833 0.086089 0.243073

loop_
_geom_bond_atom_site_label_1
_geom_bond_atom_site_label_2
_ccdc_geom_bond_type
N2    Zn1   S    
C7    C10   A    
O5    Zn1   S    
C15   O8    A    
N8    H23   S    
C7    N1    A    
C6    H8    S    
N6    H20   S    
C11   C13   S    
N3    H9    S    
C10   N2    A    
N5    C22   S    
C19   C20   A    
C22   H18   S    
C1    O1    A    
C4    C18   A    
C23   H24   S    
C7    C13   S    
C2    C3    A    
N7    H21   S    
O7    Zn1   S    
C11   N5    S    
C2    N6    S    
C22   H16   S    
N6    H19   S    
O8    Zn2   S    
N3    H10   S    
C21   H14   S    
O3    Zn1   S    
C3    C14   S    
C9    N2    A    
O4    Zn2   S    
C8    N1    A    
C6    N7    S    
N1    Zn2   S    
C22   H17   S    
C13   H2    S    
N5    H15   S    
O2    Zn2   S    
C14   O6    A    
C5    C6    S    
C6    C18   S    
C21   H13   S    
N7    H22   S    
C17   H4    S    
C1    C19   S    
C10   C11   S    
C12   O4    A    
C5    H6    S    
C23   H26   S    
C12   C16   S    
O6    Zn2   S    
N4    H11   S    
C13   H3    S    
C18   C19   A    
C20   H5    S    
C8    N8    S    
C14   O5    A    
C15   C17   S    
C21   H12   S    
C4    C5    S    
C9    N4    S    
N8    C23   S    
N4    C21   S    
C12   O3    A    
C5    H7    S    
C2    C20   A    
C16   N3    S    
C11   H1    S    
C1    O2    A    
C15   O7    A    
C3    C4    A    
C16   C17   D    
O1    Zn1   S    
C8    C9    A    
C23   H25   S    
