data_mof_unit_25503.cif
_audit_creation_date              2012-10-26T19:55:47-0400
_audit_creation_method            fapswitch 2.2
_symmetry_space_group_name_H-M    P1
_symmetry_Int_Tables_number       1
_space_group_crystal_system       triclinic
_cell_length_a                    10.894446
_cell_length_b                    10.767409
_cell_length_c                    9.668372
_cell_angle_alpha                 89.971869
_cell_angle_beta                  91.72307
_cell_angle_gamma                 93.157054
_cell_volume                      1131.91386687

loop_
_atom_site_label
_atom_site_type_symbol
_atom_type_description
_atom_site_fract_x
_atom_site_fract_y
_atom_site_fract_z
_atom_type_partial_charge
Br1   Br    Br    0.692252 0.223908 0.996161 -0.512377
Br2   Br    Br    0.170165 0.031497 0.082093 -0.524217
Br3   Br    Br    0.838076 0.278431 0.313209 -0.490469
C1    C     C_R   0.494099 0.262630 0.499938 0.552808
C2    C     C_R   0.884923 0.571039 0.001593 -0.166006
C3    C     C_R   0.815380 0.463910 0.036474 -0.080320
C4    C     C_R   0.262376 0.497255 0.497841 0.525552
C5    C     C_R   0.792095 0.367307 0.941109 0.214676
C6    C     C_R   0.839466 0.379237 0.807430 0.174271
C7    C     C_R   0.898650 0.494139 0.768304 0.042519
C8    C     C_R   0.298454 0.116769 0.640567 -0.122065
C9    C     C_R   0.204258 0.045515 0.702231 -0.083646
C10   C     C_R   0.204750 0.916470 0.701629 -0.074576
C11   C     C_R   0.298385 0.857511 0.637395 -0.089651
C12   C     C_R   0.157692 0.286138 0.000347 -0.126414
C13   C     C_R   0.393822 0.927482 0.572063 0.037253
C14   C     C_R   0.393734 0.058962 0.573253 0.022078
C15   C     C_R   0.484976 0.127979 0.499727 -0.001519
C16   C     C_R   0.495900 0.736714 0.499898 0.525809
C17   C     C_R   0.568982 0.067713 0.421211 -0.108990
C18   C     C_R   0.570794 0.940002 0.422442 -0.134508
C19   C     C_R   0.486341 0.869874 0.499660 0.008975
C20   C     C_R   0.640361 0.686587 0.146375 -0.120100
C21   C     C_R   0.698277 0.785277 0.076603 -0.132490
C22   C     C_R   0.699177 0.784953 0.932890 0.084825
C23   C     C_R   0.927720 0.416501 0.401415 0.124854
C24   C     C_R   0.641422 0.684709 0.861108 -0.036335
C25   C     C_R   0.566639 0.592943 0.927433 0.127702
C26   C     C_R   0.566022 0.593530 0.076318 0.144663
C27   C     C_R   0.439996 0.409156 0.071709 0.047806
C28   C     C_R   0.737214 0.491676 0.502593 0.585153
C29   C     C_R   0.439242 0.409634 0.924232 0.036991
C30   C     C_R   0.146857 0.413182 0.019127 -0.163182
C31   C     C_R   0.123264 0.459607 0.149443 -0.090950
C32   C     C_R   0.109248 0.379190 0.262555 0.059154
C33   C     C_R   0.127888 0.250572 0.245871 0.185966
C34   C     C_R   0.871388 0.476305 0.509069 0.038852
C35   C     C_R   0.150592 0.204996 0.113008 0.222503
C36   C     C_R   0.944563 0.510718 0.627008 -0.038498
C37   C     C_R   0.071006 0.526912 0.615071 -0.175510
C38   C     C_R   0.127848 0.490171 0.495288 -0.038532
C39   C     C_R   0.055792 0.429709 0.388421 -0.026120
C40   C     C_R   0.923888 0.587830 0.867095 -0.142469
Cu1   Cu    Cu3+1 0.499990 0.499990 0.640660 0.938336
Cu2   Cu    Cu3+1 0.500010 0.500010 0.359340 0.966108
H1    H     H_    0.175004 0.251643 0.898440 0.117261
H2    H     H_    0.156237 0.475797 0.932263 0.126520
H3    H     H_    0.663923 0.682260 0.253847 0.173105
H4    H     H_    0.751249 0.856508 0.135115 0.148657
H5    H     H_    0.665082 0.677333 0.755405 0.192480
H6    H     H_    0.389916 0.334891 0.868001 0.128265
H7    H     H_    0.111183 0.558170 0.161364 0.133918
H8    H     H_    0.126100 0.559656 0.704221 0.129774
H9    H     H_    0.973504 0.673883 0.839864 0.138216
H10   H     H_    0.904834 0.643344 0.077928 0.139127
H11   H     H_    0.918005 0.247539 0.696901 0.223279
H12   H     H_    0.776369 0.458645 0.137178 0.198974
H13   H     H_    0.776601 0.201445 0.745556 0.272405
H14   H     H_    0.810835 0.944353 0.926953 0.276874
H15   H     H_    0.706412 0.926377 0.796552 0.251793
H16   H     H_    0.104170 0.209823 0.452162 0.222579
H17   H     H_    0.204187 0.125436 0.371513 0.242787
H18   H     H_    0.635199 0.119844 0.360433 0.212656
H19   H     H_    0.292170 0.216624 0.640363 0.112610
H20   H     H_    0.128845 0.090154 0.748083 0.132399
H21   H     H_    0.131031 0.861704 0.749001 0.132557
H22   H     H_    0.292436 0.757067 0.635623 0.139117
H23   H     H_    0.640016 0.895740 0.364669 0.124882
H24   H     H_    0.391900 0.333793 0.124887 0.141442
N1    N     N_R   0.501190 0.501210 0.147910 -0.240737
N2    N     N_R   0.501230 0.501290 0.852040 -0.250093
N3    N     N_3   0.829465 0.277700 0.709912 -0.583260
N4    N     N_3   0.768683 0.878846 0.858426 -0.628749
N5    N     N_3   0.118875 0.164419 0.359281 -0.545037
O1    O     O_R   0.499990 0.319640 0.618810 -0.486710
O2    O     O_R   0.500000 0.319660 0.381240 -0.480592
O3    O     O_R   0.319640 0.500000 0.618780 -0.529032
O4    O     O_R   0.319650 0.500020 0.381210 -0.497153
O5    O     O_R   0.500000 0.680340 0.618760 -0.535630
O6    O     O_R   0.500010 0.680360 0.381190 -0.511635
O7    O     O_R   0.680350 0.499980 0.618790 -0.501744
O8    O     O_R   0.680360 0.500000 0.381220 -0.509216

loop_
_geom_bond_atom_site_label_1
_geom_bond_atom_site_label_2
_ccdc_geom_bond_type
Br1   C5    S    
C38   C39   A    
C32   C33   A    
C6    N3    S    
C29   H6    S    
C28   O8    A    
Cu2   O2    S    
C20   C26   A    
Cu1   O3    S    
C2    C3    A    
H15   N4    S    
Cu1   N2    S    
C31   C32   A    
C32   C39   S    
C1    O1    A    
C8    C14   A    
Cu2   O8    S    
C13   C14   A    
H11   N3    S    
C11   H22   S    
Cu2   O4    S    
C6    C7    A    
H14   N4    S    
C15   C17   A    
C24   H5    S    
C4    O3    A    
C1    C15   S    
C2    C40   A    
C10   C11   A    
C3    H12   S    
C27   N1    A    
C14   C15   A    
C29   N2    A    
C10   H21   S    
Cu1   O5    S    
C16   C19   S    
C21   C22   A    
Cu1   O7    S    
C36   C37   A    
C5    C6    A    
C3    C5    A    
C28   C34   S    
C7    C36   S    
Cu1   O1    S    
C12   C35   A    
Br2   C35   S    
C40   H9    S    
C20   C21   A    
C30   C31   A    
C9    C10   A    
C16   O5    A    
C33   N5    S    
C4    O4    A    
C37   C38   A    
C8    H19   S    
C18   H23   S    
C30   H2    S    
C11   C13   A    
C25   N2    A    
C27   H24   S    
Cu1   Cu2   S    
C23   C39   A    
C26   N1    A    
C21   H4    S    
C25   C26   A    
C13   C19   A    
C20   H3    S    
Cu2   N1    S    
C2    H10   S    
Br3   C23   S    
C8    C9    A    
C23   C34   A    
H16   N5    S    
C22   C24   A    
C9    H20   S    
C7    C40   A    
C31   H7    S    
C28   O7    A    
C17   H18   S    
C33   C35   A    
C34   C36   A    
C27   C29   A    
H13   N3    S    
Cu2   O6    S    
C22   N4    S    
C4    C38   S    
C16   O6    A    
C1    O2    A    
C17   C18   A    
C37   H8    S    
C24   C25   A    
H17   N5    S    
C12   H1    S    
C18   C19   A    
C12   C30   A    
