data_mof_unit_56706.cif
_audit_creation_date              2012-12-10T17:10:57-0500
_audit_creation_method            fapswitch 2.2
_symmetry_space_group_name_H-M    P1
_symmetry_Int_Tables_number       1
_space_group_crystal_system       triclinic
_cell_length_a                    18.388104
_cell_length_b                    18.293261
_cell_length_c                    18.328724
_cell_angle_alpha                 89.774128
_cell_angle_beta                  119.969735
_cell_angle_gamma                 120.44261
_cell_volume                      4340.87765091

loop_
_atom_site_label
_atom_site_type_symbol
_atom_type_description
_atom_site_fract_x
_atom_site_fract_y
_atom_site_fract_z
_atom_type_partial_charge
C1    C     C_R   0.999316 0.859634 0.639216 0.899178
C2    C     C_R   0.976085 0.391901 0.281633 -0.396510
C3    C     C_R   0.986834 0.323115 0.267126 0.061741
C4    C     C_R   0.997813 0.140401 0.360357 0.784836
C5    C     C_R   0.990231 0.270716 0.324122 0.055779
C6    C     C_R   0.992978 0.197245 0.304842 -0.024543
C7    C     C_R   0.989663 0.175869 0.229655 -0.189013
C8    C     C_R   0.989217 0.228655 0.175647 -0.181496
C9    C     C_R   0.990713 0.303243 0.195060 -0.021148
C10   C     C_R   0.610329 0.921509 0.383066 -0.190332
C11   C     C_R   0.557800 0.948907 0.395088 -0.222795
C12   C     C_3   0.081602 0.303393 0.717843 -0.369670
C13   C     C_R   0.449618 0.895363 0.341674 0.510172
C14   C     C_R   0.394845 0.814179 0.276081 -0.157351
C15   C     C_R   0.446610 0.784228 0.263722 0.004043
C16   C     C_R   0.279910 0.140361 0.643496 0.778559
C17   C     C_R   0.556067 0.838711 0.318267 0.083695
C18   C     C_R   0.608130 0.810330 0.304113 -0.045687
C19   C     C_R   0.552788 0.732162 0.234538 -0.199861
C20   C     C_R   0.445940 0.679077 0.181017 -0.160120
C21   C     C_R   0.392339 0.702982 0.196176 -0.038235
C22   C     C_R   0.817663 0.672991 0.563418 0.369323
C23   C     C_3   0.003142 0.199554 0.701462 -0.172365
C24   C     C_R   0.724815 0.589026 0.533338 -0.105588
C25   C     C_R   0.725083 0.534404 0.586187 -0.127595
C26   C     C_R   0.814769 0.561531 0.669329 -0.066892
C27   C     C_R   0.905325 0.652619 0.707971 -0.046848
C28   C     C_R   0.720143 0.861285 0.360111 0.777932
C29   C     C_R   0.905875 0.709089 0.654077 0.066805
C30   C     C_R   0.995640 0.799424 0.691435 -0.132066
C31   C     C_R   0.084590 0.833834 0.779105 -0.088764
C32   C     C_R   0.084373 0.778051 0.831717 -0.036829
C33   C     C_R   0.995120 0.689752 0.797664 -0.113295
C34   C     C_3   0.001208 0.303578 0.799852 -0.066683
C35   C     C_R   0.818181 0.674284 0.249212 -0.138829
C36   C     C_R   0.732219 0.585915 0.196455 -0.119222
C37   C     C_R   0.733263 0.532569 0.143629 -0.107631
C38   C     C_R   0.820159 0.567341 0.143049 -0.150095
C39   C     C_R   0.908007 0.657209 0.195319 0.051997
C40   C     C_R   0.999045 0.858362 0.359213 0.820979
C41   C     C_R   0.906878 0.711062 0.249243 0.099942
C42   C     C_R   0.995701 0.799522 0.303611 -0.160862
C43   C     C_R   0.084148 0.833677 0.305997 -0.181710
C44   C     C_R   0.085930 0.783002 0.251964 0.453878
C45   C     C_3   0.036069 0.247135 0.852541 -0.473412
C46   C     C_R   0.997641 0.694135 0.196452 -0.189177
C47   C     C_R   0.398957 0.083854 0.776259 -0.157755
C48   C     C_R   0.448663 0.043191 0.814859 -0.243451
C49   C     C_R   0.540652 0.072946 0.824204 0.490873
C50   C     C_R   0.587207 0.150190 0.802281 -0.088020
C51   C     C_R   0.548648 0.203853 0.784384 -0.098726
C52   C     C_R   0.002790 0.141401 0.643771 0.774426
C53   C     C_R   0.445508 0.161029 0.754859 0.081772
C54   C     C_R   0.392247 0.197070 0.704839 -0.064069
C55   C     C_R   0.447238 0.285255 0.705802 -0.193500
C56   C     C_3   0.084074 0.366520 0.778564 -0.194975
C57   C     C_R   0.553808 0.336556 0.754560 -0.135338
C58   C     C_R   0.606271 0.297651 0.794905 -0.067875
C59   C     C_R   0.279978 0.641823 0.139964 0.782026
C60   C     C_R   0.719481 0.358503 0.856654 0.833354
C61   C     C_R   0.997882 0.359810 0.139658 0.785746
C62   C     C_R   0.999121 0.638822 0.859079 0.715323
C63   C     C_R   0.999495 0.640224 0.140765 0.759883
C64   C     C_3   0.889088 0.178410 0.646815 0.228898
C65   C     C_R   0.000572 0.359111 0.859010 0.943544
C66   C     C_3   0.886017 0.233903 0.711531 0.265707
C67   C     C_R   0.987767 0.291865 0.396686 -0.388791
C68   C     C_3   0.040036 0.185512 0.797419 -0.057460
C69   C     C_2   0.195872 0.433556 0.863224 0.562499
C70   C     C_2   0.148761 0.208422 0.845948 0.463218
C71   C     C_2   0.864297 0.196059 0.557683 0.337203
C72   C     C_2   0.174178 0.930815 0.816523 0.428909
C73   C     C_2   0.626676 0.557949 0.446364 0.422724
C74   C     C_2   0.810353 0.489063 0.707877 0.493241
C75   C     C_2   0.828991 0.275182 0.663595 0.517979
C76   C     C_2   0.174498 0.813442 0.925960 0.548036
C77   C     C_2   0.656017 0.160912 0.776332 0.604449
C78   C     C_R   0.984614 0.364770 0.413862 0.523030
C79   C     C_2   0.975962 0.088736 0.794152 0.355660
C80   C     C_2   0.189494 0.335057 0.745481 0.441756
C81   C     C_2   0.056401 0.424941 0.726976 0.439441
C82   C     C_R   0.976488 0.413573 0.355183 0.501492
H1    H     H_    0.109773 0.290968 0.918555 0.263464
H2    H     H_    0.404658 0.617685 0.128654 0.184346
H3    H     H_    0.655186 0.467431 0.559986 0.232524
H4    H     H_    0.151804 0.901851 0.348475 0.179313
H5    H     H_    0.814798 0.712888 0.290496 0.129837
H6    H     H_    0.664836 0.558514 0.197105 0.147676
H7    H     H_    0.666667 0.463749 0.103274 0.151140
H8    H     H_    0.817881 0.522847 0.101966 0.131053
H9    H     H_    0.407946 0.314911 0.669443 0.191243
H10   H     H_    0.325292 0.055976 0.765651 0.182116
H11   H     H_    0.411698 0.984650 0.831672 0.200165
H12   H     H_    0.990590 0.119351 0.214126 0.168953
H13   H     H_    0.595156 0.406512 0.759134 0.193640
H14   H     H_    0.985884 0.208166 0.874731 0.169446
H15   H     H_    0.049633 0.311013 0.651154 0.169684
H16   H     H_    0.828574 0.053827 0.653317 0.364743
H17   H     H_    0.255555 0.480868 0.854884 0.081957
H18   H     H_    0.166411 0.180389 0.810255 0.047219
H19   H     H_    0.004157 0.354655 0.526435 0.333805
H20   H     H_    0.963841 0.510407 0.324215 0.327821
H21   H     H_    0.858768 0.154685 0.510207 0.083564
H22   H     H_    0.444831 0.979733 0.399882 0.339578
H23   H     H_    0.986554 0.251877 0.440056 0.176545
H24   H     H_    0.161386 0.980541 0.793281 0.030893
H25   H     H_    0.779624 0.675072 0.443706 0.306438
H26   H     H_    0.620824 0.604164 0.410424 0.079431
H27   H     H_    0.877211 0.487835 0.744134 0.111581
H28   H     H_    0.751519 0.231825 0.602543 0.132927
H29   H     H_    0.168135 0.824467 0.980020 0.001627
H30   H     H_    0.162839 0.788057 0.204789 0.327987
H31   H     H_    0.834798 0.128774 0.752534 0.361293
H32   H     H_    0.541120 0.973823 0.863202 0.341899
H33   H     H_    0.668276 0.202609 0.735588 0.054605
H34   H     H_    0.965430 0.428556 0.235482 0.165497
H35   H     H_    0.921179 0.067878 0.810946 0.082818
H36   H     H_    0.245832 0.340060 0.810289 0.079256
H37   H     H_    0.993293 0.395541 0.657079 0.162992
H38   H     H_    0.990428 0.212532 0.119585 0.170444
H39   H     H_    0.592643 0.711088 0.222852 0.155246
H40   H     H_    0.693659 0.967068 0.423942 0.177424
H41   H     H_    0.601740 0.012697 0.445392 0.184001
H42   H     H_    0.311592 0.776204 0.234075 0.162597
O1    O     O_3   0.000000 0.000000 0.500000 -0.507663
O2    O     O_R   0.939290 0.616110 0.884440 -0.636076
O3    O     O_R   0.060700 0.616880 0.177520 -0.635699
O4    O     O_R   0.939250 0.884470 0.616070 -0.573002
O5    O     O_R   0.060740 0.443890 0.883140 -0.584034
O6    O     O_R   0.939270 0.616890 0.056080 -0.635725
O7    O     O_R   0.939290 0.322450 0.883140 -0.607236
O8    O     O_R   0.939260 0.323230 0.054780 -0.631046
O9    O     O_R   0.060750 0.615550 0.883900 -0.594904
O10   O     O_R   0.231610 0.616100 0.176760 -0.640556
O11   O     O_R   0.768390 0.445230 0.884440 -0.622707
O12   O     O_R   0.231620 0.176800 0.616070 -0.625149
O13   O     O_R   0.060740 0.176800 0.445190 -0.630881
O14   O     O_R   0.231610 0.054800 0.615530 -0.647791
O15   O     O_R   0.768390 0.883920 0.323210 -0.635906
O16   O     O_R   0.060730 0.883140 0.443890 -0.617223
O17   O     O_R   0.939260 0.056140 0.616830 -0.595266
O18   O     O_R   0.939300 0.883140 0.322450 -0.640441
O19   O     O_R   0.060710 0.177580 0.616830 -0.635861
O20   O     O_3   0.807236 0.086319 0.614945 -0.771687
O21   O     O_2   0.220781 0.438580 0.939435 -0.590015
O22   O     O_2   0.216217 0.254622 0.924633 -0.560291
O23   O     O_R   0.768380 0.884480 0.445190 -0.620822
O24   O     O_3   0.988039 0.389201 0.487163 -0.667967
O25   O     O_3   0.968784 0.482201 0.371269 -0.688302
O26   O     O_2   0.849048 0.252553 0.535898 -0.613895
O27   O     O_3   0.395238 0.921139 0.351011 -0.701308
O28   O     O_2   0.262978 0.956212 0.871446 -0.532486
O29   O     O_3   0.824042 0.718883 0.504344 -0.792091
O30   O     O_2   0.550263 0.480460 0.414217 -0.544536
O31   O     O_2   0.730321 0.427723 0.696592 -0.599863
O32   O     O_2   0.863322 0.353212 0.693350 -0.651107
O33   O     O_2   0.253755 0.825465 0.943041 -0.485276
O34   O     O_R   0.060710 0.883920 0.615530 -0.641276
O35   O     O_3   0.174787 0.824026 0.254709 -0.696527
O36   O     O_3   0.822823 0.175025 0.737150 -0.718661
O37   O     O_3   0.583813 0.025950 0.851311 -0.693447
O38   O     O_2   0.699774 0.124038 0.799974 -0.460706
O39   O     O_2   0.984959 0.031898 0.773272 -0.560382
O40   O     O_2   0.216272 0.360074 0.695871 -0.531100
O41   O     O_2   0.105005 0.505900 0.761919 -0.504797
O42   O     O_R   0.939300 0.054810 0.323210 -0.635511
O43   O     O_3   0.000000 0.500030 0.999970 -0.517076
O44   O     O_R   0.231620 0.615550 0.054780 -0.605680
O45   O     O_R   0.768380 0.323230 0.883900 -0.666950
O46   O     O_R   0.060700 0.445220 0.176760 -0.633383
Zn1   Zn    Zn3+2 0.086760 0.130530 0.543760 0.994220
Zn2   Zn    Zn3+2 0.086760 0.956230 0.542990 1.005300
Zn3   Zn    Zn3+2 0.913250 0.956230 0.369490 0.987844
Zn4   Zn    Zn3+2 0.913230 0.957020 0.543760 1.037506
Zn5   Zn    Zn3+2 0.913240 0.369500 0.956210 1.025830
Zn6   Zn    Zn3+2 0.086750 0.543800 0.130490 0.979694
Zn7   Zn    Zn3+2 0.913240 0.543800 0.956980 0.986336
Zn8   Zn    Zn3+2 0.086770 0.543010 0.956210 1.071324

loop_
_geom_bond_atom_site_label_1
_geom_bond_atom_site_label_2
_ccdc_geom_bond_type
H22   O27   S    
H19   O24   S    
C34   C56   S    
C22   C29   A    
C40   O18   A    
C27   C29   A    
C69   O21   D    
C47   H10   S    
C35   C36   A    
C1    O4    A    
C5    C67   A    
O1    Zn3   S    
C34   C66   S    
C74   H27   S    
C66   O36   S    
C57   C58   A    
O23   Zn4   S    
C56   C81   S    
C39   C41   A    
O46   Zn6   S    
C53   C54   A    
C27   C33   A    
C67   C78   A    
C12   C23   S    
C26   C27   A    
C29   C30   A    
O10   Zn6   S    
C9    C61   S    
C60   O45   A    
C62   O9    A    
C36   C37   A    
H30   O35   S    
C21   C59   S    
C16   O14   A    
C30   C31   A    
O44   Zn8   S    
C24   C73   S    
C63   O6    A    
C71   O26   D    
C10   C17   A    
C58   C60   S    
C12   C80   S    
C77   O38   D    
O2    Zn7   S    
C18   C19   A    
C41   C42   A    
C64   C71   S    
O1    Zn2   S    
C80   O40   D    
C55   H9    S    
C61   O8    A    
C4    O13   A    
C2    H34   S    
C75   O32   D    
C47   C48   A    
C44   C46   A    
C8    C9    A    
C72   O28   D    
C73   O30   D    
C70   O22   D    
C49   O37   S    
O34   Zn2   S    
C78   O24   S    
C47   C53   A    
C68   C79   S    
C40   C42   S    
O16   Zn2   S    
C13   C14   A    
C45   H1    S    
C28   O15   A    
C35   H5    S    
C35   C41   A    
O1    Zn4   S    
C34   C65   S    
C65   O7    A    
C70   H18   S    
C50   C51   A    
O18   Zn3   S    
C38   C39   A    
C80   H36   S    
C76   O33   D    
C52   O19   A    
C14   H42   S    
C48   H11   S    
O14   Zn2   S    
C23   C64   S    
C7    C8    A    
C18   C28   S    
C24   C25   A    
C13   O27   S    
C4    C6    S    
C62   O2    A    
C67   H23   S    
H32   O37   S    
C64   O20   S    
C3    C5    A    
C25   C26   A    
C33   C62   S    
C36   H6    S    
C51   C53   A    
O8    Zn5   S    
C64   C66   S    
C23   C68   S    
C43   C44   A    
C37   C38   A    
C3    C9    A    
O6    Zn7   S    
C38   H8    S    
C78   C82   A    
C31   C32   A    
O12   Zn1   S    
C45   C68   S    
C25   H3    S    
C17   C18   A    
O45   Zn5   S    
C51   C58   A    
C12   C56   S    
C60   O11   A    
O11   Zn7   S    
C12   H15   S    
H25   O29   S    
C34   C45   S    
C39   C46   A    
C73   H26   S    
C31   C72   S    
O43   Zn7   S    
C72   H24   S    
C49   C50   A    
C20   H2    S    
O17   Zn4   S    
C22   C24   A    
O15   Zn3   S    
C42   C43   A    
C16   O12   A    
C50   C77   S    
C69   H17   S    
C8    H38   S    
O43   Zn5   S    
O1    Zn1   S    
O3    Zn6   S    
C15   C17   A    
C7    H12   S    
C71   H21   S    
C54   C55   A    
C19   H39   S    
O42   Zn3   S    
H16   O20   S    
C43   H4    S    
C11   H41   S    
C79   O39   D    
C10   H40   S    
C32   C76   S    
C65   O5    A    
C6    C7    A    
O5    Zn8   S    
C81   H37   S    
C59   O10   A    
O4    Zn4   S    
C52   O17   A    
C37   H7    S    
C46   C63   S    
C32   C33   A    
C19   C20   A    
C55   C57   A    
C2    C3    A    
C75   H28   S    
O19   Zn1   S    
C11   C13   A    
C1    O34   A    
C23   C52   S    
C5    C6    A    
C76   H29   S    
C48   C49   A    
C66   C75   S    
C79   H35   S    
O7    Zn5   S    
C1    C30   S    
C26   C74   S    
C4    O42   A    
C74   O31   D    
C40   O16   A    
H31   O36   S    
O9    Zn8   S    
C16   C54   S    
O13   Zn1   S    
C82   O25   S    
C2    C82   A    
C10   C11   A    
H20   O25   S    
C15   C21   A    
O43   Zn8   S    
C20   C21   A    
C68   C70   S    
C56   C69   S    
C57   H13   S    
C44   O35   S    
C81   O41   D    
C14   C15   A    
C61   O46   A    
C77   H33   S    
C45   H14   S    
C63   O3    A    
C59   O44   A    
O43   Zn6   S    
C28   O23   A    
C22   O29   S    
