data_mof_unit_15573.cif
_audit_creation_date              2012-12-11T14:21:24-0500
_audit_creation_method            fapswitch 2.2
_symmetry_space_group_name_H-M    P1
_symmetry_Int_Tables_number       1
_space_group_crystal_system       triclinic
_cell_length_a                    11.651787
_cell_length_b                    11.492602
_cell_length_c                    19.53103
_cell_angle_alpha                 90.288885
_cell_angle_beta                  90.328317
_cell_angle_gamma                 59.486841
_cell_volume                      2253.14535531

loop_
_atom_site_label
_atom_site_type_symbol
_atom_type_description
_atom_site_fract_x
_atom_site_fract_y
_atom_site_fract_z
_atom_type_partial_charge
C1    C     C_R   0.640457 0.117773 0.599171 0.552464
C2    C     C_1   0.653010 0.149999 0.668546 0.002294
C3    C     C_R   0.665257 0.663170 0.195629 0.008434
C4    C     C_R   0.612554 0.745910 0.598516 0.545614
C5    C     C_R   0.541708 0.707100 0.227566 0.008219
C6    C     C_R   0.542460 0.677971 0.296768 -0.004113
C7    C     C_R   0.771645 0.622931 0.307330 -0.176963
C8    C     C_R   0.780601 0.617310 0.236248 -0.154445
C9    C     C_R   0.420538 0.763996 0.191020 -0.130216
C10   C     C_R   0.309772 0.767460 0.219429 -0.094193
C11   C     C_R   0.314442 0.720155 0.285628 0.256879
C12   C     C_1   0.641665 0.703448 0.667931 0.004740
C13   C     C_R   0.434121 0.669505 0.322921 -0.094556
C14   C     C_R   0.650111 0.662750 0.337988 0.001699
C15   C     C_R   0.175682 0.178227 0.183941 -0.006603
C16   C     C_R   0.241124 0.145462 0.598209 0.559706
C17   C     C_R   0.251864 0.234339 0.206733 0.029444
C18   C     C_R   0.285951 0.225190 0.277138 0.019344
C19   C     C_R   0.208969 0.065217 0.292674 -0.138883
C20   C     C_R   0.159768 0.090731 0.226611 -0.157028
C21   C     C_R   0.288040 0.306047 0.161525 -0.087367
C22   C     C_R   0.331849 0.389690 0.186698 -0.105911
C23   C     C_1   0.126544 0.198159 0.859320 0.003253
C24   C     C_R   0.345907 0.397675 0.256579 -0.108474
C25   C     C_R   0.330730 0.312043 0.301001 -0.106125
C26   C     C_R   0.267631 0.134776 0.320297 -0.002450
C27   C     C_R   0.737750 0.206354 0.207183 0.004120
C28   C     C_R   0.643650 0.110345 0.401127 0.529034
C29   C     C_R   0.811304 0.070067 0.232719 0.043484
C30   C     C_R   0.759793 0.038437 0.289303 0.027336
C31   C     C_R   0.626870 0.278792 0.316463 -0.159887
C32   C     C_R   0.651816 0.309945 0.251289 -0.161470
C33   C     C_R   0.928738 0.961782 0.202089 -0.083306
C34   C     C_1   0.171756 0.170129 0.727702 -0.031305
C35   C     C_R   0.975356 0.828263 0.218535 -0.076590
C36   C     C_R   0.911483 0.797812 0.267703 -0.092510
C37   C     C_R   0.800037 0.900865 0.299982 -0.096758
C38   C     C_R   0.672836 0.144219 0.334016 0.006738
C39   C     C_R   0.081754 0.230712 0.928593 0.545401
C40   C     C_R   0.618387 0.732253 0.404405 0.528694
C41   C     C_R   0.683509 0.604381 0.929584 0.545011
C42   C     C_R   0.708156 0.206410 0.930185 0.557938
C43   C     C_R   0.089524 0.231689 0.123181 0.526145
C44   C     C_R   0.682788 0.612432 0.125650 0.528269
C45   C     C_1   0.150127 0.181810 0.798966 -0.030544
C46   C     C_R   0.745654 0.235830 0.134392 0.556956
C47   C     C_R   0.303668 0.115208 0.393759 0.551892
C48   C     C_1   0.669278 0.646925 0.860202 0.004527
C49   C     C_1   0.654803 0.683435 0.728445 -0.031416
C50   C     C_1   0.662661 0.666969 0.799718 -0.031451
C51   C     C_3   0.187003 0.735910 0.380965 -0.121784
C52   C     C_1   0.195635 0.160996 0.667378 0.001437
C53   C     C_1   0.678204 0.191379 0.860796 0.001486
C54   C     C_1   0.658427 0.167546 0.728964 -0.030999
C55   C     C_1   0.665339 0.181167 0.800302 -0.031254
Cr1   Cr    Cr6+3 0.404720 0.198220 0.499960 1.007922
Cr2   Cr    Cr6+3 0.698290 0.897110 0.500380 1.013640
Cr3   Cr    Cr6+3 0.396970 0.904720 0.499610 1.007262
Cr4   Cr    Cr6+3 0.926180 0.151990 0.028120 1.006707
Cr5   Cr    Cr6+3 0.921330 0.451820 0.027470 1.019190
Cr6   Cr    Cr6+3 0.626260 0.446870 0.028710 1.016452
H1    H     H_    0.857930 0.598156 0.338673 0.124746
H2    H     H_    0.746438 0.871307 0.333110 0.165525
H3    H     H_    0.412573 0.801146 0.139325 0.135950
H4    H     H_    0.878086 0.574851 0.213135 0.150770
H5    H     H_    0.191006 0.998491 0.323774 0.156560
H6    H     H_    0.279632 0.300511 0.106560 0.135304
H7    H     H_    0.102286 0.047328 0.210410 0.123330
H8    H     H_    0.220666 0.805853 0.188868 0.101575
H9    H     H_    0.207032 0.815197 0.400391 0.132663
H10   H     H_    0.250536 0.638244 0.407482 0.105598
H11   H     H_    0.082008 0.769228 0.393550 0.153680
H12   H     H_    0.352797 0.449957 0.152174 0.128122
H13   H     H_    0.444058 0.622109 0.371985 0.120885
H14   H     H_    0.375345 0.466058 0.276429 0.145123
H15   H     H_    0.351778 0.320580 0.353462 0.168502
H16   H     H_    0.565265 0.359617 0.351653 0.109132
H17   H     H_    0.987928 0.974907 0.164406 0.133999
H18   H     H_    0.603410 0.414280 0.235022 0.133107
H19   H     H_    0.060868 0.747518 0.192692 0.130392
H20   H     H_    0.952114 0.693736 0.281595 0.124583
O1    O     O_R   0.267740 0.231960 0.575440 -0.501087
O2    O     O_R   0.596130 0.579390 0.952730 -0.506722
O3    O     O_R   0.639060 0.321160 0.958670 -0.488505
O4    O     O_R   0.527280 0.186640 0.570530 -0.493679
O5    O     O_R   0.821240 0.124200 0.104370 -0.531138
O6    O     O_R   0.036890 0.167040 0.097840 -0.532443
O7    O     O_R   0.056180 0.349610 0.102880 -0.521503
O8    O     O_R   0.797660 0.564870 0.097950 -0.501778
O9    O     O_R   0.595880 0.584250 0.104270 -0.531902
O10   O     O_R   0.638830 0.325670 0.099150 -0.492367
O11   O     O_3   0.824590 0.350230 0.028100 -0.268242
O12   O     O_R   0.685970 0.784660 0.430010 -0.517196
O13   O     O_R   0.728090 0.003450 0.576380 -0.500791
O14   O     O_R   0.682970 0.789190 0.570490 -0.490349
O15   O     O_R   0.499290 0.771880 0.575530 -0.507787
O16   O     O_R   0.285330 0.030870 0.569730 -0.487710
O17   O     O_R   0.270980 0.227080 0.423890 -0.527853
O18   O     O_R   0.530280 0.182120 0.430050 -0.537372
O19   O     O_R   0.731330 0.998570 0.424830 -0.524028
O20   O     O_3   0.202890 0.718568 0.309360 -0.593474
O21   O     O_R   0.502530 0.767000 0.423990 -0.537703
O22   O     O_R   0.288330 0.026350 0.429250 -0.501504
O23   O     O_3   0.499990 0.000020 0.499980 -0.266981
O24   O     O_R   0.821500 0.119340 0.952830 -0.500635
O25   O     O_R   0.037130 0.162530 0.957360 -0.495344
O26   O     O_R   0.056440 0.344740 0.951340 -0.506691
O27   O     O_R   0.797900 0.560360 0.957470 -0.489892

loop_
_geom_bond_atom_site_label_1
_geom_bond_atom_site_label_2
_ccdc_geom_bond_type
C39   O25   A    
C23   C45   T    
C41   O27   A    
C27   C29   A    
C9    H3    S    
C19   C20   A    
C18   C26   A    
Cr1   O17   S    
C40   O12   A    
C12   C49   T    
Cr5   O7    S    
C7    C8    A    
Cr5   O8    S    
C39   O26   A    
Cr3   O16   S    
Cr4   O24   S    
C47   O17   A    
C43   O7    A    
C36   C37   A    
C42   C53   S    
C5    C6    A    
C33   H17   S    
C41   O2    A    
C29   C33   A    
C35   H19   S    
C30   C38   A    
C19   H5    S    
C1    C2    S    
C19   C26   A    
Cr3   O15   S    
C4    O15   A    
C7    C14   A    
C35   C36   A    
C1    O13   A    
Cr3   O21   S    
C51   H9    S    
C4    C12   S    
C9    C10   A    
Cr5   O27   S    
Cr6   O11   S    
C28   O19   A    
C48   C50   T    
C8    H4    S    
Cr2   O12   S    
C21   C22   A    
C21   H6    S    
C18   C25   A    
C51   H10   S    
C37   H2    S    
C31   H16   S    
C53   C55   T    
C1    O4    A    
C15   C20   A    
C3    C44   S    
Cr4   O25   S    
C47   O22   A    
C42   O3    A    
C24   C25   A    
Cr1   O23   S    
C3    C8    A    
C2    C54   T    
C46   O10   A    
Cr2   O19   S    
C14   C40   S    
C17   C21   A    
C30   C37   A    
C7    H1    S    
C5    C9    A    
C29   C30   A    
C6    C14   A    
C4    O14   A    
C31   C32   A    
C28   C38   S    
C36   H20   S    
C16   O1    A    
C17   C18   A    
C11   O20   S    
C34   C45   S    
Cr5   O26   S    
C26   C47   S    
C28   O18   A    
Cr2   O13   S    
Cr6   O2    S    
C22   C24   A    
Cr3   O23   S    
C51   H11   S    
C44   O9    A    
Cr6   O9    S    
C27   C46   S    
C15   C17   A    
Cr2   O23   S    
C54   C55   S    
C27   C32   A    
C20   H7    S    
C16   C52   S    
C3    C5    A    
Cr6   O3    S    
C24   H14   S    
Cr1   O1    S    
C51   O20   S    
C34   C52   T    
C22   H12   S    
C31   C38   A    
C25   H15   S    
C43   O6    A    
Cr4   O5    S    
C15   C43   S    
C32   H18   S    
C11   C13   A    
Cr1   O4    S    
C23   C39   S    
C33   C35   A    
C41   C48   S    
Cr4   O11   S    
C16   O16   A    
C42   O24   A    
Cr4   O6    S    
C10   C11   A    
C40   O21   A    
C10   H8    S    
C13   H13   S    
C49   C50   S    
Cr2   O14   S    
Cr3   O22   S    
Cr1   O18   S    
C46   O5    A    
Cr5   O11   S    
C44   O8    A    
Cr6   O10   S    
C6    C13   A    
