data_mof_unit_33199.cif
_audit_creation_date              2012-12-11T15:46:45-0500
_audit_creation_method            fapswitch 2.2
_symmetry_space_group_name_H-M    P1
_symmetry_Int_Tables_number       1
_space_group_crystal_system       triclinic
_cell_length_a                    11.541788
_cell_length_b                    11.533113
_cell_length_c                    19.570404
_cell_angle_alpha                 90.451252
_cell_angle_beta                  89.938757
_cell_angle_gamma                 60.221396
_cell_volume                      2260.96587911

loop_
_atom_site_label
_atom_site_type_symbol
_atom_type_description
_atom_site_fract_x
_atom_site_fract_y
_atom_site_fract_z
_atom_type_partial_charge
C1    C     C_R   0.640218 0.117086 0.599341 0.552592
C2    C     C_1   0.640532 0.704481 0.668106 0.009487
C3    C     C_1   0.145519 0.189686 0.863003 0.005579
C4    C     C_1   0.225255 0.146239 0.735393 -0.027321
C5    C     C_1   0.186033 0.165716 0.804868 -0.025735
C6    C     C_1   0.256576 0.133851 0.675820 0.003308
C7    C     C_1   0.678959 0.191042 0.860779 0.006443
C8    C     C_1   0.658357 0.166873 0.729113 -0.028686
C9    C     C_1   0.665829 0.180560 0.800394 -0.027698
C10   C     C_1   0.652629 0.149388 0.668744 0.007379
C11   C     C_R   0.681437 0.638764 0.198904 -0.041616
C12   C     C_R   0.612101 0.746337 0.598729 0.549001
C13   C     C_R   0.568987 0.651054 0.231755 -0.029354
C14   C     C_R   0.553865 0.669744 0.300187 0.037143
C15   C     C_R   0.779215 0.626868 0.310886 -0.165786
C16   C     C_R   0.794295 0.618575 0.239431 0.009780
C17   C     C_3   0.425357 0.745937 0.216875 -0.051738
C18   C     C_3   0.409745 0.775539 0.293006 -0.232440
C19   C     C_R   0.654981 0.666494 0.340099 0.002953
C20   C     C_R   0.145962 0.186286 0.191245 -0.025745
C21   C     C_R   0.187425 0.266006 0.223755 0.047993
C22   C     C_R   0.210911 0.255451 0.292725 0.071293
C23   C     C_R   0.296654 0.120873 0.605389 0.550609
C24   C     C_R   0.145437 0.088027 0.301968 -0.177569
C25   C     C_R   0.127407 0.091776 0.230892 -0.001051
C26   C     C_3   0.310205 0.273700 0.208373 -0.271803
C27   C     C_3   0.335055 0.264281 0.284319 -0.233151
C28   C     C_R   0.192008 0.166039 0.332666 -0.019485
C29   C     C_R   0.674303 0.197627 0.196924 -0.020627
C30   C     C_R   0.740457 0.070000 0.222407 0.055071
C31   C     C_R   0.742085 0.046234 0.290663 0.051440
C32   C     C_R   0.615768 0.282838 0.314572 0.009735
C33   C     C_R   0.615705 0.306208 0.243719 -0.154953
C34   C     C_R   0.646712 0.113341 0.403711 0.564882
C35   C     C_3   0.726986 0.953018 0.202488 -0.278142
C36   C     C_3   0.732164 0.923872 0.278113 -0.256328
C37   C     C_R   0.673998 0.149827 0.337443 -0.006918
C38   C     C_R   0.084038 0.230160 0.929230 0.540874
C39   C     C_R   0.684177 0.604333 0.929483 0.544730
C40   C     C_R   0.708729 0.206739 0.930086 0.538983
C41   C     C_R   0.084378 0.233388 0.124791 0.543781
C42   C     C_R   0.686980 0.606379 0.127293 0.546170
C43   C     C_R   0.708664 0.213715 0.127775 0.537403
C44   C     C_R   0.618001 0.735165 0.404356 0.560498
C45   C     C_R   0.245877 0.140251 0.401022 0.552203
C46   C     C_1   0.670809 0.646473 0.860136 0.007339
C47   C     C_1   0.654262 0.684218 0.728504 -0.028076
C48   C     C_1   0.663498 0.666920 0.799736 -0.027973
Cr1   Cr    Cr6+3 0.404720 0.198220 0.499960 1.063077
Cr2   Cr    Cr6+3 0.698290 0.897110 0.500380 1.044277
Cr3   Cr    Cr6+3 0.396970 0.904720 0.499610 1.038036
Cr4   Cr    Cr6+3 0.926290 0.152010 0.028150 1.098518
Cr5   Cr    Cr6+3 0.921440 0.451830 0.027490 1.085334
Cr6   Cr    Cr6+3 0.626370 0.446880 0.028730 1.065705
H1    H     H_    0.857880 0.621287 0.343291 0.181563
H2    H     H_    0.426303 0.170764 0.299131 0.117203
H3    H     H_    0.574471 0.407251 0.225554 0.179010
H4    H     H_    0.815474 0.880500 0.172936 0.203397
H5    H     H_    0.628964 0.981522 0.178792 0.118716
H6    H     H_    0.638174 0.932115 0.298255 0.119233
H7    H     H_    0.339071 0.752553 0.319917 0.202993
H8    H     H_    0.135087 0.015789 0.332635 0.174505
O1    O     O_R   0.267750 0.231960 0.575440 -0.492148
O2    O     O_R   0.685950 0.784660 0.430010 -0.511308
O3    O     O_R   0.502510 0.767000 0.423980 -0.511417
O4    O     O_R   0.288320 0.026340 0.429250 -0.508776
O5    O     O_3   0.499990 0.000020 0.499980 -0.292845
O6    O     O_R   0.821590 0.119350 0.952850 -0.499837
O7    O     O_R   0.037230 0.162540 0.957390 -0.487495
O8    O     O_R   0.056530 0.344750 0.951370 -0.506425
O9    O     O_R   0.798000 0.560370 0.957490 -0.493298
O10   O     O_R   0.596230 0.579400 0.952760 -0.491174
O11   O     O_R   0.639160 0.321170 0.958690 -0.495737
O12   O     O_R   0.527290 0.186640 0.570530 -0.501047
O13   O     O_R   0.821370 0.124220 0.104400 -0.481686
O14   O     O_R   0.037020 0.167050 0.097880 -0.461500
O15   O     O_R   0.056310 0.349620 0.102920 -0.486451
O16   O     O_R   0.797790 0.564880 0.097980 -0.453524
O17   O     O_R   0.596000 0.584270 0.104310 -0.480833
O18   O     O_R   0.638950 0.325690 0.099180 -0.507460
O19   O     O_3   0.824700 0.350240 0.028120 -0.284647
O20   O     O_R   0.728110 0.003450 0.576380 -0.498803
O21   O     O_R   0.682980 0.789190 0.570500 -0.494418
O22   O     O_R   0.499300 0.771880 0.575540 -0.503373
O23   O     O_R   0.285350 0.030870 0.569740 -0.483978
O24   O     O_R   0.270960 0.227070 0.423890 -0.496443
O25   O     O_R   0.530270 0.182120 0.430040 -0.491025
O26   O     O_R   0.731320 0.998570 0.424830 -0.501749
H9    H     H_    0.386416 0.185171 0.179307 0.117823
H10   H     H_    0.324134 0.357568 0.307184 0.221440
C49   C     C_2   0.554958 0.395360 0.363841 0.582704
O27   O     O_2   0.614737 0.391966 0.416032 -0.506398
O28   O     O_R   0.427435 0.502470 0.352340 -0.678351
H11   H     H_    0.393895 0.568544 0.391928 0.340798
H12   H     H_    0.825773 0.834160 0.293874 0.181770
C50   C     C_2   0.922949 0.604666 0.213370 0.569221
O29   O     O_2   0.932229 0.642463 0.156616 -0.510454
O30   O     O_R   0.031691 0.559875 0.257583 -0.713874
H13   H     H_    0.108604 0.566853 0.237096 0.362246
C51   C     C_2   0.354705 0.673947 0.189740 0.632589
O31   O     O_2   0.318739 0.614606 0.228113 -0.527007
O32   O     O_R   0.330262 0.675924 0.119712 -0.628269
H14   H     H_    0.282811 0.624635 0.107350 0.329256
H15   H     H_    0.410488 0.832039 0.185295 0.118580
H16   H     H_    0.395188 0.876213 0.305038 0.109769
C52   C     C_2   0.101273 0.987248 0.201712 0.588981
O33   O     O_2   0.142330 0.940277 0.144840 -0.468910
O34   O     O_R   0.039972 0.933331 0.242082 -0.704342
H17   H     H_    0.034315 0.857991 0.218177 0.354417
H18   H     H_    0.287475 0.371463 0.186740 0.179368

loop_
_geom_bond_atom_site_label_1
_geom_bond_atom_site_label_2
_ccdc_geom_bond_type
C21   C26   S    
C38   O8    A    
O28   H11   S    
Cr1   O1    S    
C34   C37   S    
Cr2   O2    S    
O34   H17   S    
C14   C18   S    
C35   C36   S    
Cr4   O13   S    
C2    C12   S    
Cr3   O23   S    
C20   C41   S    
C44   O2    A    
C26   H9    S    
C15   C19   A    
C26   C27   S    
C30   C35   S    
C27   H10   S    
C35   H4    S    
C1    O12   A    
Cr5   O19   S    
C17   H15   S    
C41   O15   A    
C30   C31   A    
C32   C49   S    
C52   O33   D    
C15   C16   A    
C29   C33   A    
C40   O11   A    
C12   O22   A    
C11   C42   S    
C35   H5    S    
Cr3   O3    S    
Cr1   O25   S    
Cr4   O7    S    
C3    C38   S    
C8    C9    S    
C20   C25   A    
C50   O30   S    
Cr2   O21   S    
C33   H3    S    
C39   O10   A    
Cr2   O5    S    
C26   H18   S    
Cr4   O6    S    
Cr2   O26   S    
C23   O1    A    
C38   O7    A    
C42   O17   A    
C22   C28   A    
C21   C22   A    
C29   C43   S    
C44   O3    A    
O32   H14   S    
Cr5   O8    S    
C14   C19   A    
C25   C52   S    
Cr6   O18   S    
C43   O13   A    
C46   C48   T    
C28   C45   S    
C16   C50   S    
C24   C25   A    
C4    C6    T    
C49   O27   D    
C27   H2    S    
C34   O26   A    
C3    C5    T    
C1    O20   A    
C31   C37   A    
C12   O21   A    
Cr3   O4    S    
C15   H1    S    
Cr5   O15   S    
C29   C30   A    
C49   O28   S    
Cr6   O11   S    
C11   C16   A    
C47   C48   S    
C7    C40   S    
C50   O29   D    
C51   O32   S    
C17   C18   S    
Cr3   O5    S    
C32   C37   A    
C39   C46   S    
C42   O16   A    
C22   C27   S    
C23   O23   A    
Cr5   O9    S    
C19   C44   S    
Cr2   O20   S    
Cr6   O17   S    
C7    C9    T    
C24   H8    S    
Cr1   O5    S    
Cr1   O12   S    
Cr1   O24   S    
C1    C10   S    
C24   C28   A    
C4    C5    S    
Cr4   O14   S    
C18   H7    S    
C2    C47   T    
C13   C17   S    
C32   C33   A    
C45   O24   A    
C43   O18   A    
C18   H16   S    
C41   O14   A    
C11   C13   A    
C36   H12   S    
C52   O34   S    
C6    C23   S    
C51   O31   D    
Cr5   O16   S    
C34   O25   A    
Cr4   O19   S    
C17   C51   S    
Cr6   O10   S    
C20   C21   A    
C8    C10   T    
O30   H13   S    
C40   O6    A    
C45   O4    A    
C36   H6    S    
C31   C36   S    
C13   C14   A    
Cr3   O22   S    
Cr6   O19   S    
C39   O9    A    
