data_mof_unit_26182.cif
_audit_creation_date              2013-03-05T15:55:34-0500
_audit_creation_method            fapswitch 2.2
_symmetry_space_group_name_H-M    P1
_symmetry_Int_Tables_number       1
_space_group_crystal_system       triclinic
_cell_length_a                    14.010374
_cell_length_b                    13.997345
_cell_length_c                    31.821978
_cell_angle_alpha                 89.90056
_cell_angle_beta                  89.994228
_cell_angle_gamma                 120.030429
_cell_volume                      5402.80167762

loop_
_atom_site_label
_atom_site_type_symbol
_atom_site_description
_atom_site_fract_x
_atom_site_fract_y
_atom_site_fract_z
_atom_type_partial_charge
O1    O     O_R   0.480350 0.140770 0.796330 -0.524041
O2    O     O_R   0.660420 0.519650 0.703670 -0.524018
O3    O     O_R   0.859230 0.339580 0.796330 -0.525371
O4    O     O_R   0.480350 0.140770 0.703670 -0.521690
O5    O     O_R   0.660420 0.519650 0.796330 -0.524218
O6    O     O_R   0.859230 0.339580 0.703670 -0.531629
O7    O     O_R   0.140770 0.480350 0.296330 -0.523579
O8    O     O_R   0.519650 0.660420 0.203670 -0.525463
O9    O     O_R   0.339580 0.859230 0.296330 -0.521741
O10   O     O_R   0.140770 0.480350 0.203670 -0.524313
O11   O     O_R   0.519650 0.660420 0.296330 -0.531503
O12   O     O_R   0.339580 0.859230 0.203670 -0.524212
O13   O     O_R   0.514930 0.348530 0.793250 -0.505290
O14   O     O_R   0.833600 0.485070 0.706750 -0.504813
O15   O     O_R   0.651470 0.166400 0.793250 -0.504818
O16   O     O_R   0.514930 0.348530 0.706750 -0.508437
O17   O     O_R   0.833600 0.485070 0.793250 -0.504995
O18   O     O_R   0.651470 0.166400 0.706750 -0.512646
O19   O     O_R   0.348530 0.514930 0.293250 -0.504599
O20   O     O_R   0.485070 0.833600 0.206750 -0.504794
O21   O     O_R   0.166400 0.651470 0.293250 -0.508326
O22   O     O_R   0.348530 0.514930 0.206750 -0.505064
O23   O     O_R   0.485070 0.833600 0.293250 -0.512403
O24   O     O_R   0.166400 0.651470 0.206750 -0.505347
C1    C     C_R   0.566600 0.444604 0.810265 0.843496
C2    C     C_R   0.877830 0.433305 0.689678 0.839971
C3    C     C_R   0.555296 0.121890 0.810253 0.850217
C4    C     C_R   0.566621 0.444822 0.689792 0.841707
C5    C     C_R   0.877962 0.433319 0.810268 0.843525
C6    C     C_R   0.555805 0.123247 0.689657 0.863936
C7    C     C_R   0.444535 0.566629 0.310298 0.839222
C8    C     C_R   0.433393 0.878087 0.189740 0.850154
C9    C     C_R   0.121697 0.555154 0.310181 0.841579
C10   C     C_R   0.444650 0.566691 0.189730 0.843217
C11   C     C_R   0.432616 0.876863 0.310314 0.863452
C12   C     C_R   0.122011 0.555396 0.189733 0.843435
C13   C     C_1   0.001082 0.522678 0.018869 0.150268
C14   C     C_1   0.540552 0.991789 0.481412 0.178205
C15   C     C_1   0.477135 0.478772 0.018826 0.150154
C16   C     C_1   0.996634 0.520397 0.480500 0.160735
C17   C     C_1   0.521735 0.998704 0.018827 0.150402
C18   C     C_1   0.476432 0.479742 0.481473 0.154345
C19   C     C_1   0.550208 0.010980 0.518302 0.178689
C20   C     C_1   0.998701 0.521429 0.981133 0.150323
C21   C     C_1   0.477607 0.478485 0.519197 0.160603
C22   C     C_1   0.522730 0.000683 0.981095 0.150611
C23   C     C_1   0.994211 0.519068 0.518227 0.153617
C24   C     C_1   0.478242 0.477517 0.981091 0.150417
Cr1   Cr    Cr6+3 0.504240 0.249200 0.750000 1.120440
Cr2   Cr    Cr6+3 0.744960 0.495760 0.750000 1.119901
Cr3   Cr    Cr6+3 0.750800 0.255040 0.750000 1.109063
Cr4   Cr    Cr6+3 0.249200 0.504240 0.250000 1.120266
Cr5   Cr    Cr6+3 0.495760 0.744960 0.250000 1.109269
Cr6   Cr    Cr6+3 0.255040 0.750800 0.250000 1.120435
O25   O     O_3   0.666667 0.333333 0.750000 -0.391042
O26   O     O_3   0.333333 0.666667 0.250000 -0.390941
C25   C     C_R   0.937427 0.473547 0.850738 -0.241677
C26   C     C_R   0.541141 0.073625 0.647738 -0.226157
C27   C     C_R   0.526149 0.463790 0.850705 -0.241835
C28   C     C_R   0.936162 0.472793 0.648934 -0.234395
C29   C     C_R   0.535910 0.061934 0.850690 -0.241734
C30   C     C_R   0.526213 0.464602 0.649455 -0.240161
C31   C     C_R   0.467969 0.927205 0.352111 -0.226623
C32   C     C_R   0.062466 0.536215 0.149275 -0.241622
C33   C     C_R   0.463496 0.526698 0.350916 -0.234902
C34   C     C_R   0.473858 0.937897 0.149270 -0.241519
C35   C     C_R   0.060910 0.535225 0.350391 -0.240870
C36   C     C_R   0.463893 0.526531 0.149244 -0.241531
C37   C     C_R   0.955022 0.572718 0.869756 0.365017
C38   C     C_R   0.604953 0.027183 0.633607 0.365843
C39   C     C_R   0.427228 0.381948 0.869889 0.364761
C40   C     C_R   0.954374 0.572185 0.629796 0.365411
C41   C     C_R   0.617468 0.044363 0.869732 0.365074
C42   C     C_R   0.426167 0.383913 0.630686 0.353384
C43   C     C_R   0.578279 0.973562 0.366163 0.365862
C44   C     C_R   0.045151 0.617936 0.130124 0.364664
C45   C     C_R   0.381958 0.427614 0.370127 0.365829
C46   C     C_R   0.573029 0.955568 0.130229 0.365009
C47   C     C_R   0.041783 0.616074 0.369166 0.353737
C48   C     C_R   0.382383 0.427311 0.130239 0.365013
C49   C     C_R   0.979042 0.588958 0.912795 -0.188539
C50   C     C_R   0.608329 0.008587 0.590462 -0.180949
C51   C     C_R   0.410931 0.389823 0.912924 -0.188584
C52   C     C_R   0.977156 0.587778 0.586621 -0.189329
C53   C     C_R   0.609733 0.020237 0.912788 -0.188273
C54   C     C_R   0.409798 0.391688 0.587626 -0.173910
C55   C     C_R   0.600555 0.992949 0.409261 -0.181020
C56   C     C_R   0.021106 0.610143 0.087076 -0.188534
C57   C     C_R   0.389608 0.411691 0.413229 -0.189920
C58   C     C_R   0.589338 0.979513 0.087156 -0.188294
C59   C     C_R   0.016929 0.607944 0.412165 -0.174419
C60   C     C_R   0.390106 0.411123 0.087188 -0.188635
C61   C     C_R   0.993283 0.512495 0.936193 -0.106303
C62   C     C_R   0.548683 0.034262 0.561881 -0.103663
C63   C     C_R   0.487046 0.480902 0.936139 -0.106412
C64   C     C_R   0.989159 0.510145 0.563167 -0.104197
C65   C     C_R   0.519008 0.005710 0.936152 -0.106449
C66   C     C_R   0.486703 0.481960 0.564116 -0.107857
C67   C     C_R   0.515501 0.968226 0.437862 -0.104080
C68   C     C_R   0.006484 0.519239 0.063821 -0.106535
C69   C     C_R   0.479987 0.488626 0.436536 -0.103664
C70   C     C_R   0.512989 0.993742 0.063771 -0.106523
C71   C     C_R   0.002512 0.517154 0.435581 -0.107528
C72   C     C_R   0.480702 0.487700 0.063766 -0.106391
C73   C     C_R   0.991713 0.422072 0.916200 0.395297
C74   C     C_R   0.480844 0.075275 0.576040 0.410380
C75   C     C_R   0.577099 0.570019 0.915957 0.395161
C76   C     C_R   0.986223 0.418934 0.583160 0.396550
C77   C     C_R   0.430016 0.006883 0.916115 0.395415
C78   C     C_R   0.577702 0.570411 0.583976 0.393603
C79   C     C_R   0.406647 0.927487 0.423757 0.409588
C80   C     C_R   0.007660 0.430212 0.083968 0.395058
C81   C     C_R   0.568539 0.579372 0.416433 0.396928
C82   C     C_R   0.422731 0.992422 0.083794 0.395319
C83   C     C_R   0.004621 0.428537 0.415654 0.394106
C84   C     C_R   0.569509 0.578196 0.083739 0.395244
C85   C     C_R   0.961804 0.402532 0.873802 -0.231732
C86   C     C_R   0.476709 0.092844 0.618911 -0.249261
C87   C     C_R   0.596737 0.559543 0.873574 -0.229776
C88   C     C_R   0.958076 0.400411 0.625723 -0.241707
C89   C     C_R   0.440400 0.037035 0.873706 -0.230859
C90   C     C_R   0.597650 0.559720 0.626292 -0.225704
C91   C     C_R   0.384638 0.909065 0.380932 -0.248788
C92   C     C_R   0.037654 0.440622 0.126359 -0.230037
C93   C     C_R   0.558484 0.598292 0.373942 -0.241243
C94   C     C_R   0.403071 0.962478 0.126223 -0.231268
C95   C     C_R   0.036101 0.439604 0.373420 -0.224692
C96   C     C_R   0.559191 0.597670 0.126150 -0.231923
N1    N     N_R   0.949102 0.657160 0.846126 0.141457
O27   O     O_R   0.999096 0.688774 0.810026 -0.303873
O28   O     O_R   0.911430 0.715661 0.863612 -0.298028
N2    N     N_R   0.664864 0.997265 0.662410 0.139055
O29   O     O_R   0.624278 0.957495 0.699325 -0.320642
O30   O     O_R   0.752885 0.996284 0.649995 -0.287391
N3    N     N_R   0.343100 0.291235 0.846430 0.141139
O31   O     O_R   0.285088 0.194951 0.864064 -0.298635
O32   O     O_R   0.311176 0.309354 0.810369 -0.303822
N4    N     N_R   0.950292 0.657436 0.653439 0.141028
O33   O     O_R   0.000492 0.688139 0.689478 -0.303105
O34   O     O_R   0.913823 0.717187 0.636050 -0.298185
N5    N     N_R   0.707750 0.050418 0.846108 0.141640
O35   O     O_R   0.689271 0.000596 0.810025 -0.298156
O36   O     O_R   0.803891 0.087946 0.863594 -0.298885
N6    N     N_R   0.340704 0.295110 0.654649 0.137167
O37   O     O_R   0.312973 0.315042 0.691237 -0.305438
O38   O     O_R   0.277105 0.200103 0.637033 -0.296730
N7    N     N_R   0.667867 0.002608 0.337326 0.139142
O39   O     O_R   0.667151 0.042083 0.300340 -0.320364
O40   O     O_R   0.756669 0.003239 0.349772 -0.287317
N8    N     N_R   0.051294 0.708394 0.153632 0.141092
O41   O     O_R   0.001414 0.690004 0.189744 -0.304085
O42   O     O_R   0.088910 0.804603 0.136008 -0.298139
N9    N     N_R   0.291668 0.343051 0.346646 0.141023
O43   O     O_R   0.195319 0.284987 0.364140 -0.299586
O44   O     O_R   0.310129 0.311113 0.310683 -0.302463
N10   N     N_R   0.657382 0.949811 0.153873 0.141619
O45   O     O_R   0.688564 0.999665 0.189955 -0.298125
O46   O     O_R   0.716225 0.912508 0.136410 -0.298685
N11   N     N_R   0.046053 0.705401 0.345271 0.137232
O47   O     O_R   0.998678 0.686038 0.308641 -0.305057
O48   O     O_R   0.077845 0.800357 0.362999 -0.297235
N12   N     N_R   0.292158 0.342767 0.153895 0.141387
O49   O     O_R   0.310687 0.311321 0.190001 -0.304222
O50   O     O_R   0.195994 0.284046 0.136433 -0.297851
H1    H     H_    0.014916 0.675797 0.071519 0.223889
H2    H     H_    0.684505 0.028353 0.420544 0.224300
H3    H     H_    0.324616 0.339094 0.071758 0.223804
H4    H     H_    0.009676 0.673061 0.427555 0.228480
H5    H     H_    0.661239 0.985867 0.071678 0.224276
H6    H     H_    0.324175 0.339650 0.428790 0.220796
H7    H     H_    0.656668 0.973003 0.579122 0.223846
H8    H     H_    0.985485 0.660937 0.928237 0.223796
H9    H     H_    0.337269 0.326716 0.572268 0.228542
H10   H     H_    0.675328 0.013989 0.928271 0.224270
H11   H     H_    0.984377 0.660151 0.571125 0.221216
H12   H     H_    0.339196 0.324077 0.928504 0.223793
H13   H     H_    0.045373 0.374979 0.141048 0.241052
H14   H     H_    0.299854 0.872226 0.370601 0.224361
H15   H     H_    0.624637 0.671227 0.140713 0.240695
H16   H     H_    0.044789 0.374414 0.358940 0.242406
H17   H     H_    0.329634 0.954538 0.140834 0.241058
H18   H     H_    0.623845 0.671989 0.359288 0.228124
H19   H     H_    0.428981 0.129876 0.629302 0.223606
H20   H     H_    0.953792 0.329028 0.859225 0.240740
H21   H     H_    0.671704 0.624767 0.640727 0.241839
H22   H     H_    0.374858 0.044865 0.859083 0.241264
H23   H     H_    0.949170 0.326392 0.640291 0.228026
H24   H     H_    0.669992 0.625265 0.858853 0.241083
N13   N     N_R   0.982306 0.330883 0.061609 0.156081
O51   O     O_R   0.906420 0.292417 0.032732 -0.328770
O52   O     O_R   0.025105 0.271373 0.073410 -0.275782
N14   N     N_R   0.317076 0.901578 0.452346 0.134108
O53   O     O_R   0.311306 0.855105 0.488434 -0.356001
O54   O     O_R   0.233915 0.911845 0.440259 -0.285785
N15   N     N_R   0.668508 0.652575 0.061187 0.155901
O55   O     O_R   0.707109 0.615437 0.032250 -0.328406
O56   O     O_R   0.727595 0.755034 0.072844 -0.276480
N16   N     N_R   0.978498 0.328903 0.438087 0.155622
O57   O     O_R   0.901142 0.289737 0.466459 -0.331038
O58   O     O_R   0.021821 0.269637 0.426680 -0.275608
N17   N     N_R   0.348764 0.017521 0.061270 0.155940
O59   O     O_R   0.386170 0.093206 0.032197 -0.329070
O60   O     O_R   0.246482 0.974699 0.073073 -0.275867
N18   N     N_R   0.666929 0.654798 0.438927 0.153546
O61   O     O_R   0.706823 0.618494 0.467731 -0.324964
O62   O     O_R   0.724324 0.757588 0.427282 -0.292602
N19   N     N_R   0.417983 0.102260 0.547465 0.133381
O63   O     O_R   0.459349 0.149236 0.511508 -0.356609
O64   O     O_R   0.324637 0.092373 0.559450 -0.287054
N20   N     N_R   0.016586 0.347838 0.938720 0.155917
O65   O     O_R   0.092398 0.385114 0.967625 -0.328480
O66   O     O_R   0.973386 0.245400 0.927056 -0.276321
N21   N     N_R   0.651985 0.669471 0.561398 0.155733
O67   O     O_R   0.614523 0.709048 0.532909 -0.330062
O68   O     O_R   0.754699 0.727876 0.572751 -0.276702
N22   N     N_R   0.330789 0.981407 0.938607 0.155964
O69   O     O_R   0.292656 0.905684 0.967666 -0.329281
O70   O     O_R   0.271054 0.023898 0.926781 -0.275533
N23   N     N_R   0.007607 0.342653 0.560490 0.153646
O71   O     O_R   0.083639 0.378185 0.531628 -0.323988
O72   O     O_R   0.960934 0.239699 0.572031 -0.293680
N24   N     N_R   0.650876 0.669508 0.938271 0.156019
O73   O     O_R   0.613309 0.707779 0.967172 -0.329018
O74   O     O_R   0.753103 0.729324 0.926409 -0.275570

loop_
_geom_bond_atom_site_label_1
_geom_bond_atom_site_label_2
_geom_bond_distance
_ccdc_geom_bond_type
O16   C4    1.285580 A    
C16   C23   1.200857 T    
C88   H23   1.082988 S    
C36   C48   1.419256 A    
C66   C78   1.407366 A    
C24   C63   1.434429 S    
C31   C91   1.403897 A    
C69   C81   1.407684 A    
N17   O59   1.301404 A    
C76   C88   1.397697 A    
O8    Cr5   2.021956 S    
N7    O39   1.301520 A    
C30   C90   1.407242 A    
C77   N22   1.440431 S    
O19   C7    1.286243 A    
C85   H20   1.082776 S    
O4    C6    1.279216 A    
N3    O31   1.301055 A    
C41   N5    1.436840 S    
C86   H19   1.082895 S    
C46   C58   1.401769 A    
C45   C57   1.401894 A    
O24   C12   1.286054 A    
C50   C62   1.397940 A    
C95   H16   1.082779 S    
C14   C67   1.427709 S    
C84   N15   1.440341 S    
C8    C34   1.483857 S    
N10   O45   1.301497 A    
N7    O40   1.301524 A    
N22   O70   1.301259 A    
O7    Cr4   2.020539 S    
C80   C92   1.398944 A    
C21   C66   1.433820 S    
N5    O36   1.301095 A    
C47   N11   1.437678 S    
O21   Cr6   1.906392 S    
C82   C94   1.398900 A    
O9    C11   1.279249 A    
C7    C33   1.483199 S    
C81   N18   1.439921 S    
C55   H2    1.084066 S    
O21   C9    1.285448 A    
C28   C40   1.418874 A    
O24   Cr6   1.910055 S    
N15   O56   1.301269 A    
C26   C86   1.403961 A    
C19   C62   1.427711 S    
C83   C95   1.398414 A    
C17   C70   1.434017 S    
C29   C89   1.407326 A    
C52   C64   1.397088 A    
C49   H8    1.084147 S    
N13   O52   1.301281 A    
C87   H24   1.082795 S    
C58   C70   1.396615 A    
C42   N6    1.437720 S    
C20   C61   1.434490 S    
C3    C29   1.483896 S    
C61   C73   1.407877 A    
C80   N13   1.440356 S    
C72   C84   1.407853 A    
C76   N23   1.439820 S    
O19   Cr4   1.909440 S    
N2    O29   1.301528 A    
O1    Cr1   2.018117 S    
C23   C64   1.433965 S    
N11   O48   1.301272 A    
N16   O57   1.301415 A    
O18   C6    1.283777 A    
O15   Cr3   1.906761 S    
O6    Cr3   2.018876 S    
N9    O44   1.301488 A    
C52   H11   1.084104 S    
O2    Cr2   2.020738 S    
C44   C56   1.402032 A    
C47   C59   1.402214 A    
O11   Cr5   2.019005 S    
C53   C65   1.396556 A    
C75   N24   1.440396 S    
C45   N9    1.436708 S    
C40   N4    1.436903 S    
C89   H22   1.082761 S    
O11   C7    1.282032 A    
C79   N14   1.441214 S    
C51   H12   1.084146 S    
O12   C8    1.282937 A    
N17   O60   1.301248 A    
C73   C85   1.399067 A    
N24   O73   1.301391 A    
C91   H14   1.082855 S    
C34   C46   1.419214 A    
C75   C87   1.399006 A    
O20   C8    1.286511 A    
O18   Cr3   1.910071 S    
O23   Cr5   1.909950 S    
C39   C51   1.401909 A    
N21   O68   1.301272 A    
O22   C10   1.285962 A    
C83   N16   1.440163 S    
Cr6   O26   1.970544 S    
C40   C52   1.402245 A    
C33   C45   1.418926 A    
O7    C9    1.282045 A    
C79   C91   1.392981 A    
N19   O63   1.301288 A    
C59   H4    1.084070 S    
C15   C72   1.434455 S    
C78   N21   1.440116 S    
C35   C47   1.419618 A    
O16   Cr1   1.906468 S    
N6    O38   1.301277 A    
C10   C36   1.484150 S    
N23   O71   1.301352 A    
O3    Cr3   2.022094 S    
C26   C38   1.416589 A    
C90   H21   1.082804 S    
C43   N7    1.438931 S    
C32   C92   1.407434 A    
O14   C2    1.286409 A    
C73   N20   1.440336 S    
C34   C94   1.407348 A    
C18   C21   1.200805 T    
C33   C93   1.407160 A    
C48   C60   1.401926 A    
C71   C83   1.407480 A    
O14   Cr2   1.909250 S    
C11   C31   1.471388 S    
C70   C82   1.407781 A    
C35   C95   1.407180 A    
N23   O72   1.301579 A    
C49   C61   1.396672 A    
O10   Cr4   2.021611 S    
O15   C3    1.286440 A    
N11   O47   1.301528 A    
C44   N8    1.436821 S    
C17   C22   1.200910 T    
N22   O69   1.301403 A    
C67   C79   1.408224 A    
C38   N2    1.438972 S    
C53   H10   1.084153 S    
C32   C44   1.419187 A    
C82   N17   1.440409 S    
C46   N10   1.436862 S    
C96   H15   1.082774 S    
O8    C10   1.282349 A    
C51   C63   1.396739 A    
C42   C54   1.402341 A    
N24   O74   1.301281 A    
C41   C53   1.401703 A    
C92   H13   1.082786 S    
C56   C68   1.396796 A    
C63   C75   1.407869 A    
N2    O30   1.301516 A    
O13   Cr1   1.909968 S    
C43   C55   1.403034 A    
C22   C65   1.434009 S    
N18   O62   1.301579 A    
C68   C80   1.407803 A    
O23   C11   1.283800 A    
C84   C96   1.399028 A    
N8    O42   1.301068 A    
O5    Cr2   2.021408 S    
C18   C69   1.433861 S    
C74   N19   1.441203 S    
O3    C5    1.282409 A    
C9    C35   1.483609 S    
C25   C85   1.407384 A    
N12   O49   1.301495 A    
C5    C25   1.484203 S    
Cr5   O26   1.970641 S    
N3    O32   1.301491 A    
C36   C96   1.407396 A    
C50   H7    1.084054 S    
C62   C74   1.408150 A    
C27   C87   1.407417 A    
C57   C69   1.396872 A    
C93   H18   1.082995 S    
C59   C71   1.396692 A    
O20   Cr5   1.906868 S    
O13   C1    1.286016 A    
O17   Cr2   1.909053 S    
C57   H6    1.084134 S    
O2    C4    1.281834 A    
N4    O34   1.301119 A    
N20   O66   1.301270 A    
Cr2   O25   1.968766 S    
O4    Cr1   2.022014 S    
N6    O37   1.301510 A    
C54   H9    1.084049 S    
C29   C41   1.419248 A    
N14   O53   1.301260 A    
C13   C20   1.201190 T    
N10   O46   1.301097 A    
C65   C77   1.407828 A    
N1    O27   1.301496 A    
N19   O64   1.301362 A    
C56   H1    1.084137 S    
N12   O50   1.301099 A    
Cr1   O25   1.970556 S    
N5    O35   1.301508 A    
C78   C90   1.398205 A    
C16   C71   1.433883 S    
C39   N3    1.436752 S    
C60   H3    1.084146 S    
C77   C89   1.398978 A    
O6    C2    1.281802 A    
C31   C43   1.416659 A    
N21   O67   1.301400 A    
C6    C26   1.471233 S    
C58   H5    1.084145 S    
O10   C12   1.282156 A    
C28   C88   1.407198 A    
O22   Cr4   1.908865 S    
Cr3   O25   1.970630 S    
C38   C50   1.403073 A    
C64   C76   1.407517 A    
N13   O51   1.301397 A    
C54   C66   1.396822 A    
O12   Cr6   2.018061 S    
C37   C49   1.401892 A    
N4    O33   1.301491 A    
C60   C72   1.396705 A    
N15   O55   1.301391 A    
C55   C67   1.397892 A    
O17   C5    1.285933 A    
C14   C19   1.197183 T    
C81   C93   1.397982 A    
N18   O61   1.301353 A    
C37   N1    1.436806 S    
N20   O65   1.301394 A    
C48   N12   1.436829 S    
C27   C39   1.419178 A    
O1    C3    1.283005 A    
N8    O41   1.301500 A    
C30   C42   1.419505 A    
C94   H17   1.082767 S    
N16   O58   1.301287 A    
O9    Cr6   2.022078 S    
C1    C27   1.484191 S    
C25   C37   1.419289 A    
N9    O43   1.301089 A    
C12   C32   1.484204 S    
C2    C28   1.483117 S    
C13   C68   1.434483 S    
C74   C86   1.392981 A    
Cr4   O26   1.968767 S    
N14   O54   1.301378 A    
C15   C24   1.201164 T    
N1    O28   1.301106 A    
O5    C1    1.282214 A    
C4    C30   1.483449 S    
