data_mof_unit_26013.cif
_audit_creation_date              2012-12-11T20:19:39-0500
_audit_creation_method            fapswitch 2.2
_symmetry_space_group_name_H-M    P1
_symmetry_Int_Tables_number       1
_space_group_crystal_system       triclinic
_cell_length_a                    8.231484
_cell_length_b                    17.370769
_cell_length_c                    22.849483
_cell_angle_alpha                 99.529248
_cell_angle_beta                  89.518032
_cell_angle_gamma                 98.412851
_cell_volume                      3187.01081056

loop_
_atom_site_label
_atom_site_type_symbol
_atom_type_description
_atom_site_fract_x
_atom_site_fract_y
_atom_site_fract_z
_atom_type_partial_charge
Ba1   Ba    Ba6+2 0.857050 0.537370 0.474190 1.641952
Ba2   Ba    Ba6+2 0.332790 0.462700 0.525820 1.639504
C1    C     C_3   0.683508 0.823191 0.325464 -0.369711
C2    C     C_R   0.103912 0.567530 0.943528 -0.027795
C3    C     C_R   0.057627 0.562959 0.883111 0.596015
C4    C     C_3   0.121495 0.728158 0.324199 0.352213
C5    C     C_R   0.941511 0.426933 0.878633 0.570599
C6    C     C_R   0.987436 0.429596 0.938459 -0.015256
C7    C     C_R   0.068846 0.500240 0.971116 -0.052489
C8    C     C_R   0.183979 0.637993 0.977245 -0.074752
C9    C     C_R   0.227569 0.641493 0.036884 -0.075500
C10   C     C_R   0.193737 0.574510 0.064852 -0.020849
C11   C     C_R   0.114766 0.503563 0.031660 -0.052191
C12   C     C_3   0.651901 0.742744 0.344835 0.360578
C13   C     C_R   0.953768 0.362541 0.966290 -0.074883
C14   C     C_R   0.000911 0.365448 0.025271 -0.076580
C15   C     C_R   0.081736 0.435754 0.058738 -0.024961
C16   C     C_3   0.103416 0.769543 0.271414 -0.366368
C17   C     C_R   0.130947 0.439374 0.118453 0.588339
C18   C     C_R   0.236408 0.577061 0.125225 0.583321
C19   C     C_2   0.783296 0.450763 0.766652 -0.083797
C20   C     C_3   0.756951 0.424885 0.700700 -0.050697
C21   C     C_1   0.005594 0.516084 0.686899 0.029385
C22   C     C_2   0.051644 0.519941 0.743568 -0.105850
C23   C     C_3   0.478900 0.344952 0.342495 0.297358
C24   C     C_2   0.932745 0.487969 0.787836 0.192636
C25   C     C_R   0.413164 0.546608 0.234662 -0.100301
C26   C     C_R   0.457700 0.550827 0.294396 -0.027318
C27   C     C_R   0.188585 0.483772 0.313975 0.033150
C28   C     C_3   0.229328 0.702568 0.603336 0.301191
C29   C     C_R   0.141673 0.480668 0.254302 -0.088653
C30   C     C_R   0.253001 0.512892 0.213807 0.207697
C31   C     C_2   0.863710 0.476425 0.664632 -0.288850
C32   C     C_2   0.449870 0.719262 0.480188 -0.258620
C33   C     C_3   0.372699 0.770319 0.444210 -0.048272
C34   C     C_3   0.470068 0.323367 0.275226 -0.364320
C35   C     C_2   0.422081 0.856943 0.465148 -0.107616
C36   C     C_2   0.553472 0.883572 0.501857 0.007796
C37   C     C_2   0.636640 0.825451 0.527204 -0.131472
C38   C     C_1   0.576762 0.749371 0.516327 0.061298
C39   C     C_R   0.795772 0.136732 0.529856 -0.125786
C40   C     C_3   0.267876 0.792421 0.620043 -0.217811
C41   C     C_R   0.853617 0.217531 0.538010 0.014783
C42   C     C_R   0.618412 0.239581 0.483615 0.039068
C43   C     C_R   0.560718 0.158921 0.474571 -0.116092
C44   C     C_R   0.647310 0.107075 0.498455 0.012652
C45   C     C_3   0.054751 0.294800 0.680190 0.337983
C46   C     C_2   0.616131 0.969036 0.518051 -0.075379
C47   C     C_2   0.588132 0.021850 0.483764 -0.073424
C48   C     C_R   0.760921 0.269043 0.517382 -0.283683
C49   C     C_3   0.963852 0.296027 0.395277 0.310518
C50   C     C_3   0.936558 0.206811 0.376656 -0.381336
C51   C     C_3   0.713520 0.639311 0.655308 0.296303
C52   C     C_3   0.718046 0.659532 0.722676 -0.360441
C53   C     C_3   0.118168 0.829312 0.645241 -0.161435
C54   C     C_3   0.149687 0.919045 0.650475 -0.435200
C55   C     C_3   0.074145 0.272860 0.741150 -0.330204
C56   C     C_3   0.507445 0.253617 0.652255 0.367962
C57   C     C_3   0.461724 0.174687 0.673230 -0.370201
C58   C     C_R   0.344573 0.520857 0.333634 -0.300268
H1    H     H_    0.701329 0.748885 0.390775 0.066912
H2    H     H_    0.620333 0.586286 0.642049 0.075331
H3    H     H_    0.815747 0.847738 0.330863 0.137738
H4    H     H_    0.814590 0.710726 0.737354 0.125460
H5    H     H_    0.745526 0.608465 0.742195 0.074305
H6    H     H_    0.597039 0.674356 0.738951 0.135153
H7    H     H_    0.517596 0.723780 0.343694 -0.059438
H8    H     H_    0.611980 0.864477 0.353349 0.067722
H9    H     H_    0.356394 0.357671 0.358413 0.020804
H10   H     H_    0.571406 0.398624 0.354368 0.056905
H11   H     H_    0.377065 0.270304 0.261819 0.137139
H12   H     H_    0.370518 0.807909 0.653192 0.111154
H13   H     H_    0.434667 0.372972 0.255622 0.071364
H14   H     H_    0.591735 0.310975 0.257928 0.131009
H15   H     H_    0.645245 0.818099 0.278317 0.128593
H16   H     H_    0.157415 0.737634 0.231619 0.137846
H17   H     H_    0.135075 0.351872 0.678567 0.085407
H18   H     H_    0.924218 0.301477 0.673965 -0.052399
H19   H     H_    0.197733 0.255351 0.746341 0.151020
H20   H     H_    0.063247 0.325252 0.775665 0.128126
H21   H     H_    0.977237 0.222588 0.747494 0.115979
H22   H     H_    0.643708 0.265029 0.650144 -0.069621
H23   H     H_    0.308701 0.817018 0.579707 0.072671
H24   H     H_    0.454288 0.248865 0.607010 0.079699
H25   H     H_    0.512928 0.127972 0.642550 0.068880
H26   H     H_    0.326266 0.158612 0.673914 0.149153
H27   H     H_    0.051198 0.667676 0.315163 0.087771
H28   H     H_    0.513040 0.177964 0.718554 0.120652
H29   H     H_    0.973026 0.312294 0.044690 0.124240
H30   H     H_    0.891272 0.307158 0.942401 0.123622
H31   H     H_    0.288573 0.697024 0.061038 0.120825
H32   H     H_    0.503158 0.569177 0.204553 0.112321
H33   H     H_    0.213027 0.690921 0.957628 0.122660
H34   H     H_    0.846693 0.316150 0.409475 0.002851
H35   H     H_    0.176405 0.544909 0.757802 0.129440
H36   H     H_    0.689845 0.429501 0.796288 0.122807
H37   H     H_    0.019344 0.452942 0.239477 0.125499
H38   H     H_    0.380935 0.523286 0.379369 0.080311
H39   H     H_    0.253585 0.723513 0.328133 -0.064102
H40   H     H_    0.836273 0.467899 0.617439 0.080869
H41   H     H_    0.517704 0.002839 0.442737 0.068387
H42   H     H_    0.744670 0.846345 0.555620 0.076244
H43   H     H_    0.871037 0.097362 0.544714 0.074275
H44   H     H_    0.689347 0.988196 0.558530 0.069843
H45   H     H_    0.053402 0.311555 0.432808 0.076204
H46   H     H_    0.352703 0.896664 0.447611 0.070538
H47   H     H_    0.451151 0.136359 0.447528 0.075648
H48   H     H_    0.413855 0.655914 0.469044 0.078967
H49   H     H_    0.807014 0.331473 0.523065 0.066746
H50   H     H_    0.972303 0.770573 0.261604 0.149045
H51   H     H_    0.168764 0.831050 0.280814 0.108217
H52   H     H_    0.342913 0.679361 0.588021 -0.009473
H53   H     H_    0.137437 0.687728 0.566566 0.083342
H54   H     H_    0.259947 0.944157 0.679006 0.138005
H55   H     H_    0.168673 0.936038 0.605737 0.148189
H56   H     H_    0.839996 0.189407 0.341358 0.131453
H57   H     H_    0.041749 0.944299 0.670620 0.127098
H58   H     H_    0.008849 0.806281 0.615885 0.152560
H59   H     H_    0.090461 0.813617 0.689917 0.140019
H60   H     H_    0.897515 0.177437 0.414941 0.063556
H61   H     H_    0.052514 0.186539 0.359573 0.127321
H62   H     H_    0.835928 0.626791 0.639933 0.007206
N1    N     N_R   0.978068 0.492893 0.850745 -0.422740
N2    N     N_R   0.205491 0.509825 0.151693 -0.423365
O1    O     O_2   0.889310 0.456460 0.358460 -0.457700
O2    O     O_2   0.189019 0.219143 0.526322 -0.483195
O3    O     O_3   0.100939 0.234987 0.636913 -0.601636
O4    O     O_3   0.129890 0.457280 0.429550 -0.493904
O5    O     O_3   0.576930 0.595420 0.534060 -0.489132
O6    O     O_2   0.340570 0.306450 0.462190 -0.459655
O7    O     O_3   0.523726 0.281584 0.366533 -0.639245
O8    O     O_2   0.433187 0.465302 0.707592 -0.495354
O9    O     O_3   0.444800 0.313272 0.691568 -0.594228
O10   O     O_2   0.085975 0.621809 0.859761 -0.596423
O11   O     O_2   0.869339 0.365150 0.851367 -0.619821
O12   O     O_3   0.673754 0.703881 0.632001 -0.641680
O13   O     O_2   0.109528 0.379300 0.140550 -0.597920
O14   O     O_2   0.299939 0.639490 0.154278 -0.615791
O15   O     O_3   0.674650 0.600620 0.400940 -0.483494
O16   O     O_2   0.794567 0.544911 0.295413 -0.489442
O17   O     O_3   0.022078 0.330222 0.346527 -0.627739
O18   O     O_3   0.729047 0.688330 0.306211 -0.594751
O19   O     O_2   0.849130 0.693580 0.537840 -0.469992
O20   O     O_3   0.093680 0.641380 0.431770 -0.483920
O21   O     O_2   0.058688 0.783412 0.491787 -0.489288
O22   O     O_3   0.062194 0.771371 0.375620 -0.586995
O23   O     O_2   0.300380 0.543560 0.641570 -0.455782
O24   O     O_3   0.059830 0.542790 0.570460 -0.496837
O25   O     O_3   0.515070 0.399440 0.599070 -0.476794
O26   O     O_3   0.170930 0.669965 0.652885 -0.633495
O27   O     O_3   0.612780 0.404640 0.465950 -0.480892
O28   O     O_3   0.096040 0.358680 0.568240 -0.493531
P1    P     P_3+3 0.055640 0.433080 0.366120 0.995549
P2    P     P_3+3 0.671420 0.681950 0.554390 0.970614
P3    P     P_3+3 0.145803 0.742975 0.437484 0.950925
P4    P     P_3+3 0.134070 0.566990 0.633890 0.990750
P5    P     P_3+3 0.060805 0.256768 0.567000 0.945919
P6    P     P_3+3 0.663992 0.594447 0.323607 0.958835
P7    P     P_3+3 0.524869 0.305831 0.444013 0.951031
P8    P     P_3+3 0.537521 0.404368 0.675530 0.947109

loop_
_geom_bond_atom_site_label_1
_geom_bond_atom_site_label_2
_ccdc_geom_bond_type
C53   C54   S    
C12   O18   S    
C54   H57   S    
C30   N2    S    
C1    H8    S    
Ba1   O4    S    
C19   C24   D    
C5    C6    A    
C52   H5    S    
C53   H59   S    
C51   C52   S    
C44   C47   S    
O8    P8    D    
C20   P8    S    
C32   C38   D    
C33   C35   S    
C33   P3    S    
Ba1   Ba2   S    
C58   H38   S    
C51   H62   S    
C56   H22   S    
C47   H41   S    
C36   C37   S    
C4    O22   S    
C28   O26   S    
C12   H7    S    
Ba2   O24   S    
C13   C14   A    
C46   H44   S    
Ba2   O5    S    
C32   C33   S    
C50   H61   S    
C18   O14   D    
C55   H19   S    
C57   H28   S    
C7    C11   A    
O16   P6    D    
C49   O17   S    
O22   P3    S    
O15   P6    S    
C6    C7    A    
C21   C31   D    
C16   H16   S    
C39   C44   A    
C1    H15   S    
O3    P5    S    
C36   C46   S    
Ba1   O15   S    
C34   H11   S    
C49   H45   S    
Ba2   O25   S    
C50   H56   S    
C14   H29   S    
O26   P4    S    
C21   P4    S    
C39   C41   A    
C55   H20   S    
C38   P2    S    
C51   O12   S    
O18   P6    S    
C26   P6    S    
O1    P1    D    
C26   C58   A    
C56   O9    S    
Ba2   O28   S    
C3    O10   D    
C4    C16   S    
C17   N2    Am   
C49   C50   S    
C16   H51   S    
C34   H13   S    
C22   H35   S    
C37   C38   D    
C14   C15   A    
O19   P2    D    
C23   C34   S    
C8    H33   S    
C56   C57   S    
C43   C44   A    
C12   H1    S    
C48   H49   S    
C4    H27   S    
C39   H43   S    
C28   H52   S    
O6    P7    D    
O27   P7    S    
Ba1   P1    S    
C57   H25   S    
C5    O11   D    
C35   C36   D    
Ba1   O19   S    
C56   H24   S    
C40   C53   S    
C45   C55   S    
O12   P2    S    
C51   H2    S    
C29   C30   A    
C27   C58   A    
C17   O13   D    
C10   C18   A    
C40   H12   S    
C25   H32   S    
O7    P7    S    
O23   P4    D    
C1    C12   S    
C34   H14   S    
O4    P1    S    
C50   H60   S    
C46   C47   D    
C6    C13   A    
C55   H21   S    
C23   H9    S    
C24   N1    S    
C45   H17   S    
C2    C8    A    
C23   O7    S    
C42   C43   A    
C37   H42   S    
C27   P1    S    
O2    P5    D    
C42   C48   A    
Ba2   O27   S    
C20   C31   S    
O28   P5    S    
Ba2   P4    S    
C21   C22   D    
C25   C30   A    
C40   H23   S    
C16   H50   S    
C5    N1    Am   
C2    C3    A    
C41   P5    S    
C9    C10   A    
C41   C48   A    
C45   O3    S    
C52   H6    S    
C19   H36   S    
C1    H3    S    
C3    N1    Am   
Ba1   O5    S    
C11   C15   A    
Ba1   O1    S    
C31   H40   S    
C32   H48   S    
C4    H39   S    
O9    P8    S    
O20   P3    S    
Ba2   O23   S    
C57   H26   S    
C35   H46   S    
C27   C29   A    
Ba1   O20   S    
C13   H30   S    
C22   C24   S    
O17   P1    S    
O5    P2    S    
C52   H4    S    
Ba2   O6    S    
C54   H55   S    
Ba1   O27   S    
C29   H37   S    
Ba1   P2    S    
O25   P8    S    
C18   N2    Am   
C8    C9    A    
C49   H34   S    
O21   P3    D    
C15   C17   A    
C9    H31   S    
C10   C11   A    
C25   C26   A    
C42   P7    S    
C54   H54   S    
C28   C40   S    
Ba1   O24   S    
C23   H10   S    
O24   P4    S    
C45   H18   S    
C2    C7    A    
C19   C20   S    
C28   H53   S    
C43   H47   S    
C53   H58   S    
Ba2   O4    S    
