data_mof_unit_49263.cif
_audit_creation_date              2013-03-05T15:59:47-0500
_audit_creation_method            fapswitch 2.2
_symmetry_space_group_name_H-M    P1
_symmetry_Int_Tables_number       1
_space_group_crystal_system       triclinic
_cell_length_a                    12.633054
_cell_length_b                    13.099066
_cell_length_c                    16.646078
_cell_angle_alpha                 90.092806
_cell_angle_beta                  98.0844
_cell_angle_gamma                 98.081911
_cell_volume                      2699.50802957

loop_
_atom_site_label
_atom_site_type_symbol
_atom_site_description
_atom_site_fract_x
_atom_site_fract_y
_atom_site_fract_z
_atom_type_partial_charge
O1    O     O_R   0.631480 0.627510 0.519670 -0.508123
O2    O     O_R   0.455770 0.662400 0.493360 -0.635216
C1    C     C_R   0.558860 0.690248 0.520377 0.900160
O3    O     O_R   0.598240 0.480510 0.398910 -0.580278
O4    O     O_R   0.422540 0.515400 0.372600 -0.627678
C2    C     C_R   0.514197 0.500579 0.349015 0.875134
Zn1   Zn    Zn3+2 0.617320 0.476700 0.517570 1.027212
Zn2   Zn    Zn3+2 0.382680 0.523300 0.482430 0.939389
O5    O     O_R   0.544230 0.337600 0.506640 -0.629698
O6    O     O_R   0.368520 0.372490 0.480330 -0.641102
O7    O     O_R   0.577460 0.484600 0.627400 -0.606257
O8    O     O_R   0.401760 0.519490 0.601090 -0.618320
C3    C     C_R   0.439473 0.308385 0.491078 0.865237
C4    C     C_R   0.487916 0.505263 0.651280 0.926465
C5    C     C_R   0.528295 0.521677 0.264730 -0.039471
C6    C     C_R   0.444621 0.555819 0.211963 -0.211545
C7    C     C_R   0.462185 0.590061 0.135557 -0.158498
C8    C     C_R   0.564347 0.591396 0.110741 0.197181
C9    C     C_R   0.647085 0.554826 0.162749 -0.170375
C10   C     C_R   0.629293 0.519949 0.239146 -0.144599
C11   C     C_R   0.595250 0.634894 0.851013 -0.222688
C12   C     C_R   0.590184 0.587369 0.776114 -0.223688
C13   C     C_R   0.398248 0.528164 0.774329 0.215608
C14   C     C_R   0.404202 0.574307 0.851555 0.465140
C15   C     C_R   0.503002 0.628523 0.889149 0.020815
C16   C     C_2   0.582973 0.615526 0.027371 -0.260821
C17   C     C_2   0.513548 0.659185 0.974602 -0.153885
C18   C     C_R   0.492203 0.535268 0.736491 -0.225359
H1    H     H_    0.365745 0.557573 0.229961 0.159215
H2    H     H_    0.663055 0.593759 0.748269 0.238722
H3    H     H_    0.448722 0.694555 0.994250 0.184075
H4    H     H_    0.725441 0.552488 0.143942 0.131933
H5    H     H_    0.672053 0.674496 0.880440 0.185506
H6    H     H_    0.695277 0.493516 0.278510 0.172901
H7    H     H_    0.646594 0.580259 0.005126 0.164286
H8    H     H_    0.394285 0.612540 0.096171 0.140866
C19   C     C_R   0.271160 0.057644 0.528037 -0.174748
H9    H     H_    0.236061 0.211893 0.509056 0.153857
H10   H     H_    0.249431 0.861953 0.574816 0.181679
H11   H     H_    0.190207 0.029313 0.540039 0.157293
C20   C     C_R   0.401380 0.198604 0.494222 -0.052737
C21   C     C_R   0.703467 0.842174 0.567945 0.342941
C22   C     C_R   0.731071 0.948485 0.559819 -0.201001
C23   C     C_R   0.651695 0.010883 0.539672 -0.263056
C24   C     C_R   0.541237 0.970132 0.535261 0.095335
C25   C     C_R   0.513693 0.864666 0.549851 0.043458
C26   C     C_R   0.457738 0.031912 0.521159 0.098415
C27   C     C_R   0.351711 0.993176 0.535799 0.154546
C28   C     C_R   0.328953 0.892033 0.560709 -0.231890
C29   C     C_R   0.408894 0.828566 0.567872 -0.151267
C30   C     C_R   0.477629 0.132085 0.493956 -0.261843
C31   C     C_R   0.296636 0.161062 0.509160 -0.176113
C32   C     C_R   0.593161 0.798750 0.549031 -0.252634
H12   H     H_    0.553897 0.161225 0.474496 0.154503
H13   H     H_    0.679613 0.092217 0.536019 0.152280
H14   H     H_    0.814488 0.984427 0.571371 0.185639
H15   H     H_    0.388994 0.752218 0.591098 0.186624
C33   C     C_R   0.893304 0.331493 0.598407 -0.275886
H16   H     H_    0.725400 0.316976 0.610921 0.156189
H17   H     H_    0.097893 0.299372 0.618590 0.184184
H18   H     H_    0.907378 0.266196 0.636333 0.160036
N1    N     N_R   0.774070 0.445420 0.541180 -0.140510
C34   C     C_R   0.209605 0.622776 0.399543 0.017335
C35   C     C_R   0.105150 0.635385 0.367273 -0.248936
C36   C     C_R   0.019298 0.580839 0.399896 -0.101662
C37   C     C_R   0.037932 0.518267 0.468121 0.034926
C38   C     C_R   0.144473 0.498997 0.492094 0.205013
C39   C     C_R   0.954948 0.469839 0.510355 -0.112533
C40   C     C_R   0.976062 0.386795 0.562040 0.132989
C41   C     C_R   0.080318 0.361759 0.578426 -0.172088
C42   C     C_R   0.164159 0.420339 0.546540 -0.132037
C43   C     C_R   0.853011 0.503116 0.506428 0.397721
C44   C     C_R   0.791172 0.360740 0.585155 -0.051680
N2    N     N_R   0.226730 0.554050 0.459240 -0.136006
H19   H     H_    0.277244 0.662650 0.373518 0.145065
H20   H     H_    0.939389 0.585690 0.369118 0.182437
H21   H     H_    0.090686 0.684929 0.316092 0.157998
H22   H     H_    0.243430 0.401332 0.563976 0.232264
O9    O     O_3   0.314119 0.565171 0.891213 -0.578974
C45   C     C_3   0.306626 0.471008 0.932600 -0.249184
H23   H     H_    0.238987 0.467473 0.968847 0.190595
H24   H     H_    0.381261 0.464682 0.975482 0.143667
H25   H     H_    0.288650 0.403917 0.889475 0.202328
N3    N     N_R   0.785137 0.783899 0.605314 0.251111
O10   O     O_R   0.886109 0.825486 0.615664 -0.346649
O11   O     O_R   0.758199 0.703659 0.647786 -0.400124
N4    N     N_R   0.837212 0.604132 0.478661 0.207560
O12   O     O_R   0.769338 0.615403 0.414178 -0.423311
O13   O     O_R   0.907536 0.682807 0.506353 -0.334443
N5    N     N_R   0.299376 0.468402 0.737636 0.206251
O14   O     O_R   0.207836 0.503297 0.737370 -0.334273
O15   O     O_R   0.299280 0.373019 0.715660 -0.462898

loop_
_geom_bond_atom_site_label_1
_geom_bond_atom_site_label_2
_geom_bond_distance
_ccdc_geom_bond_type
C37   C39   1.420370 A    
N4    O12   1.298625 A    
C35   H21   1.082477 S    
C9    C10   1.389202 A    
C8    C16   1.467498 S    
C3    C20   1.454302 S    
C24   C25   1.406531 A    
Zn1   O7    1.969697 S    
C16   C17   1.339341 D    
C36   H20   1.076225 S    
N3    O11   1.299962 A    
C19   H11   1.083747 S    
C45   H25   1.111410 S    
C21   C32   1.420444 A    
O4    C2    1.312780 A    
O7    C4    1.312685 A    
C11   H5    1.083706 S    
C5    C6    1.400698 A    
C8    C9    1.399678 A    
O5    C3    1.313693 A    
C2    C5    1.460907 S    
C6    C7    1.386105 A    
C13   C14   1.407489 A    
N1    C44   1.355890 A    
C41   C42   1.386827 A    
C7    H8    1.079734 S    
H16   C44   1.081703 S    
C20   C31   1.401643 A    
C39   C43   1.409563 A    
C10   H6    1.082771 S    
C33   H18   1.083836 S    
C37   C38   1.406881 A    
C12   C18   1.401549 A    
C11   C12   1.381996 A    
O3    Zn1   1.957521 S    
C9    H4    1.083718 S    
C24   C26   1.411976 A    
C5    C10   1.403838 A    
C17   H3    1.083443 S    
C21   N3    1.441048 S    
N3    O10   1.302321 A    
O3    C2    1.310471 A    
C19   C31   1.394530 A    
C39   C40   1.419412 A    
C26   C30   1.389689 A    
C6    H1    1.083307 S    
O9    C45   1.411825 S    
O1    C1    1.316109 A    
C22   C23   1.386660 A    
Zn1   N1    2.062385 S    
C22   H14   1.082754 S    
C14   O9    1.385084 S    
N5    O15   1.301101 A    
C26   C27   1.418469 A    
H17   C41   1.084051 S    
Zn2   O8    1.957521 S    
Zn2   N2    2.049972 S    
C7    C8    1.407230 A    
C13   N5    1.433510 S    
N1    C43   1.360928 A    
C38   N2    1.359924 A    
C13   C18   1.411948 A    
C14   C15   1.408363 A    
C19   C27   1.403690 A    
C45   H24   1.112773 S    
C27   C28   1.392157 A    
H10   C28   1.083969 S    
O8    C4    1.311167 A    
C36   C37   1.413886 A    
N4    O13   1.299876 A    
C21   C22   1.398752 A    
C43   N4    1.433406 S    
C23   C24   1.413914 A    
Zn1   O5    1.919445 S    
C11   C15   1.396046 A    
C12   H2    1.080653 S    
O1    Zn1   1.958153 S    
C29   H15   1.082004 S    
O2    Zn2   1.919445 S    
C45   H23   1.109193 S    
O6    C3    1.306758 A    
O4    Zn2   1.969697 S    
C33   C40   1.396699 A    
C34   N2    1.357171 A    
C15   C17   1.460232 S    
C25   C29   1.415108 A    
C30   H12   1.078760 S    
C35   C36   1.389505 A    
O2    C1    1.316275 A    
C1    C32   1.483852 S    
C23   H13   1.078774 S    
N5    O14   1.301346 A    
C34   H19   1.081659 S    
C25   C32   1.414607 A    
C38   C42   1.398755 A    
C40   C41   1.391875 A    
C34   C35   1.385409 A    
C16   H7    1.088148 S    
H9    C31   1.082516 S    
Zn2   O6    1.958153 S    
C28   C29   1.388455 A    
C4    C18   1.462864 S    
C20   C30   1.387187 A    
C42   H22   1.066627 S    
C33   C44   1.385421 A    
