data_mof_unit_57113.cif
_audit_creation_date              2012-12-10T18:21:14-0500
_audit_creation_method            fapswitch 2.2
_symmetry_space_group_name_H-M    P1
_symmetry_Int_Tables_number       1
_space_group_crystal_system       triclinic
_cell_length_a                    9.408774
_cell_length_b                    10.625196
_cell_length_c                    17.366847
_cell_angle_alpha                 89.800566
_cell_angle_beta                  86.446332
_cell_angle_gamma                 89.725173
_cell_volume                      1732.79778749

loop_
_atom_site_label
_atom_site_type_symbol
_atom_type_description
_atom_site_fract_x
_atom_site_fract_y
_atom_site_fract_z
_atom_type_partial_charge
C1    C     C_R   0.499927 0.740413 0.499274 0.891579
C2    C     C_R   0.500080 0.259599 0.500634 0.884099
C3    C     C_3   0.595006 0.960321 0.445966 0.436765
C4    C     C_3   0.404974 0.039751 0.553858 0.504617
C5    C     C_3   0.630694 0.040829 0.515592 -0.203130
C6    C     C_3   0.369277 0.959215 0.484247 -0.180475
C7    C     C_3   0.500084 0.123055 0.500797 -0.166115
C8    C     C_3   0.499906 0.876982 0.499035 -0.159151
C9    C     C_3   0.465922 0.044085 0.430341 -0.311687
C10   C     C_3   0.534024 0.955976 0.569503 -0.262939
C11   C     C_3   0.948218 0.389769 0.517374 0.021582
C12   C     C_3   0.051785 0.610228 0.482624 0.021492
C13   C     C_3   0.043188 0.469156 0.567083 0.038593
C14   C     C_3   0.956819 0.530840 0.432915 0.036318
C15   C     C_3   0.056666 0.420658 0.450204 -0.041808
C16   C     C_3   0.943338 0.579340 0.549796 -0.042363
C17   C     C_R   0.482185 0.495662 0.649521 0.897029
C18   C     C_R   0.517810 0.504099 0.350485 0.884065
C19   C     C_R   0.474493 0.495064 0.733592 -0.214405
C20   C     C_R   0.525373 0.503806 0.266448 -0.193504
C21   C     C_R   0.574173 0.428013 0.775736 0.448302
C22   C     C_R   0.425803 0.570657 0.224160 0.446439
C23   C     C_R   0.574676 0.446570 0.854811 -0.212632
C24   C     C_R   0.424603 0.550929 0.145231 -0.212026
C25   C     C_R   0.474210 0.525478 0.893433 -0.051949
C26   C     C_R   0.524449 0.471139 0.106816 -0.034843
C27   C     C_R   0.369937 0.587192 0.852058 0.474974
C28   C     C_R   0.628470 0.409392 0.148361 0.390393
C29   C     C_R   0.371490 0.571420 0.772282 -0.293856
C30   C     C_R   0.627510 0.426273 0.228027 -0.319354
C31   C     C_2   0.482863 0.545306 0.976514 -0.082544
C32   C     C_2   0.515760 0.451007 0.023740 -0.095472
Cu1   Cu    Cu3+1 0.356850 0.500010 0.499980 1.035111
Cu2   Cu    Cu3+1 0.643150 0.499990 0.500020 1.032426
H1    H     H_    0.703535 0.375313 0.260831 0.202213
H2    H     H_    0.295165 0.622268 0.739624 0.213498
H3    H     H_    0.738003 0.075861 0.527735 0.204648
H4    H     H_    0.261972 0.924185 0.472096 0.203300
H5    H     H_    0.439368 0.082134 0.373344 0.178564
H6    H     H_    0.560416 0.917962 0.626536 0.198026
N1    N     N_3   0.141720 0.500030 0.499940 -0.201393
N2    N     N_3   0.858280 0.499970 0.500060 -0.201740
O1    O     O_R   0.379130 0.683150 0.499960 -0.579776
O2    O     O_R   0.620870 0.316850 0.500040 -0.583197
O3    O     O_R   0.620910 0.683140 0.500000 -0.562502
O4    O     O_R   0.379090 0.316860 0.500000 -0.559988
O5    O     O_R   0.365090 0.500030 0.613580 -0.588683
O6    O     O_R   0.634910 0.499970 0.386420 -0.588563
O7    O     O_R   0.606870 0.500020 0.613610 -0.544033
O8    O     O_R   0.393130 0.499980 0.386390 -0.546242
S1    S     S_3+6 0.700543 0.320401 0.733464 0.044713
O9    O     O_2   0.639659 0.250596 0.668135 -0.288314
O10   O     O_2   0.829649 0.392357 0.703798 -0.306769
O11   O     O_3   0.748940 0.215940 0.800095 -0.477500
H7    H     H_    0.823559 0.163351 0.773155 0.390806
S2    S     S_3+6 0.300430 0.679472 0.266088 0.043454
O12   O     O_2   0.170625 0.608679 0.295975 -0.300044
O13   O     O_2   0.361926 0.749366 0.331200 -0.289980
O14   O     O_3   0.253088 0.783713 0.199083 -0.493927
H8    H     H_    0.179090 0.837169 0.225851 0.402545
H9    H     H_    0.900084 0.296989 0.532318 0.180098
H10   H     H_    0.099920 0.703008 0.467680 0.180928
H11   H     H_    0.109449 0.353989 0.408332 0.163054
H12   H     H_    0.890559 0.646011 0.591668 0.161587
H13   H     H_    0.536673 0.357238 0.001087 0.213415
H14   H     H_    0.462108 0.639102 0.999147 0.212422
S3    S     S_3+6 0.237447 0.684666 0.898210 0.049139
O15   O     O_2   0.125010 0.718280 0.843709 -0.247134
O16   O     O_2   0.169511 0.616909 0.967066 -0.242737
O17   O     O_3   0.314356 0.817152 0.927639 -0.506435
H15   H     H_    0.237613 0.863070 0.957555 0.401421
S4    S     S_3+6 0.759699 0.310024 0.102698 0.059197
O18   O     O_2   0.827762 0.375764 0.033162 -0.196306
O19   O     O_2   0.872939 0.276772 0.156793 -0.241826
O20   O     O_3   0.682407 0.177296 0.073979 -0.476738
H16   H     H_    0.636814 0.140383 0.121751 0.352276
H17   H     H_    0.342631 0.596256 0.113772 0.227222
H18   H     H_    0.656640 0.401166 0.886240 0.233352
S5    S     S_3+6 0.725622 0.909038 0.373876 0.048603
O21   O     O_2   0.844743 0.843762 0.411983 -0.273064
O22   O     O_2   0.660533 0.819376 0.319546 -0.244167
O23   O     O_3   0.791214 0.034277 0.324304 -0.479554
H19   H     H_    0.707913 0.073145 0.301135 0.339626
S6    S     S_3+6 0.274505 0.091313 0.625860 0.032963
O24   O     O_2   0.340085 0.182620 0.679006 -0.246013
O25   O     O_2   0.153865 0.154251 0.587692 -0.314065
O26   O     O_3   0.212872 0.965778 0.676541 -0.512158
H20   H     H_    0.140125 0.000224 0.714539 0.395505
H21   H     H_    0.084504 0.442770 0.623438 0.196035
H22   H     H_    0.915531 0.557207 0.376550 0.198709

loop_
_geom_bond_atom_site_label_1
_geom_bond_atom_site_label_2
_ccdc_geom_bond_type
C25   C31   S    
C31   H14   S    
O26   H20   S    
C26   C32   S    
C5    H3    S    
C27   C29   A    
C1    C8    S    
C2    C7    S    
Cu2   N2    S    
S6    O26   S    
C3    S5    S    
C6    C9    S    
C13   N1    S    
C20   C30   A    
C2    O4    A    
C29   H2    S    
C30   H1    S    
C19   C21   A    
C24   C26   A    
S4    O20   S    
C9    H5    S    
S2    O12   D    
C11   N2    S    
C10   H6    S    
C14   H22   S    
C11   C15   S    
C1    O1    A    
C12   C16   S    
C2    O2    A    
C6    H4    S    
O17   H15   S    
C14   N2    S    
O14   H8    S    
Cu1   O4    S    
C28   S4    S    
C4    C7    S    
S1    O9    D    
Cu1   O1    S    
Cu2   O2    S    
S6    O24   D    
C15   N1    S    
C4    C6    S    
C3    C8    S    
C17   O7    A    
C5    C7    S    
C6    C8    S    
C11   H9    S    
Cu1   O8    S    
S3    O15   D    
S1    O10   D    
O20   H16   S    
C12   N1    S    
C3    C9    S    
C12   H10   S    
C31   C32   D    
C4    S6    S    
Cu1   Cu2   S    
Cu2   O3    S    
S4    O19   D    
C12   C14   S    
C21   C23   A    
Cu1   O5    S    
C22   C24   A    
Cu2   O6    S    
C20   C22   A    
C4    C10   S    
C19   C29   A    
C16   N2    S    
C21   S1    S    
C18   O8    A    
S5    O22   D    
C7    C9    S    
O11   H7    S    
Cu2   O7    S    
C13   H21   S    
C17   O5    A    
S6    O25   D    
S4    O18   D    
C3    C5    S    
C18   O6    A    
S5    O23   S    
C22   S2    S    
C25   C27   A    
C26   C28   A    
S2    O14   S    
S3    O17   S    
Cu1   N1    S    
S1    O11   S    
C28   C30   A    
C5    C10   S    
C11   C13   S    
C1    O3    A    
C17   C19   S    
S2    O13   D    
C18   C20   S    
C23   C25   A    
C23   H18   S    
C27   S3    S    
S5    O21   D    
C24   H17   S    
C8    C10   S    
O23   H19   S    
C13   C16   S    
C15   H11   S    
C14   C15   S    
C16   H12   S    
S3    O16   D    
C32   H13   S    
