data_mof_unit_62142.cif
_audit_creation_date              2013-03-05T16:07:48-0500
_audit_creation_method            fapswitch 2.2
_symmetry_space_group_name_H-M    P1
_symmetry_Int_Tables_number       1
_space_group_crystal_system       triclinic
_cell_length_a                    10.835389
_cell_length_b                    14.427744
_cell_length_c                    13.137734
_cell_angle_alpha                 90.035334
_cell_angle_beta                  89.636579
_cell_angle_gamma                 90.139707
_cell_volume                      2053.77703702

loop_
_atom_site_label
_atom_site_type_symbol
_atom_site_description
_atom_site_fract_x
_atom_site_fract_y
_atom_site_fract_z
_atom_type_partial_charge
O1    O     O_R   0.500000 0.376050 0.578280 -0.568455
O2    O     O_R   0.500000 0.376050 0.421720 -0.570676
C1    C     C_R   0.499971 0.328708 0.499971 0.816402
O3    O     O_R   0.317680 0.499980 0.578260 -0.561129
O4    O     O_R   0.317680 0.499980 0.421740 -0.563569
O5    O     O_R   0.682320 0.499980 0.578260 -0.582322
O6    O     O_R   0.682320 0.499980 0.421740 -0.545013
C2    C     C_R   0.257199 0.501031 0.500386 0.882655
C3    C     C_R   0.742888 0.504934 0.499479 0.881178
Cu1   Cu    Cu3+1 0.500000 0.499990 0.592680 1.032206
Cu2   Cu    Cu3+1 0.500000 0.499990 0.407320 1.058382
O7    O     O_R   0.500000 0.623940 0.578240 -0.537814
O8    O     O_R   0.500000 0.623940 0.421760 -0.538485
C4    C     C_R   0.499175 0.671279 0.500008 0.941847
C5    C     C_3   0.068531 0.482680 0.607985 -0.388345
C6    C     C_3   0.071266 0.431429 0.427384 -0.415660
C7    C     C_3   0.927747 0.473373 0.602877 -0.400302
C8    C     C_3   0.930701 0.439820 0.417284 -0.384408
H1    H     H_    0.093881 0.534926 0.666080 0.260291
H2    H     H_    0.115831 0.433494 0.351120 0.231864
H3    H     H_    0.884614 0.509612 0.668579 0.237882
H4    H     H_    0.907221 0.460399 0.338632 0.256693
H5    H     H_    0.107647 0.415711 0.634723 0.177719
H6    H     H_    0.093761 0.361588 0.458210 0.175700
H7    H     H_    0.902087 0.399042 0.612558 0.183321
H8    H     H_    0.888381 0.370134 0.428740 0.167909
C9    C     C_3   0.076964 0.608452 0.467195 0.399687
C10   C     C_3   0.928742 0.612102 0.477451 0.391822
C11   C     C_3   0.121273 0.507511 0.500895 -0.087730
C12   C     C_3   0.879574 0.509055 0.497953 -0.093456
C13   C     C_1   0.499724 0.227123 0.499917 -0.195533
C14   C     C_1   0.499475 0.142295 0.499903 0.016428
C15   C     C_1   0.499178 0.042378 0.499911 0.044220
C16   C     C_1   0.498969 0.957553 0.499931 0.059913
C17   C     C_1   0.498826 0.857648 0.499964 0.080700
C18   C     C_1   0.498868 0.772837 0.499993 -0.061456
N1    N     N_1   0.500000 0.500020 0.268070 -0.111162
N2    N     N_1   0.500000 0.500020 0.731930 -0.123503
C19   C     C_1   0.499998 0.500047 0.173615 0.217994
C20   C     C_1   0.499999 0.500042 0.826388 0.181798
C21   C     C_1   0.499997 0.500063 0.050686 -0.025640
C22   C     C_1   0.499998 0.500060 0.949319 -0.028696
N3    N     N_R   0.131926 0.683495 0.530125 0.134853
O9    O     O_R   0.208484 0.667389 0.603866 -0.368105
O10   O     O_R   0.107302 0.769533 0.508374 -0.237669
N4    N     N_R   0.119296 0.624961 0.360537 0.135680
O11   O     O_R   0.213436 0.678985 0.342507 -0.292063
O12   O     O_R   0.069837 0.582513 0.283395 -0.330044
N5    N     N_R   0.886927 0.670883 0.564295 0.128452
O13   O     O_R   0.941364 0.669646 0.652351 -0.320026
O14   O     O_R   0.784598 0.717488 0.557103 -0.339503
N6    N     N_R   0.877920 0.655258 0.383925 0.144654
O15   O     O_R   0.900392 0.742508 0.366203 -0.232646
O16   O     O_R   0.816811 0.609048 0.315747 -0.336841

loop_
_geom_bond_atom_site_label_1
_geom_bond_atom_site_label_2
_geom_bond_distance
_ccdc_geom_bond_type
O5    Cu1   1.983374 S    
O4    C2    1.220127 A    
C1    C13   1.465641 S    
N3    O9    1.300807 A    
C5    C7    1.532914 S    
O4    Cu2   1.983374 S    
C8    C12   1.556224 S    
C9    C11   1.598240 S    
Cu2   O8    1.798237 S    
C21   C22   1.331734 T    
O6    Cu2   1.985766 S    
C17   C18   1.223631 T    
C8    H8    1.113926 S    
C6    H2    1.109845 S    
Cu1   N2    1.829429 S    
C7    H7    1.114392 S    
C14   C15   1.441577 S    
O5    C3    1.224049 A    
C20   C22   1.615041 S    
O2    C1    1.234608 A    
C10   C12   1.600499 S    
C6    H6    1.114330 S    
O8    C4    1.233855 A    
C5    H1    1.107757 S    
C7    C12   1.564922 S    
C10   N6    1.487235 S    
Cu1   O7    1.798469 S    
C3    C12   1.482097 S    
C16   C17   1.441403 S    
C2    C11   1.475974 S    
C9    N4    1.490753 S    
C6    C8    1.534765 S    
N2    C20   1.240961 T    
N6    O16   1.299937 A    
C5    C11   1.556854 S    
O6    C3    1.219458 A    
C4    C18   1.465263 S    
N1    C19   1.240926 T    
N4    O12   1.301507 A    
Cu1   Cu2   2.435212 S    
C5    H5    1.113972 S    
O3    Cu1   1.985767 S    
C9    N3    1.487425 S    
C9    C10   1.611816 S    
C15   C16   1.223830 T    
N6    O15   1.302423 A    
C19   C21   1.615001 S    
N5    O13   1.302031 A    
C10   N5    1.490093 S    
O3    C2    1.218591 A    
Cu2   N1    1.829430 S    
N4    O11   1.302840 A    
O2    Cu2   1.798269 S    
N5    O14   1.302107 A    
C6    C11   1.560014 S    
C8    H4    1.106659 S    
N3    O10   1.302603 A    
C7    H3    1.110113 S    
O1    Cu1   1.798037 S    
C13   C14   1.223870 T    
O7    C4    1.234479 A    
O1    C1    1.234552 A    
