data_mof_unit_8255.cif
_audit_creation_date              2012-12-10T21:29:41-0500
_audit_creation_method            fapswitch 2.2
_symmetry_space_group_name_H-M    P1
_symmetry_Int_Tables_number       1
_space_group_crystal_system       triclinic
_cell_length_a                    10.594716
_cell_length_b                    16.177437
_cell_length_c                    16.526989
_cell_angle_alpha                 84.506595
_cell_angle_beta                  91.800453
_cell_angle_gamma                 89.652454
_cell_volume                      2818.13012688

loop_
_atom_site_label
_atom_site_type_symbol
_atom_type_description
_atom_site_fract_x
_atom_site_fract_y
_atom_site_fract_z
_atom_type_partial_charge
C1    C     C_R   0.500824 0.486856 0.653433 0.890649
C2    C     C_R   0.499180 0.513156 0.346568 0.899001
C3    C     C_R   0.513369 0.474494 0.740917 -0.084846
C4    C     C_R   0.487300 0.525576 0.259060 -0.105816
C5    C     C_R   0.608216 0.516718 0.780339 -0.318519
C6    C     C_R   0.392961 0.483288 0.219243 -0.296649
C7    C     C_R   0.618975 0.508885 0.864784 0.371505
C8    C     C_R   0.382903 0.491319 0.134768 0.448072
C9    C     C_R   0.530045 0.460274 0.909320 0.223029
C10   C     C_R   0.472067 0.540083 0.090617 0.203452
C11   C     C_R   0.440368 0.414238 0.869512 -0.138573
C12   C     C_R   0.561277 0.586123 0.130807 -0.128703
C13   C     C_R   0.431701 0.421417 0.785183 -0.143805
C14   C     C_R   0.569112 0.578882 0.215159 -0.141736
C15   C     C_R   0.455939 0.771661 0.450374 0.517776
C16   C     C_R   0.543579 0.228263 0.549743 0.510967
C17   C     C_R   0.460816 0.857314 0.455909 -0.270410
C18   C     C_R   0.540913 0.142711 0.543342 -0.263246
C19   C     C_R   0.524340 0.889817 0.520652 0.293138
C20   C     C_R   0.480111 0.110347 0.477535 0.290039
C21   C     C_R   0.584108 0.833687 0.580001 -0.221533
C22   C     C_R   0.420876 0.166529 0.417995 -0.211647
C23   C     C_R   0.739597 0.499187 0.489919 0.884340
C24   C     C_R   0.260910 0.500707 0.510976 0.886443
C25   C     C_R   0.578678 0.747509 0.573465 -0.072044
C26   C     C_R   0.424092 0.252611 0.425433 -0.058229
C27   C     C_R   0.893560 0.341504 0.492111 -0.145793
C28   C     C_R   0.107467 0.657953 0.513769 -0.116974
C29   C     C_R   0.954263 0.270448 0.529343 -0.162488
C30   C     C_R   0.046130 0.729572 0.478498 -0.203401
C31   C     C_R   0.065341 0.277506 0.575429 0.496900
C32   C     C_R   0.935067 0.723417 0.432160 0.436301
C33   C     C_R   0.120309 0.355484 0.578291 -0.235544
C34   C     C_R   0.881471 0.645343 0.426426 -0.201404
C35   C     C_R   0.063221 0.427165 0.536205 0.004828
C36   C     C_R   0.938124 0.572990 0.467663 0.004154
C37   C     C_R   0.942168 0.421587 0.501453 0.097433
C38   C     C_R   0.058901 0.578264 0.502798 0.095846
C39   C     C_R   0.126401 0.503643 0.525795 -0.196428
C40   C     C_R   0.874857 0.496248 0.477219 -0.192981
H1    H     H_    0.584644 0.100776 0.591053 0.215919
H2    H     H_    0.416509 0.899187 0.408371 0.214763
H3    H     H_    0.634969 0.856486 0.631066 0.181986
H4    H     H_    0.371972 0.143837 0.366148 0.185869
H5    H     H_    0.625581 0.705143 0.619580 0.167732
H6    H     H_    0.377890 0.294988 0.379030 0.173735
H7    H     H_    0.810698 0.332395 0.454335 0.181440
H8    H     H_    0.190821 0.666097 0.551469 0.173999
H9    H     H_    0.913825 0.210036 0.522788 0.195541
H10   H     H_    0.086159 0.789762 0.486665 0.168109
H11   H     H_    0.208084 0.360180 0.612896 0.182277
H12   H     H_    0.794798 0.641080 0.390624 0.180592
H13   H     H_    0.327958 0.443782 0.254148 0.192756
H14   H     H_    0.672974 0.556139 0.745135 0.186971
H15   H     H_    0.372625 0.376694 0.903930 0.214573
H16   H     H_    0.629234 0.623772 0.096700 0.236766
H17   H     H_    0.358229 0.388598 0.754648 0.188342
H18   H     H_    0.642058 0.611853 0.246020 0.191030
N1    N     N_2   0.519010 0.464944 0.992936 -0.092467
N2    N     N_2   0.483668 0.535570 0.007016 -0.085918
N3    N     N_R   0.515300 0.716920 0.509720 -0.150276
N4    N     N_R   0.484700 0.283080 0.490280 -0.152590
N5    N     N_2   0.530428 0.977567 0.527202 -0.132158
N6    N     N_2   0.474836 0.022630 0.470640 -0.133556
O1    O     O_R   0.494530 0.422540 0.612660 -0.538131
O2    O     O_R   0.505470 0.577460 0.387340 -0.538903
O3    O     O_R   0.504350 0.561840 0.618900 -0.641901
O4    O     O_R   0.495650 0.438160 0.381100 -0.638103
O5    O     O_R   0.678310 0.430340 0.496890 -0.576450
O6    O     O_R   0.321690 0.569660 0.503110 -0.576261
O7    O     O_R   0.688140 0.569650 0.503130 -0.620694
O8    O     O_R   0.311860 0.430350 0.496870 -0.618713
Zn1   Zn    Zn3+2 0.493440 0.406980 0.495830 1.018344
Zn2   Zn    Zn3+2 0.506560 0.593020 0.504170 1.015028
S1    S     S_3+6 0.860896 0.814113 0.385206 0.065362
O9    O     O_2   0.738524 0.793657 0.343541 -0.230953
O10   O     O_2   0.834953 0.872583 0.448246 -0.298711
O11   O     O_3   0.956946 0.860601 0.315990 -0.453572
H19   H     H_    0.030149 0.879384 0.347981 0.370057
S2    S     S_3+6 0.138810 0.188048 0.625187 0.049330
O12   O     O_2   0.208997 0.144198 0.564002 -0.310854
O13   O     O_2   0.229719 0.211093 0.690830 -0.258234
O14   O     O_3   0.027917 0.124534 0.666228 -0.499688
H20   H     H_    0.074848 0.074292 0.689723 0.398945
S3    S     S_3+6 0.261517 0.438113 0.086018 0.059326
O15   O     O_2   0.309620 0.353484 0.071127 -0.285040
O16   O     O_2   0.149123 0.428726 0.139337 -0.254086
O17   O     O_3   0.218090 0.490967 0.996768 -0.518957
H21   H     H_    0.158265 0.454109 0.970592 0.400879
S4    S     S_3+6 0.740554 0.562676 0.912867 0.064810
O18   O     O_2   0.782051 0.515065 0.991878 -0.220928
O19   O     O_2   0.851968 0.573766 0.858865 -0.268773
O20   O     O_3   0.686246 0.656562 0.931671 -0.513260
H22   H     H_    0.656948 0.683432 0.877931 0.356192
S5    S     S_3+6 0.614237 0.256627 0.642213 0.070322
O21   O     O_2   0.510480 0.273407 0.698397 -0.261656
O22   O     O_2   0.693071 0.185602 0.682188 -0.266587
O23   O     O_3   0.709081 0.339114 0.630259 -0.542052
H23   H     H_    0.736889 0.349752 0.686077 0.380069
S6    S     S_3+6 0.382216 0.743133 0.358760 0.065592
O24   O     O_2   0.302189 0.814144 0.319974 -0.296484
O25   O     O_2   0.483860 0.726558 0.301000 -0.253097
O26   O     O_3   0.287799 0.660546 0.371482 -0.541890
H24   H     H_    0.259819 0.649415 0.315835 0.381183

loop_
_geom_bond_atom_site_label_1
_geom_bond_atom_site_label_2
_ccdc_geom_bond_type
O20   H22   S    
C27   C29   A    
C23   O5    A    
C2    C4    S    
S5    O21   D    
C15   S6    S    
C32   S1    S    
S5    O23   S    
C24   O6    A    
C31   S2    S    
C29   H9    S    
S3    O15   D    
C19   C21   A    
C37   C40   A    
C2    O4    A    
C38   C39   A    
C33   C35   A    
C13   H17   S    
C23   C40   S    
O2    Zn2   S    
C24   C39   S    
O1    Zn1   S    
C7    C9    A    
C8    S3    S    
C17   H2    S    
C1    O3    A    
C21   H3    S    
C22   H4    S    
C19   N5    S    
O6    Zn2   S    
C1    O1    A    
C31   C33   A    
N4    Zn1   S    
O5    Zn1   S    
C18   C20   A    
C3    C13   A    
C30   H10   S    
N1    N2    D    
C16   N4    A    
S2    O14   S    
S3    O16   D    
C14   H18   S    
C23   O7    A    
C5    H14   S    
C36   C40   A    
C4    C6    A    
C18   H1    S    
C5    C7    A    
O11   H19   S    
O8    Zn1   S    
C6    C8    A    
C3    C5    A    
O4    Zn1   S    
C7    S4    S    
S6    O26   S    
C1    C3    S    
C32   C34   A    
C20   N6    S    
C10   N2    S    
S1    O9    D    
S1    O10   D    
S4    O19   D    
O14   H20   S    
C28   C38   A    
S6    O25   D    
C15   N3    A    
O3    Zn2   S    
C25   N3    A    
C9    C11   A    
C12   H16   S    
C10   C12   A    
S2    O13   D    
C12   C14   A    
C6    H13   S    
C25   H5    S    
C11   H15   S    
C24   O8    A    
S4    O20   S    
S3    O17   S    
C27   H7    S    
C15   C17   A    
C21   C25   A    
C28   H8    S    
C16   S5    S    
C35   C37   A    
C8    C10   A    
C20   C22   A    
S2    O12   D    
C2    O2    A    
O7    Zn2   S    
S5    O22   D    
N3    Zn2   S    
C33   H11   S    
C34   H12   S    
C28   C30   A    
C26   N4    A    
C29   C31   A    
C30   C32   A    
C11   C13   A    
S4    O18   D    
C27   C37   A    
C35   C39   A    
C36   C38   A    
S6    O24   D    
C17   C19   A    
C34   C36   A    
C4    C14   A    
S1    O11   S    
C26   H6    S    
N5    N6    D    
O17   H21   S    
C16   C18   A    
O23   H23   S    
C22   C26   A    
O26   H24   S    
C9    N1    S    
