data_mof_unit_10480.cif
_audit_creation_date              2012-12-10T20:32:41-0500
_audit_creation_method            fapswitch 2.2
_symmetry_space_group_name_H-M    P1
_symmetry_Int_Tables_number       1
_space_group_crystal_system       triclinic
_cell_length_a                    11.53343
_cell_length_b                    10.676818
_cell_length_c                    9.879067
_cell_angle_alpha                 89.631749
_cell_angle_beta                  90.178727
_cell_angle_gamma                 90.223125
_cell_volume                      1216.47142575

loop_
_atom_site_label
_atom_site_type_symbol
_atom_type_description
_atom_site_fract_x
_atom_site_fract_y
_atom_site_fract_z
_atom_type_partial_charge
C1    C     C_R   0.506354 0.260184 0.500402 0.892151
C2    C     C_R   0.528028 0.128948 0.502902 -0.130221
C3    C     C_R   0.571791 0.064625 0.388925 0.212876
C4    C     C_R   0.565129 0.934144 0.388348 -0.319542
C5    C     C_R   0.518840 0.871121 0.500775 -0.133149
C6    C     C_R   0.497308 0.936055 0.618931 0.120055
C7    C     C_3   0.401020 0.932014 0.720689 -0.039740
C8    C     C_3   0.412424 0.074248 0.726422 -0.489615
C9    C     C_R   0.399057 0.481535 0.070414 0.080799
C10   C     C_R   0.597710 0.527948 0.072038 -0.132922
C11   C     C_R   0.597792 0.527586 0.928322 -0.129690
C12   C     C_R   0.281952 0.500220 0.499869 0.896697
C13   C     C_R   0.399106 0.484308 0.928084 0.132525
C14   C     C_3   0.318397 0.376385 0.916587 -0.523151
C15   C     C_3   0.319940 0.367965 0.071735 0.317809
C16   C     C_R   0.502589 0.739837 0.499657 0.897556
C17   C     C_R   0.718077 0.500186 0.500152 0.889013
C18   C     C_1   0.161531 0.500295 0.499687 -0.225157
C19   C     C_1   0.059354 0.500156 0.499731 -0.010245
C20   C     C_1   0.940719 0.499997 0.500050 -0.007466
C21   C     C_1   0.838527 0.500027 0.500318 -0.205700
C22   C     C_R   0.505379 0.062771 0.621730 0.050668
H1    H     H_    0.359214 0.296272 0.864948 0.196328
H2    H     H_    0.592392 0.883124 0.299527 0.168319
H3    H     H_    0.429519 0.886356 0.816673 0.134979
H4    H     H_    0.336163 0.128486 0.691037 0.204544
H5    H     H_    0.449092 0.106322 0.824465 0.176521
H6    H     H_    0.677108 0.548847 0.125894 0.153428
H7    H     H_    0.677309 0.548002 0.874779 0.152721
H8    H     H_    0.235453 0.406580 0.869989 0.203331
N1    N     N_R   0.499240 0.499140 0.142800 -0.106611
N2    N     N_R   0.499240 0.499180 0.857150 -0.095512
O1    O     O_R   0.500010 0.316790 0.614690 -0.621876
O2    O     O_R   0.500000 0.316760 0.385350 -0.569575
O3    O     O_R   0.334450 0.500030 0.614670 -0.613612
O4    O     O_R   0.334440 0.500000 0.385330 -0.626609
O5    O     O_R   0.500000 0.683240 0.614650 -0.624764
O6    O     O_R   0.499990 0.683210 0.385310 -0.619252
O7    O     O_R   0.665560 0.500000 0.614670 -0.619249
O8    O     O_R   0.665550 0.499970 0.385330 -0.620898
Zn1   Zn    Zn3+2 0.500010 0.500020 0.653130 0.933858
Zn2   Zn    Zn3+2 0.499990 0.499980 0.346870 0.949902
N3    N     N_2   0.616733 0.129245 0.273783 -0.282753
H9    H     H_    0.609696 0.080235 0.184431 0.210385
C23   C     C_3   0.731769 0.180718 0.293035 -0.746569
H10   H     H_    0.795729 0.103893 0.305627 0.222932
H11   H     H_    0.734773 0.241800 0.383493 0.236922
H12   H     H_    0.755997 0.238002 0.203193 0.232847
C24   C     C_3   0.203016 0.394461 0.144595 -0.293378
C25   C     C_3   0.095524 0.337488 0.076643 -0.929228
H13   H     H_    0.067951 0.395601 0.988848 0.253333
H14   H     H_    0.111240 0.240546 0.042110 0.273118
H15   H     H_    0.022662 0.335657 0.149914 0.253786
H16   H     H_    0.207917 0.356409 0.249225 0.222847
H17   H     H_    0.188492 0.497063 0.153147 0.187773
N4    N     N_2   0.381060 0.257343 0.122689 -0.254197
H18   H     H_    0.465116 0.249711 0.088094 0.231476
C26   C     C_3   0.320269 0.138481 0.119506 -0.803898
H19   H     H_    0.379432 0.062636 0.153483 0.232349
H20   H     H_    0.290424 0.117224 0.015136 0.233212
H21   H     H_    0.245700 0.139261 0.190108 0.256157
C27   C     C_3   0.281895 0.881742 0.671631 -0.350417
C28   C     C_3   0.237818 0.931941 0.534900 -0.844601
H22   H     H_    0.226521 0.034909 0.536074 0.250189
H23   H     H_    0.296593 0.906473 0.451166 0.257043
H24   H     H_    0.151890 0.889273 0.513017 0.238914
H25   H     H_    0.286533 0.778038 0.665794 0.212641
H26   H     H_    0.216453 0.904029 0.750090 0.199595

loop_
_geom_bond_atom_site_label_1
_geom_bond_atom_site_label_2
_ccdc_geom_bond_type
C14   H1    S    
C2    C22   A    
C25   H14   S    
N2    Zn1   S    
C28   H23   S    
C7    C27   S    
C6    C7    S    
N1    Zn2   S    
C12   O4    A    
C8    H4    S    
C13   N2    A    
O4    Zn2   S    
C19   C20   S    
C7    H3    S    
C27   H26   S    
C16   O5    A    
N3    H9    S    
O1    Zn1   S    
C15   N4    S    
C26   H21   S    
O8    Zn2   S    
C25   H13   S    
C9    C15   S    
C28   H24   S    
C1    O1    A    
C7    C8    S    
O7    Zn1   S    
C24   H17   S    
C13   C14   S    
C20   C21   T    
C12   O3    A    
N3    C23   S    
C3    N3    S    
C27   C28   S    
C27   H25   S    
C14   H8    S    
O3    Zn1   S    
C10   N1    A    
N4    C26   S    
C1    O2    A    
O6    Zn2   S    
C2    C3    A    
C15   C24   S    
O5    Zn1   S    
C5    C6    A    
C4    H2    S    
C23   H12   S    
C25   H15   S    
C10   C11   A    
C9    N1    A    
C28   H22   S    
C10   H6    S    
C24   H16   S    
C6    C22   A    
N4    H18   S    
C11   H7    S    
C1    C2    S    
C17   O7    A    
C23   H11   S    
C12   C18   S    
C24   C25   S    
C8    H5    S    
C9    C13   A    
C14   C15   S    
C18   C19   T    
C5    C16   S    
C26   H19   S    
C23   H10   S    
C26   H20   S    
C8    C22   S    
C17   C21   S    
C3    C4    A    
C16   O6    A    
C4    C5    A    
C11   N2    A    
C17   O8    A    
O2    Zn2   S    
