data_mof_unit_38912.cif
_audit_creation_date              2012-12-11T14:51:51-0500
_audit_creation_method            fapswitch 2.2
_symmetry_space_group_name_H-M    P1
_symmetry_Int_Tables_number       1
_space_group_crystal_system       triclinic
_cell_length_a                    7.013973
_cell_length_b                    17.062943
_cell_length_c                    16.540292
_cell_angle_alpha                 101.160239
_cell_angle_beta                  90.177246
_cell_angle_gamma                 88.982653
_cell_volume                      1941.78629235

loop_
_atom_site_label
_atom_site_type_symbol
_atom_type_description
_atom_site_fract_x
_atom_site_fract_y
_atom_site_fract_z
_atom_type_partial_charge
O1    O     O_R   0.506340 0.439070 0.579550 -0.503641
O2    O     O_R   0.170010 0.404890 0.412100 -0.527694
O3    O     O_R   0.005010 0.560930 0.420450 -0.554651
C1    C     C_R   0.341255 0.381761 0.383881 0.711952
O4    O     O_R   0.176280 0.429360 0.578400 -0.492381
O5    O     O_R   0.011320 0.585570 0.587940 -0.533016
C2    C     C_R   0.346846 0.409838 0.602177 0.873029
O6    O     O_R   0.500030 0.414430 0.412060 -0.561375
O7    O     O_3   0.340950 0.551220 0.502940 -0.383718
V1    V     V_3+5 0.064020 0.490500 0.499460 1.649337
O8    O     O_R   0.681910 0.595110 0.587900 -0.514631
C3    C     C_R   0.848914 0.618149 0.617633 0.816482
O9    O     O_R   0.675640 0.570640 0.421600 -0.546212
C4    C     C_R   0.842339 0.586577 0.394936 0.652758
V2    V     V_3+5 0.564670 0.509500 0.500540 1.624346
O10   O     O_3   0.837610 0.448780 0.497060 -0.344062
C5    C     C_R   0.925825 0.861913 0.168775 -0.120798
C6    C     C_R   0.841419 0.639364 0.332852 -0.087577
C7    C     C_R   0.681549 0.685267 0.218868 -0.039483
C8    C     C_R   0.696491 0.632015 0.273191 -0.073109
C9    C     C_R   0.973469 0.700910 0.336459 -0.140750
C10   C     C_R   0.962074 0.755139 0.281190 -0.001642
C11   C     C_R   0.811259 0.747505 0.222684 0.086252
C12   C     C_R   0.792301 0.801566 0.168226 -0.154373
C13   C     C_R   0.075724 0.868866 0.226301 -0.220425
C14   C     C_R   0.095349 0.817016 0.282533 0.453350
H1    H     H_    0.677689 0.794849 0.123412 0.151144
H2    H     H_    0.178850 0.915496 0.227139 0.184520
H3    H     H_    0.566452 0.678267 0.174323 0.128885
H4    H     H_    0.592108 0.585393 0.269362 0.116437
H5    H     H_    0.079181 0.707272 0.384703 0.192314
C15   C     C_3   0.750029 0.810929 0.742207 -0.209041
C16   C     C_3   0.892636 0.775795 0.672748 -0.259832
H6    H     H_    0.898695 0.793558 0.611694 0.193934
H7    H     H_    0.638830 0.856752 0.737562 0.222061
C17   C     C_3   0.855947 0.690727 0.687758 -0.236919
C18   C     C_3   0.716634 0.726259 0.757642 0.461282
C19   C     C_3   0.876500 0.735366 0.820831 0.109450
C20   C     C_3   0.018027 0.700002 0.751726 -0.081294
C21   C     C_3   0.055672 0.785907 0.736930 0.056028
C22   C     C_3   0.911283 0.819535 0.805934 -0.113106
H8    H     H_    0.107621 0.649300 0.762757 0.261443
H9    H     H_    0.189215 0.812223 0.720341 0.213444
C23   C     C_3   0.552954 0.267292 0.287004 0.013414
C24   C     C_3   0.447578 0.186988 0.276957 0.150708
H10   H     H_    0.691450 0.279890 0.319139 0.188662
C25   C     C_3   0.405091 0.190118 0.185992 -0.195247
C26   C     C_3   0.508311 0.270196 0.195212 -0.080616
C27   C     C_3   0.320911 0.316251 0.223006 -0.217970
C28   C     C_3   0.219267 0.236122 0.213255 0.440286
C29   C     C_3   0.257513 0.232296 0.304189 -0.224485
C30   C     C_3   0.362280 0.311832 0.313266 -0.146332
H11   H     H_    0.592941 0.285977 0.144569 0.213531
H12   H     H_    0.267654 0.369920 0.200632 0.166212
H13   H     H_    0.151318 0.215594 0.347163 0.209938
C31   C     C_R   0.407911 0.125283 0.821800 -0.219330
C32   C     C_R   0.364392 0.355062 0.664085 -0.275247
C33   C     C_R   0.507552 0.328844 0.791440 -0.220779
C34   C     C_R   0.473840 0.379576 0.736256 0.366270
C35   C     C_R   0.278447 0.278308 0.652662 0.296027
C36   C     C_R   0.340918 0.222320 0.702399 -0.090135
C37   C     C_R   0.441780 0.251254 0.775770 0.032905
C38   C     C_R   0.470797 0.203705 0.835051 -0.210556
C39   C     C_R   0.338808 0.090023 0.742241 0.368418
C40   C     C_R   0.312071 0.138501 0.681510 0.236241
H14   H     H_    0.536666 0.228903 0.893570 0.146441
H15   H     H_    0.584179 0.350368 0.848148 0.172109
O11   O     O_R   0.266070 0.085680 0.087850 -0.545676
O12   O     O_R   0.590090 0.070660 0.921580 -0.546152
O13   O     O_R   0.754780 0.914400 0.912080 -0.537278
C41   C     C_R   0.420711 0.082034 0.891578 0.816954
O14   O     O_R   0.596110 0.095130 0.087880 -0.505074
O15   O     O_R   0.760850 0.939050 0.079570 -0.539948
C42   C     C_R   0.424868 0.119104 0.115586 0.739739
O16   O     O_R   0.260010 0.061030 0.920360 -0.517195
O17   O     O_3   0.425070 0.948840 0.997010 -0.363167
V3    V     V_3+5 0.702100 0.009490 0.000550 1.618269
O18   O     O_R   0.090200 0.929250 0.078500 -0.553002
C43   C     C_R   0.923525 0.913658 0.105504 0.706390
O19   O     O_R   0.084180 0.904770 0.912200 -0.500626
C44   C     C_R   0.917929 0.887393 0.878754 0.797395
V4    V     V_3+5 0.201420 0.990350 0.999580 1.645374
O20   O     O_3   0.928580 0.051150 0.002990 -0.354184
I1    I     I_    0.890470 0.700512 0.938625 -0.198168
I2    I     I_    0.554195 0.086583 0.323337 -0.234215
S1    S     S_3+6 0.994355 0.230274 0.166245 -0.029976
O21   O     O_2   0.901471 0.310704 0.194925 -0.371608
O22   O     O_2   0.012139 0.214362 0.074015 -0.330768
O23   O     O_3   0.870260 0.158245 0.197202 -0.500131
H16   H     H_    0.957314 0.111061 0.189322 0.322327
S2    S     S_3+6 0.297301 0.985378 0.715466 -0.012924
O24   O     O_2   0.327834 0.943993 0.786728 -0.374789
O25   O     O_2   0.095580 0.972957 0.685346 -0.320408
O26   O     O_3   0.447835 0.943657 0.639653 -0.475480
H17   H     H_    0.402564 0.888404 0.621260 0.366743
I3    I     I_    0.291407 0.082877 0.553343 0.065905
S3    S     S_3+6 0.522798 0.480200 0.771224 0.076975
O27   O     O_2   0.688185 0.504569 0.724837 -0.302173
O28   O     O_2   0.346112 0.525995 0.755595 -0.306268
O29   O     O_3   0.573735 0.498922 0.872625 -0.458703
H18   H     H_    0.449584 0.497202 0.900555 0.355331
S4    S     S_3+6 0.052511 0.266033 0.602190 0.041073
O30   O     O_2   0.080098 0.257279 0.510839 -0.323101
O31   O     O_2   0.949527 0.194661 0.619826 -0.303530
O32   O     O_3   0.912696 0.346728 0.635980 -0.467004
H19   H     H_    0.905882 0.350818 0.696516 0.340568
S5    S     S_3+6 0.289067 0.831938 0.352836 -0.005051
O33   O     O_2   0.213604 0.865628 0.437607 -0.296359
O34   O     O_2   0.390753 0.753948 0.353994 -0.373716
O35   O     O_3   0.445166 0.895809 0.325637 -0.490960
H20   H     H_    0.558275 0.892637 0.360940 0.390557
S6    S     S_3+6 0.487450 0.704304 0.783227 0.045911
O36   O     O_2   0.492156 0.650130 0.844268 -0.224640
O37   O     O_2   0.390471 0.780673 0.824095 -0.356015
O38   O     O_3   0.385807 0.662323 0.693454 -0.490789
H21   H     H_    0.400713 0.701541 0.656991 0.300385

loop_
_geom_bond_atom_site_label_1
_geom_bond_atom_site_label_2
_ccdc_geom_bond_type
C33   C37   A    
C23   C26   S    
C6    C9    A    
C4    C6    S    
O12   V3    S    
C7    C8    A    
C12   H1    S    
C25   C28   S    
C1    O6    A    
S6    O37   D    
S3    O27   D    
C8    H4    S    
C13   H2    S    
C9    H5    S    
C37   C38   A    
C1    C30   S    
C17   C18   S    
O5    C3    A    
C19   C20   S    
S1    O22   D    
C32   C34   A    
C24   C29   S    
O11   C42   A    
O38   H21   S    
C5    C43   S    
C16   C17   S    
S4    O32   S    
O12   C41   A    
O13   C44   A    
O35   H20   S    
C18   S6    S    
O14   V3    S    
S4    O30   D    
O8    V2    S    
C21   H9    S    
C11   C12   A    
C31   C39   A    
C33   H15   S    
O1    V2    S    
C3    C17   S    
O7    V1    S    
C29   H13   S    
C23   C30   S    
C38   H14   S    
O9    C4    A    
O13   V3    S    
S5    O34   D    
O26   H17   S    
C35   S4    S    
S6    O36   D    
S3    O28   D    
C23   H10   S    
C16   H6    S    
C20   H8    S    
C24   C25   S    
C26   H11   S    
C16   C21   S    
V2    O10   S    
C29   C30   S    
C5    C12   A    
C15   H7    S    
O17   V3    S    
C19   C22   S    
O14   C42   A    
O17   V4    S    
S2    O24   D    
O4    C2    A    
S1    O21   D    
C32   C35   A    
C13   C14   A    
V3    O20   S    
C35   C36   A    
O2    C1    A    
C18   C19   S    
S2    O25   D    
O18   V4    S    
C25   C26   S    
S5    O33   D    
C27   C30   S    
C22   C44   S    
C28   C29   S    
O15   C43   A    
C31   C38   A    
C15   C18   S    
S4    O31   D    
O3    C4    A    
O19   V4    S    
C21   C22   S    
V4    O20   S    
O6    V2    S    
O9    V2    S    
C34   S3    S    
S5    O35   S    
C15   C22   S    
O2    V1    S    
C20   C21   S    
S3    O29   S    
C23   C24   S    
C40   I3    S    
C26   C27   S    
C19   I1    S    
O1    C2    A    
C17   C20   S    
C25   C42   S    
O19   C44   A    
S1    O23   S    
C14   S5    S    
O5    V1    S    
O8    C3    A    
O16   V4    S    
O32   H19   S    
C24   I2    S    
O11   V4    S    
C39   C40   A    
C33   C34   A    
C5    C13   A    
O4    V1    S    
O3    V1    S    
V1    O10   S    
C15   C16   S    
S2    O26   S    
C41   O16   A    
O18   C43   A    
O29   H18   S    
C6    C8    A    
O7    V2    S    
C36   C37   A    
C28   S1    S    
C36   C40   A    
C7    C11   A    
C27   C28   S    
C10   C14   A    
O15   V3    S    
C10   C11   A    
C39   S2    S    
O23   H16   S    
C9    C10   A    
C2    C32   S    
S6    O38   S    
C27   H12   S    
C31   C41   S    
C7    H3    S    
