data_mof_unit_54110.cif
_audit_creation_date              2012-12-11T14:54:36-0500
_audit_creation_method            fapswitch 2.2
_symmetry_space_group_name_H-M    P1
_symmetry_Int_Tables_number       1
_space_group_crystal_system       triclinic
_cell_length_a                    19.260647
_cell_length_b                    11.322428
_cell_length_c                    18.865063
_cell_angle_alpha                 89.99995
_cell_angle_beta                  91.24336
_cell_angle_gamma                 89.999977
_cell_volume                      4113.07313644

loop_
_atom_site_label
_atom_site_type_symbol
_atom_type_description
_atom_site_fract_x
_atom_site_fract_y
_atom_site_fract_z
_atom_type_partial_charge
C1    C     C_R   0.727249 0.377101 0.646592 0.582685
C2    C     C_R   0.283762 0.882626 0.466692 0.061768
C3    C     C_R   0.987109 0.538272 0.467907 0.036447
C4    C     C_3   0.550026 0.925284 0.556664 -0.311438
C5    C     C_3   0.450396 0.915293 0.439022 -0.317983
C6    C     C_3   0.049602 0.415300 0.560976 -0.317973
C7    C     C_3   0.949972 0.425279 0.443334 -0.311440
C8    C     C_3   0.808020 0.767528 0.015305 -0.363565
C9    C     C_3   0.191993 0.767491 0.984692 -0.363525
C10   C     C_3   0.308002 0.267493 0.015306 -0.363518
C11   C     C_3   0.691988 0.267530 0.984698 -0.363559
C12   C     C_3   0.855140 0.119091 0.562353 -0.327114
C13   C     C_R   0.216239 0.382619 0.533309 0.061774
C14   C     C_3   0.141474 0.106135 0.437655 -0.326900
C15   C     C_3   0.358517 0.606151 0.562340 -0.326906
C16   C     C_3   0.644859 0.619093 0.437646 -0.327111
C17   C     C_R   0.784476 0.388949 0.466585 0.059245
C18   C     C_R   0.707351 0.888076 0.459788 0.008166
C19   C     C_R   0.291799 0.882170 0.540421 0.017827
C20   C     C_R   0.208203 0.382159 0.459581 0.017833
C21   C     C_R   0.792646 0.388074 0.540211 0.008167
C22   C     C_R   0.761169 0.930908 0.421961 0.060494
C23   C     C_R   0.240479 0.931706 0.579155 0.066710
C24   C     C_R   0.259521 0.431701 0.420846 0.066705
C25   C     C_R   0.271971 0.378641 0.352472 0.587091
C26   C     C_R   0.738828 0.430906 0.578038 0.060496
C27   C     C_R   0.807110 0.017231 0.453160 0.120161
C28   C     C_R   0.194300 0.016385 0.547706 0.119382
C29   C     C_R   0.305697 0.516385 0.452292 0.119377
C30   C     C_R   0.692886 0.517227 0.546839 0.120163
C31   C     C_R   0.798732 0.046292 0.525367 -0.001551
C32   C     C_R   0.200084 0.039671 0.474738 -0.003740
C33   C     C_R   0.299912 0.539672 0.525260 -0.003749
C34   C     C_R   0.701266 0.546291 0.474632 -0.001546
C35   C     C_R   0.743256 0.990300 0.563613 0.016426
C36   C     C_R   0.228029 0.878642 0.647528 0.587094
C37   C     C_R   0.255260 0.983533 0.436264 0.018766
C38   C     C_R   0.244740 0.483529 0.563737 0.018762
C39   C     C_R   0.756744 0.490300 0.436386 0.016425
C40   C     C_R   0.493873 0.073872 0.963810 -0.141242
C41   C     C_R   0.506206 0.073881 0.036217 -0.141230
C42   C     C_R   0.993783 0.573885 0.963785 -0.141220
C43   C     C_R   0.006142 0.573876 0.036189 -0.141232
C44   C     C_R   0.495080 0.175572 0.074572 -0.011509
C45   C     C_R   0.504953 0.175564 0.925443 -0.011814
C46   C     C_R   0.995054 0.675569 0.074558 -0.011818
C47   C     C_R   0.772750 0.877102 0.353407 0.582681
C48   C     C_R   0.004915 0.675576 0.925427 -0.011515
C49   C     C_R   0.494550 0.285333 0.037215 0.071934
C50   C     C_R   0.505462 0.285331 0.962792 0.071876
C51   C     C_R   0.994539 0.785337 0.037209 0.071875
C52   C     C_R   0.005449 0.785339 0.962784 0.071932
C53   C     C_R   0.552919 0.150526 0.639418 0.523759
C54   C     C_R   0.438063 0.149148 0.359916 0.534066
C55   C     C_R   0.061926 0.649149 0.640085 0.534089
C56   C     C_R   0.947073 0.650525 0.360581 0.523757
C57   C     C_R   0.784072 0.050618 0.984134 0.052588
C58   C     C_3   0.496647 0.364445 0.454839 -0.255248
C59   C     C_R   0.215888 0.050589 0.015880 0.052661
C60   C     C_R   0.284108 0.550598 0.984121 0.052665
C61   C     C_R   0.715930 0.550628 0.015865 0.052594
C62   C     C_R   0.775372 0.032151 0.058096 0.067253
C63   C     C_R   0.224584 0.032140 0.941916 0.067575
C64   C     C_R   0.275417 0.532143 0.058085 0.067584
C65   C     C_R   0.724627 0.532156 0.941903 0.067261
C66   C     C_R   0.749713 0.921686 0.079337 0.010393
C67   C     C_R   0.250273 0.921695 0.920664 0.010709
C68   C     C_R   0.249727 0.421700 0.079336 0.010703
C69   C     C_3   0.527103 0.365860 0.529343 -0.259387
C70   C     C_R   0.750287 0.421693 0.920662 0.010386
C71   C     C_R   0.741532 0.837363 0.025980 0.009330
C72   C     C_R   0.258466 0.837366 0.974015 0.009541
C73   C     C_R   0.241531 0.337374 0.025985 0.009540
C74   C     C_R   0.758472 0.337373 0.974019 0.009332
C75   C     C_R   0.710877 0.882933 0.964424 0.105959
C76   C     C_R   0.289117 0.882940 0.035571 0.106205
C77   C     C_R   0.210881 0.382949 0.964430 0.106203
C78   C     C_R   0.789127 0.382947 0.035574 0.105955
C79   C     C_R   0.742504 0.982072 0.936620 -0.023987
C80   C     C_3   0.972880 0.865860 0.470659 -0.259388
C81   C     C_R   0.257474 0.982053 0.063385 -0.024273
C82   C     C_R   0.242521 0.482065 0.936616 -0.024283
C83   C     C_R   0.757502 0.482087 0.063378 -0.023999
C84   C     C_R   0.729775 0.015918 0.639440 0.546222
C85   C     C_R   0.269321 0.012313 0.360871 0.544303
C86   C     C_R   0.230680 0.512309 0.639129 0.544316
C87   C     C_R   0.770224 0.515918 0.360560 0.546216
C88   C     C_R   0.730497 0.378785 0.850912 0.575955
C89   C     C_R   0.269504 0.378791 0.149089 0.574851
C90   C     C_R   0.230496 0.878790 0.850911 0.574850
C91   C     C_3   0.003336 0.864446 0.545164 -0.255252
C92   C     C_R   0.769503 0.878784 0.149088 0.575955
C93   C     C_R   0.533208 0.158723 0.853486 0.555914
C94   C     C_R   0.466799 0.158724 0.146518 0.557614
C95   C     C_R   0.033200 0.658725 0.853482 0.557608
C96   C     C_R   0.966794 0.658724 0.146514 0.555913
C97   C     C_R   0.730601 0.015189 0.861942 0.561663
C98   C     C_R   0.269394 0.015178 0.138058 0.562024
C99   C     C_R   0.230604 0.515185 0.861941 0.562021
C100  C     C_R   0.769401 0.515196 0.138059 0.561662
C101  C     C_R   0.457023 0.145440 0.434804 0.031406
C102  C     C_R   0.715522 0.888950 0.533414 0.059242
C103  C     C_R   0.520676 0.147741 0.569401 0.045042
C104  C     C_R   0.979311 0.647741 0.430601 0.045038
C105  C     C_R   0.042961 0.645443 0.565199 0.031418
C106  C     C_R   0.463664 0.249735 0.473387 0.012242
C107  C     C_R   0.492146 0.250203 0.540786 0.043186
C108  C     C_R   0.007839 0.750204 0.459216 0.043183
C109  C     C_R   0.036319 0.749737 0.526616 0.012244
C110  C     C_R   0.512882 0.038273 0.532094 0.036448
C111  C     C_R   0.472573 0.035555 0.469320 0.037243
C112  C     C_R   0.027416 0.535557 0.530682 0.037235
Cr1   Cr    Cr6+3 0.771950 0.169480 0.750100 1.072891
Cr2   Cr    Cr6+3 0.383410 0.010620 0.249390 1.096396
Cr3   Cr    Cr6+3 0.116590 0.510620 0.750610 1.096398
Cr4   Cr    Cr6+3 0.883410 0.510620 0.249390 1.101428
Cr5   Cr    Cr6+3 0.228050 0.169480 0.249900 1.077868
Cr6   Cr    Cr6+3 0.271950 0.669480 0.750100 1.077873
Cr7   Cr    Cr6+3 0.728050 0.669480 0.249900 1.072887
Cr8   Cr    Cr6+3 0.614930 0.323340 0.749170 1.099316
Cr9   Cr    Cr6+3 0.385070 0.323340 0.250830 1.094872
Cr10  Cr    Cr6+3 0.114930 0.823340 0.749170 1.094872
Cr11  Cr    Cr6+3 0.885070 0.823340 0.250830 1.099311
Cr12  Cr    Cr6+3 0.616590 0.010620 0.750610 1.101429
H1    H     H_    0.915396 0.858243 0.468709 0.164367
H2    H     H_    0.516144 0.991600 0.063322 0.207394
H3    H     H_    0.983837 0.491605 0.936680 0.207388
H4    H     H_    0.016091 0.491594 0.063288 0.207526
H5    H     H_    0.525068 0.880616 0.601457 0.205882
H6    H     H_    0.555730 0.856623 0.515738 0.141634
H7    H     H_    0.602284 0.949806 0.574006 0.160829
H8    H     H_    0.485123 0.881720 0.397865 0.198368
H9    H     H_    0.447304 0.843992 0.478655 0.144314
H10   H     H_    0.398574 0.922238 0.415551 0.176907
H11   H     H_    0.014883 0.381725 0.602143 0.198380
H12   H     H_    0.042294 0.934622 0.554265 0.177468
H13   H     H_    0.052692 0.343996 0.521345 0.144319
H14   H     H_    0.101428 0.422258 0.584437 0.176894
H15   H     H_    0.974934 0.380613 0.398543 0.205880
H16   H     H_    0.944270 0.356617 0.484261 0.141635
H17   H     H_    0.897714 0.449792 0.425990 0.160833
H18   H     H_    0.852241 0.828608 0.007593 0.162475
H19   H     H_    0.820519 0.711203 0.061914 0.113738
H20   H     H_    0.805962 0.712137 0.967379 0.155051
H21   H     H_    0.147760 0.828544 0.992408 0.162500
H22   H     H_    0.194068 0.712098 0.032619 0.155026
H23   H     H_    0.457689 0.434620 0.445736 0.177468
H24   H     H_    0.179503 0.711166 0.938083 0.113913
H25   H     H_    0.352237 0.328542 0.007591 0.162499
H26   H     H_    0.320490 0.211164 0.061915 0.113914
H27   H     H_    0.305924 0.212101 0.967379 0.155030
H28   H     H_    0.647763 0.328606 0.992403 0.162471
H29   H     H_    0.694048 0.212151 0.032630 0.155061
H30   H     H_    0.679494 0.211194 0.938094 0.113735
H31   H     H_    0.832302 0.188146 0.594760 0.195556
H32   H     H_    0.888236 0.060355 0.595947 0.168894
H33   H     H_    0.890972 0.166849 0.528184 0.147400
H34   H     H_    0.584588 0.358247 0.531294 0.164370
H35   H     H_    0.162914 0.178305 0.406446 0.202271
H36   H     H_    0.111753 0.044546 0.402681 0.175663
H37   H     H_    0.102389 0.146075 0.471826 0.146316
H38   H     H_    0.337072 0.678315 0.593547 0.202272
H39   H     H_    0.388246 0.544570 0.597314 0.175658
H40   H     H_    0.397595 0.646101 0.528166 0.146323
H41   H     H_    0.667698 0.688145 0.405237 0.195554
H42   H     H_    0.611761 0.560358 0.404054 0.168894
H43   H     H_    0.609030 0.666858 0.471815 0.147398
H44   H     H_    0.536618 0.355906 0.413477 0.187819
H45   H     H_    0.504971 0.436400 0.562970 0.174844
H46   H     H_    0.995011 0.936400 0.437032 0.174845
H47   H     H_    0.963366 0.855908 0.586526 0.187814
H48   H     H_    0.483934 0.991587 0.936713 0.207534
I1    I     I_    0.875053 0.129584 0.945783 -0.159103
I2    I     I_    0.396809 0.866341 0.052599 -0.241524
I3    I     I_    0.103179 0.366343 0.947401 -0.241508
I4    I     I_    0.896820 0.366201 0.052663 -0.240751
I5    I     I_    0.786383 0.758773 0.572275 -0.331433
I6    I     I_    0.208837 0.754942 0.431345 -0.324892
I7    I     I_    0.291161 0.254936 0.568662 -0.324889
I8    I     I_    0.713613 0.258778 0.427724 -0.331413
I9    I     I_    0.622266 0.956894 0.400669 -0.372132
I10   I     I_    0.382894 0.914520 0.601394 -0.384730
I11   I     I_    0.117107 0.414518 0.398609 -0.384730
I12   I     I_    0.124938 0.129651 0.054242 -0.157382
I13   I     I_    0.877734 0.456876 0.599333 -0.372146
I14   I     I_    0.882200 0.118483 0.391216 -0.331369
I15   I     I_    0.124827 0.126241 0.611200 -0.335730
I16   I     I_    0.375165 0.626246 0.388795 -0.335722
I17   I     I_    0.617793 0.618475 0.608781 -0.331372
I18   I     I_    0.477135 0.450691 0.089686 -0.148661
I19   I     I_    0.522845 0.450686 0.910307 -0.146774
I20   I     I_    0.977148 0.950693 0.089693 -0.146773
I21   I     I_    0.022870 0.950698 0.910314 -0.148662
I22   I     I_    0.375062 0.629646 0.945759 -0.157381
I23   I     I_    0.624947 0.629581 0.054218 -0.159101
I24   I     I_    0.796724 0.157803 0.141049 -0.166489
I25   I     I_    0.203160 0.157799 0.858988 -0.170620
I26   I     I_    0.296837 0.657796 0.141011 -0.170630
I27   I     I_    0.703279 0.657798 0.858952 -0.166503
I28   I     I_    0.603195 0.866196 0.947336 -0.240770
O1    O     O_R   0.787510 0.042610 0.670410 -0.502755
O2    O     O_R   0.454250 0.051070 0.169440 -0.487872
O3    O     O_R   0.045750 0.551070 0.830560 -0.487865
O4    O     O_R   0.954250 0.551070 0.169440 -0.487610
O5    O     O_R   0.681210 0.959150 0.825320 -0.440499
O6    O     O_R   0.318790 0.959150 0.174680 -0.440511
O7    O     O_R   0.181210 0.459150 0.825320 -0.440509
O8    O     O_R   0.818790 0.459150 0.174680 -0.440497
O9    O     O_3   0.667820 0.167810 0.749960 -0.355809
O10   O     O_3   0.332180 0.167810 0.250040 -0.359413
O11   O     O_3   0.167820 0.667810 0.749960 -0.359407
O12   O     O_R   0.212490 0.042610 0.329590 -0.501445
O13   O     O_3   0.832180 0.667810 0.250040 -0.355817
O14   O     O_R   0.765670 0.292090 0.675090 -0.520657
O15   O     O_R   0.234330 0.292090 0.324910 -0.513112
O16   O     O_R   0.265670 0.792090 0.675090 -0.513112
O17   O     O_R   0.734330 0.792090 0.324910 -0.520662
O18   O     O_R   0.670220 0.409020 0.668560 -0.487411
O19   O     O_R   0.329780 0.409020 0.331440 -0.490876
O20   O     O_R   0.170220 0.909020 0.668560 -0.490870
O21   O     O_R   0.829780 0.909020 0.331440 -0.487413
O22   O     O_R   0.556580 0.251590 0.674980 -0.483513
O23   O     O_R   0.287510 0.542610 0.670410 -0.501445
O24   O     O_R   0.443420 0.251590 0.325020 -0.485815
O25   O     O_R   0.056580 0.751590 0.674980 -0.485825
O26   O     O_R   0.943420 0.751590 0.325020 -0.483511
O27   O     O_R   0.545890 0.049670 0.670030 -0.507092
O28   O     O_R   0.454110 0.049670 0.329970 -0.503198
O29   O     O_R   0.045890 0.549670 0.670030 -0.503217
O30   O     O_R   0.954110 0.549670 0.329970 -0.507088
O31   O     O_R   0.681340 0.957860 0.676500 -0.466057
O32   O     O_R   0.318660 0.957860 0.323500 -0.477693
O33   O     O_R   0.181340 0.457860 0.676500 -0.477689
O34   O     O_R   0.712490 0.542610 0.329590 -0.502752
O35   O     O_R   0.818660 0.457860 0.323500 -0.466061
O36   O     O_R   0.787380 0.044010 0.830940 -0.458083
O37   O     O_R   0.212620 0.044010 0.169060 -0.457243
O38   O     O_R   0.287380 0.544010 0.830940 -0.457239
O39   O     O_R   0.712620 0.544010 0.169060 -0.458078
O40   O     O_R   0.765540 0.293390 0.823910 -0.492954
O41   O     O_R   0.234460 0.293390 0.176090 -0.492285
O42   O     O_R   0.265540 0.793390 0.823910 -0.492288
O43   O     O_R   0.734460 0.793390 0.176090 -0.492958
O44   O     O_R   0.670090 0.410410 0.829090 -0.463395
O45   O     O_R   0.556450 0.252890 0.823790 -0.474938
O46   O     O_R   0.329910 0.410410 0.170910 -0.464190
O47   O     O_R   0.170090 0.910410 0.829090 -0.464190
O48   O     O_R   0.829910 0.910410 0.170910 -0.463394
O49   O     O_R   0.443550 0.252890 0.176210 -0.475088
O50   O     O_R   0.056450 0.752890 0.823790 -0.475092
O51   O     O_R   0.943550 0.752890 0.176210 -0.474941
O52   O     O_R   0.545750 0.051070 0.830560 -0.487618

loop_
_geom_bond_atom_site_label_1
_geom_bond_atom_site_label_2
_ccdc_geom_bond_type
C3    C104  A    
C44   C49   A    
Cr1   O36   S    
C7    H15   S    
C21   C26   A    
C94   O49   A    
C48   C95   S    
C64   I26   S    
Cr12  O5    S    
C82   C99   S    
C57   C79   A    
C15   H38   S    
C9    C72   S    
C62   I24   S    
C72   C76   A    
C35   C102  A    
C70   C88   S    
C36   O20   A    
C69   C107  S    
C60   I22   S    
C57   C62   A    
Cr7   O39   S    
C98   O37   A    
C75   I28   S    
C89   O46   A    
C5    H9    S    
C60   C64   A    
C47   O17   A    
C87   O34   A    
Cr10  O20   S    
C55   C105  S    
C103  C110  A    
C80   H46   S    
C77   C82   A    
C37   C85   S    
Cr5   O10   S    
C76   C81   A    
Cr3   O7    S    
C64   C68   A    
C10   H25   S    
C17   C39   A    
Cr11  O48   S    
C92   O43   A    
C106  C107  A    
C16   H43   S    
C95   O3    A    
C65   C70   A    
C88   O40   A    
C69   H45   S    
C29   C33   A    
C9    H22   S    
C101  C106  A    
C87   O35   A    
C108  C109  A    
C95   O50   A    
C100  O39   A    
C67   C72   A    
C18   C102  A    
C30   I17   S    
Cr5   O15   S    
C84   O31   A    
C55   O29   A    
C110  C111  A    
C105  C109  A    
C54   C101  S    
C11   H30   S    
C16   C34   S    
C91   C109  S    
C24   C29   A    
C99   O38   A    
C60   C82   A    
C78   C83   A    
C5    H8    S    
C91   H12   S    
C20   C24   A    
C16   H42   S    
Cr3   O3    S    
C70   C74   A    
Cr2   O2    S    
C1    O18   A    
C94   O2    A    
Cr1   O1    S    
C12   H33   S    
C58   H44   S    
C42   C43   A    
C61   I23   S    
C49   C50   A    
C51   I20   S    
C93   O52   A    
Cr6   O38   S    
C104  C108  A    
C22   C47   S    
C2    C19   A    
C45   C93   S    
C77   I3    S    
C65   I27   S    
Cr8   O45   S    
C78   I4    S    
Cr9   O19   S    
C5    H10   S    
C85   O32   A    
Cr2   O6    S    
Cr1   O14   S    
C12   H32   S    
Cr12  O9    S    
C19   I10   S    
Cr4   O4    S    
C81   C98   S    
C96   O4    A    
C4    H7    S    
Cr1   O40   S    
C100  O8    A    
C40   C45   A    
C63   C67   A    
C86   O33   A    
C62   C66   A    
C27   C31   A    
C34   C39   A    
C1    O14   A    
C15   H40   S    
C25   O15   A    
C24   C25   S    
C56   C104  S    
C61   C83   A    
C28   I15   S    
Cr11  O26   S    
C6    H13   S    
C30   C34   A    
C58   H23   S    
C4    H6    S    
C49   I18   S    
C5    C111  S    
C18   I9    S    
C68   C73   A    
C32   C37   A    
Cr10  O25   S    
Cr2   O28   S    
C46   C51   A    
C67   C90   S    
C17   C21   A    
C51   C52   A    
C99   O7    A    
Cr6   O11   S    
C58   C106  S    
C27   I14   S    
C6    H14   S    
C19   C23   A    
Cr11  O51   S    
C6    H11   S    
C40   H48   S    
C10   H27   S    
Cr10  O50   S    
Cr11  O21   S    
Cr7   O34   S    
C54   O24   A    
C66   C71   A    
C28   C32   A    
C3    C112  A    
C90   O47   A    
Cr3   O33   S    
C68   C89   S    
C56   O30   A    
C8    H20   S    
C42   C48   A    
Cr9   O10   S    
C50   I19   S    
C54   O28   A    
C13   C38   A    
Cr4   O8    S    
C93   O45   A    
C42   H3    S    
C92   O48   A    
C20   I11   S    
C57   I1    S    
C10   C73   S    
C17   I8    S    
Cr9   O46   S    
C105  C112  A    
C38   C86   S    
C26   C30   A    
C22   C27   A    
Cr11  O13   S    
C12   C31   S    
C74   C78   A    
C1    C26   S    
Cr2   O32   S    
C31   C35   A    
C59   C63   A    
C25   O19   A    
C23   C28   A    
C86   O23   A    
C12   H31   S    
C85   O12   A    
Cr8   O44   S    
C7    H17   S    
Cr12  O27   S    
C63   I25   S    
C103  C107  A    
C53   O27   A    
C15   H39   S    
Cr8   O9    S    
C84   O1    A    
C4    C110  S    
C40   C41   A    
C8    C71   S    
Cr8   O22   S    
C13   C20   A    
Cr4   O30   S    
Cr6   O23   S    
C18   C22   A    
C6    C112  S    
C41   H2    S    
C79   C97   S    
Cr5   O12   S    
C52   I21   S    
C59   C81   A    
C14   C32   S    
Cr4   O13   S    
C11   C74   S    
C43   H4    S    
C88   O44   A    
Cr6   O16   S    
C35   C84   S    
C58   C69   S    
C21   I13   S    
C4    H5    S    
Cr3   O11   S    
C66   C92   S    
C101  C111  A    
C80   C108  S    
C9    H24   S    
C3    C7    S    
C33   C38   A    
C29   I16   S    
C91   H47   S    
C14   H35   S    
C83   C100  S    
C55   O25   A    
C14   H37   S    
C90   O42   A    
C53   O22   A    
Cr1   O9    S    
Cr12  O52   S    
C13   I7    S    
C36   O16   A    
C71   C75   A    
C97   O36   A    
C2    C37   A    
Cr2   O10   S    
C7    H16   S    
Cr7   O43   S    
C45   C50   A    
C53   C103  S    
C80   C91   S    
Cr9   O49   S    
Cr4   O35   S    
C9    H21   S    
C41   C44   A    
Cr9   O24   S    
C69   H34   S    
C8    H19   S    
C89   O41   A    
C76   I2    S    
C47   O21   A    
C59   I12   S    
C43   C46   A    
Cr3   O29   S    
Cr12  O31   S    
C44   C94   S    
C11   H29   S    
Cr5   O37   S    
Cr7   O13   S    
C61   C65   A    
C11   H28   S    
C48   C52   A    
C46   C96   S    
Cr8   O18   S    
C23   C36   S    
C80   H1    S    
C14   H36   S    
C56   O26   A    
Cr7   O17   S    
C102  I5    S    
C73   C77   A    
Cr10  O11   S    
C98   O6    A    
C8    H18   S    
C2    I6    S    
C96   O51   A    
C97   O5    A    
C16   H41   S    
C75   C79   A    
C15   C33   S    
C10   H26   S    
C39   C87   S    
Cr6   O42   S    
Cr10  O47   S    
Cr5   O41   S    
