data_mof_unit_6194.cif
_audit_creation_date              2012-12-11T16:12:54-0500
_audit_creation_method            fapswitch 2.2
_symmetry_space_group_name_H-M    P1
_symmetry_Int_Tables_number       1
_space_group_crystal_system       triclinic
_cell_length_a                    23.493717
_cell_length_b                    13.594272
_cell_length_c                    28.443728
_cell_angle_alpha                 89.999646
_cell_angle_beta                  90.492943
_cell_angle_gamma                 90.000563
_cell_volume                      9084.02104683

loop_
_atom_site_label
_atom_site_type_symbol
_atom_type_description
_atom_site_fract_x
_atom_site_fract_y
_atom_site_fract_z
_atom_type_partial_charge
C1    C     C_R   0.284743 0.005339 0.816062 0.542586
C2    C     C_R   0.715259 0.005350 0.183940 0.542595
C3    C     C_R   0.784742 0.505346 0.816061 0.542603
C4    C     C_R   0.215256 0.505340 0.183938 0.542582
C5    C     C_3   0.492812 0.835806 0.954188 0.067423
C6    C     C_3   0.506946 0.835806 0.045877 0.067513
C7    C     C_3   0.992997 0.335803 0.954138 0.067467
C8    C     C_3   0.007135 0.335807 0.045827 0.067432
C9    C     C_3   0.502905 0.728957 0.027171 -0.212736
C10   C     C_3   0.494859 0.728948 0.973106 -0.212665
C11   C     C_3   0.004538 0.228939 0.026968 -0.212684
C12   C     C_3   0.996493 0.228940 0.972904 -0.212716
C13   C     C_1   0.516393 0.834780 0.096757 -0.073016
C14   C     C_1   0.483409 0.834776 0.903304 -0.073044
C15   C     C_1   0.016548 0.334778 0.096709 -0.073036
C16   C     C_1   0.983560 0.334775 0.903258 -0.073029
C17   C     C_1   0.266606 0.633586 0.860851 -0.011970
C18   C     C_1   0.733407 0.633523 0.139161 -0.011851
C19   C     C_1   0.766595 0.133510 0.860837 -0.011889
C20   C     C_1   0.233393 0.133598 0.139147 -0.011950
C21   C     C_R   0.290395 0.651880 0.982035 -0.107054
C22   C     C_R   0.708259 0.649443 0.018038 -0.106669
C23   C     C_R   0.792304 0.148442 0.981936 -0.106827
C24   C     C_R   0.209904 0.152390 0.017952 -0.106951
C25   C     C_R   0.285127 0.639377 0.030546 -0.108457
C26   C     C_R   0.713567 0.637083 0.969518 -0.108122
C27   C     C_R   0.786977 0.136136 0.030460 -0.108197
C28   C     C_R   0.215159 0.139860 0.969441 -0.108412
C29   C     C_R   0.218458 0.505775 0.016847 -0.105720
C30   C     C_R   0.783119 0.507902 0.983146 -0.105602
C31   C     C_R   0.716268 0.008783 0.016861 -0.105687
C32   C     C_R   0.281205 0.005349 0.983151 -0.105665
C33   C     C_R   0.223602 0.518408 0.968369 -0.107341
C34   C     C_R   0.777929 0.520390 0.031627 -0.107148
C35   C     C_R   0.721478 0.021216 0.968378 -0.107171
C36   C     C_R   0.276074 0.018010 0.031629 -0.107329
C37   C     C_R   0.259386 0.591798 0.950942 0.040940
C38   C     C_R   0.740668 0.591496 0.049096 0.040956
C39   C     C_R   0.759330 0.091382 0.950893 0.041063
C40   C     C_R   0.240611 0.091867 0.049051 0.040888
C41   C     C_R   0.248822 0.566701 0.047953 0.041121
C42   C     C_R   0.751331 0.566711 0.952071 0.041126
C43   C     C_R   0.748625 0.066717 0.047922 0.041244
C44   C     C_R   0.251146 0.066710 0.952041 0.041061
C45   C     C_R   0.445989 0.824114 0.816629 0.544449
C46   C     C_R   0.553992 0.824115 0.183383 0.544459
C47   C     C_R   0.946003 0.324114 0.816620 0.544456
C48   C     C_R   0.054007 0.324114 0.183374 0.544451
C49   C     C_1   0.241293 0.554203 0.097548 -0.058706
C50   C     C_1   0.758761 0.554222 0.902462 -0.058505
C51   C     C_1   0.741227 0.054232 0.097535 -0.058521
C52   C     C_1   0.258694 0.054208 0.902448 -0.058693
C53   C     C_1   0.262483 0.610100 0.901409 -0.058660
C54   C     C_1   0.737545 0.609945 0.098616 -0.058472
C55   C     C_1   0.762459 0.109897 0.901379 -0.058502
C56   C     C_1   0.237517 0.110133 0.098586 -0.058641
C57   C     C_1   0.231555 0.536954 0.138131 -0.012156
C58   C     C_1   0.768454 0.536963 0.861872 -0.012023
C59   C     C_1   0.731546 0.036970 0.138128 -0.012057
C60   C     C_1   0.268442 0.036956 0.861867 -0.012140
C61   C     C_1   0.470409 0.833398 0.638866 -0.017369
C62   C     C_1   0.529593 0.833396 0.361134 -0.017368
C63   C     C_1   0.970408 0.333398 0.638866 -0.017367
C64   C     C_1   0.029592 0.333396 0.361134 -0.017370
C65   C     C_R   0.497962 0.749569 0.524436 -0.122533
C66   C     C_R   0.502021 0.749569 0.475564 -0.122534
C67   C     C_R   0.997964 0.249569 0.524436 -0.122533
C68   C     C_R   0.002023 0.249569 0.475564 -0.122534
C69   C     C_R   0.502497 0.928005 0.475525 -0.100168
C70   C     C_R   0.497528 0.928004 0.524477 -0.100169
C71   C     C_R   0.002490 0.428005 0.475524 -0.100168
C72   C     C_R   0.997521 0.428005 0.524476 -0.100169
C73   C     C_R   0.495555 0.838671 0.548959 0.038472
C74   C     C_R   0.504448 0.838672 0.451042 0.038472
C75   C     C_R   0.995553 0.338671 0.548958 0.038472
C76   C     C_R   0.004446 0.338671 0.451041 0.038473
C77   C     C_1   0.515338 0.837440 0.401556 -0.064458
C78   C     C_1   0.484664 0.837442 0.598444 -0.064455
C79   C     C_1   0.015337 0.337440 0.401556 -0.064457
C80   C     C_1   0.984663 0.337442 0.598444 -0.064455
C81   C     C_1   0.266270 0.635044 0.637058 -0.003608
C82   C     C_1   0.733729 0.635044 0.362942 -0.003600
C83   C     C_1   0.766270 0.135043 0.637059 -0.003604
C84   C     C_1   0.233729 0.135045 0.362943 -0.003603
C85   C     C_R   0.216109 0.648213 0.521547 -0.160145
C86   C     C_R   0.783898 0.648199 0.478451 -0.160137
C87   C     C_R   0.716104 0.148201 0.521549 -0.160146
C88   C     C_R   0.283894 0.148208 0.478452 -0.160135
C89   C     C_R   0.274599 0.673983 0.815069 0.544025
C90   C     C_R   0.725400 0.673983 0.184930 0.544089
C91   C     C_R   0.774601 0.173987 0.815071 0.544091
C92   C     C_R   0.225402 0.173982 0.184931 0.544025
C93   C     C_R   0.213303 0.641121 0.472865 -0.163256
C94   C     C_R   0.786705 0.641108 0.527134 -0.163246
C95   C     C_R   0.713297 0.141109 0.472866 -0.163256
C96   C     C_R   0.286701 0.141118 0.527135 -0.163246
C97   C     C_R   0.299976 0.542745 0.473099 0.312581
C98   C     C_R   0.700015 0.542773 0.526904 0.312580
C99   C     C_R   0.799976 0.042749 0.473099 0.312581
C100  C     C_R   0.200017 0.042767 0.526904 0.312579
C101  C     C_R   0.302965 0.550175 0.522346 0.313937
C102  C     C_R   0.697025 0.550201 0.477657 0.313935
C103  C     C_R   0.802966 0.050179 0.522346 0.313935
C104  C     C_R   0.197027 0.050196 0.477656 0.313935
C105  C     C_R   0.259886 0.601337 0.546435 -0.007590
C106  C     C_R   0.740112 0.601342 0.453566 -0.007589
C107  C     C_R   0.759885 0.101334 0.546436 -0.007589
C108  C     C_R   0.240111 0.101345 0.453566 -0.007589
C109  C     C_R   0.254408 0.587449 0.448675 -0.012595
C110  C     C_R   0.745591 0.587458 0.551326 -0.012594
C111  C     C_R   0.754406 0.087446 0.448676 -0.012593
C112  C     C_R   0.245590 0.087459 0.551326 -0.012595
C113  C     C_1   0.244878 0.567621 0.399917 -0.018460
C114  C     C_1   0.755121 0.567627 0.600084 -0.018454
C115  C     C_1   0.744877 0.067619 0.399917 -0.018452
C116  C     C_1   0.255121 0.067628 0.600084 -0.018458
C117  C     C_1   0.262371 0.614190 0.596253 -0.022024
C118  C     C_1   0.737628 0.614192 0.403747 -0.022022
C119  C     C_1   0.762370 0.114187 0.596254 -0.022025
C120  C     C_1   0.237627 0.114194 0.403748 -0.022021
C121  C     C_1   0.233433 0.544473 0.360330 0.003472
C122  C     C_1   0.766567 0.544477 0.639671 0.003479
C123  C     C_1   0.733432 0.044473 0.360330 0.003480
C124  C     C_1   0.266567 0.044477 0.639671 0.003473
C125  C     C_R   0.284419 0.007247 0.684064 0.543978
C126  C     C_R   0.715581 0.007247 0.315936 0.543973
C127  C     C_R   0.784419 0.507247 0.684064 0.543978
C128  C     C_R   0.215581 0.507247 0.315936 0.543975
C129  C     C_R   0.445738 0.825225 0.684373 0.543691
C130  C     C_R   0.554262 0.825225 0.315627 0.543677
C131  C     C_R   0.945738 0.325225 0.684373 0.543680
C132  C     C_R   0.054262 0.325225 0.315627 0.543688
C133  C     C_R   0.274273 0.674255 0.682901 0.543176
C134  C     C_R   0.725727 0.674255 0.317099 0.543179
C135  C     C_R   0.774273 0.174255 0.682901 0.543180
C136  C     C_R   0.225727 0.174255 0.317099 0.543177
C137  C     C_3   0.443003 0.890473 0.978510 -0.212429
C138  C     C_3   0.557735 0.887465 0.021447 -0.213208
C139  C     C_3   0.942471 0.388287 0.978540 -0.213061
C140  C     C_3   0.057218 0.389656 0.021473 -0.212555
C141  C     C_3   0.549257 0.887917 0.967345 -0.216595
C142  C     C_3   0.451493 0.890914 0.032618 -0.215997
C143  C     C_3   0.048728 0.390098 0.967367 -0.216097
C144  C     C_3   0.950956 0.388745 0.032643 -0.216478
C145  C     C_1   0.529782 0.831252 0.137499 -0.015318
C146  C     C_1   0.470103 0.831245 0.862545 -0.015275
C147  C     C_1   0.029872 0.331248 0.137465 -0.015282
C148  C     C_1   0.970190 0.331248 0.862511 -0.015310
Cr1   Cr    Cr6+3 0.250680 0.837130 0.748990 1.040129
Cr2   Cr    Cr6+3 0.749320 0.837130 0.251010 1.040144
Cr3   Cr    Cr6+3 0.750680 0.337130 0.748990 1.040146
Cr4   Cr    Cr6+3 0.249320 0.337130 0.251010 1.040127
Cr5   Cr    Cr6+3 0.378160 0.960100 0.750430 1.036032
Cr6   Cr    Cr6+3 0.621840 0.960100 0.249570 1.036060
Cr7   Cr    Cr6+3 0.878160 0.460100 0.750430 1.036066
Cr8   Cr    Cr6+3 0.121840 0.460100 0.249570 1.036031
Cr9   Cr    Cr6+3 0.376090 0.707720 0.749670 1.029910
Cr10  Cr    Cr6+3 0.623910 0.707720 0.250330 1.029943
Cr11  Cr    Cr6+3 0.876090 0.207720 0.749670 1.029934
Cr12  Cr    Cr6+3 0.123910 0.207720 0.250330 1.029913
H1    H     H_    0.453533 0.968139 0.045513 0.121571
H2    H     H_    0.548658 0.965105 0.954308 0.120889
H3    H     H_    0.951951 0.465954 0.045638 0.121097
H4    H     H_    0.047081 0.467321 0.954432 0.121443
H5    H     H_    0.199229 0.472064 0.944627 0.102382
H6    H     H_    0.803406 0.475757 0.055337 0.102675
H7    H     H_    0.695561 0.977293 0.944683 0.102563
H8    H     H_    0.300211 0.971314 0.055377 0.102434
H9    H     H_    0.496056 0.680192 0.543061 0.085327
H10   H     H_    0.503912 0.680193 0.456938 0.085326
H11   H     H_    0.996061 0.180192 0.543061 0.085327
H12   H     H_    0.003917 0.180193 0.456938 0.085324
H13   H     H_    0.505200 0.997305 0.456867 0.116972
H14   H     H_    0.494841 0.997305 0.543137 0.116970
H15   H     H_    0.005189 0.497305 0.456865 0.116971
H16   H     H_    0.994831 0.497305 0.543135 0.116972
H17   H     H_    0.183727 0.689636 0.539897 0.158332
H18   H     H_    0.816286 0.689605 0.460100 0.158325
H19   H     H_    0.683720 0.189618 0.539899 0.158323
H20   H     H_    0.316280 0.189620 0.460101 0.158332
H21   H     H_    0.177983 0.674924 0.454169 0.151837
H22   H     H_    0.822031 0.674896 0.545828 0.151836
H23   H     H_    0.677975 0.174906 0.454171 0.151833
H24   H     H_    0.322025 0.174910 0.545829 0.151839
H25   H     H_    0.440266 0.967544 0.965468 0.123132
H26   H     H_    0.561906 0.964459 0.034345 0.122193
H27   H     H_    0.938686 0.465308 0.965599 0.122480
H28   H     H_    0.060348 0.466714 0.034474 0.122969
H29   H     H_    0.585697 0.849933 0.950390 0.108842
H30   H     H_    0.414369 0.855121 0.049643 0.108796
H31   H     H_    0.085668 0.353703 0.950360 0.108810
H32   H     H_    0.914325 0.351362 0.049620 0.108816
H33   H     H_    0.598110 0.848624 0.030382 0.104794
H34   H     H_    0.401927 0.853822 0.969641 0.104828
H35   H     H_    0.098108 0.352406 0.030359 0.104808
H36   H     H_    0.901903 0.350029 0.969627 0.104796
H37   H     H_    0.454721 0.689674 0.963804 0.121084
H38   H     H_    0.542290 0.687552 0.036549 0.121083
H39   H     H_    0.956897 0.188113 0.963547 0.120756
H40   H     H_    0.044472 0.189075 0.036292 0.121321
H41   H     H_    0.530532 0.688091 0.956551 0.119699
H42   H     H_    0.466490 0.690261 0.043803 0.119596
H43   H     H_    0.032708 0.189648 0.956292 0.119811
H44   H     H_    0.968656 0.188673 0.043545 0.119428
H45   H     H_    0.317966 0.709272 0.968763 0.098140
H46   H     H_    0.679555 0.705104 0.031341 0.098544
H47   H     H_    0.821465 0.203389 0.968622 0.098428
H48   H     H_    0.182580 0.210134 0.031220 0.098197
H49   H     H_    0.308758 0.686761 0.054323 0.102009
H50   H     H_    0.688807 0.682791 0.945767 0.102232
H51   H     H_    0.812188 0.181146 0.054200 0.102123
H52   H     H_    0.191771 0.187589 0.945662 0.102065
H53   H     H_    0.190364 0.449222 0.030124 0.097851
H54   H     H_    0.812327 0.453115 0.969837 0.098354
H55   H     H_    0.686612 0.954725 0.030181 0.098179
H56   H     H_    0.309054 0.948433 0.969879 0.097932
O1    O     O_R   0.237900 0.735050 0.799950 -0.505331
O2    O     O_R   0.762100 0.735050 0.200050 -0.505318
O3    O     O_R   0.737900 0.235050 0.799950 -0.505321
O4    O     O_R   0.262100 0.235050 0.200050 -0.505331
O5    O     O_R   0.425240 0.902610 0.703070 -0.491247
O6    O     O_R   0.574760 0.902610 0.296930 -0.491254
O7    O     O_R   0.925240 0.402610 0.703070 -0.491253
O8    O     O_R   0.074760 0.402610 0.296930 -0.491248
O9    O     O_R   0.433420 0.739640 0.698910 -0.513613
O10   O     O_R   0.566580 0.739640 0.301090 -0.513620
O11   O     O_R   0.933420 0.239640 0.698910 -0.513616
O12   O     O_R   0.066580 0.239640 0.301090 -0.513617
O13   O     O_R   0.323550 0.666510 0.701520 -0.499202
O14   O     O_R   0.676450 0.666510 0.298480 -0.499198
O15   O     O_R   0.823550 0.166510 0.701520 -0.499196
O16   O     O_R   0.176450 0.166510 0.298480 -0.499201
O17   O     O_3   0.334980 0.834990 0.749700 -0.254007
O18   O     O_3   0.665020 0.834990 0.250300 -0.254000
O19   O     O_3   0.834980 0.334990 0.749700 -0.254004
O20   O     O_3   0.165020 0.334990 0.250300 -0.254005
O21   O     O_R   0.256160 0.936210 0.796950 -0.495480
O22   O     O_R   0.743840 0.936210 0.203050 -0.495454
O23   O     O_R   0.756160 0.436210 0.796950 -0.495457
O24   O     O_R   0.243840 0.436210 0.203050 -0.495479
O25   O     O_R   0.333710 0.029860 0.801630 -0.506004
O26   O     O_R   0.666290 0.029860 0.198370 -0.505998
O27   O     O_R   0.833710 0.529860 0.801630 -0.505995
O28   O     O_R   0.166290 0.529860 0.198370 -0.506004
O29   O     O_R   0.425340 0.901920 0.798280 -0.495146
O30   O     O_R   0.574660 0.901920 0.201720 -0.495141
O31   O     O_R   0.925340 0.401920 0.798280 -0.495137
O32   O     O_R   0.074660 0.401920 0.201720 -0.495144
O33   O     O_R   0.433530 0.738890 0.801610 -0.506634
O34   O     O_R   0.566470 0.738890 0.198390 -0.506634
O35   O     O_R   0.933530 0.238890 0.801610 -0.506645
O36   O     O_R   0.066470 0.238890 0.198390 -0.506634
O37   O     O_R   0.323650 0.665810 0.796720 -0.494106
O38   O     O_R   0.676350 0.665810 0.203280 -0.494105
O39   O     O_R   0.823650 0.165810 0.796720 -0.494113
O40   O     O_R   0.176350 0.165810 0.203280 -0.494101
O41   O     O_R   0.237790 0.735800 0.697250 -0.500847
O42   O     O_R   0.762210 0.735800 0.302750 -0.500861
O43   O     O_R   0.737790 0.235800 0.697250 -0.500859
O44   O     O_R   0.262210 0.235800 0.302750 -0.500848
O45   O     O_R   0.256050 0.936910 0.701750 -0.490313
O46   O     O_R   0.743950 0.936910 0.298250 -0.490329
O47   O     O_R   0.756050 0.436910 0.701750 -0.490326
O48   O     O_R   0.243950 0.436910 0.298250 -0.490315
O49   O     O_R   0.333600 0.030610 0.698930 -0.507139
O50   O     O_R   0.666400 0.030610 0.301070 -0.507131
O51   O     O_R   0.833600 0.530610 0.698930 -0.507131
O52   O     O_R   0.166400 0.530610 0.301070 -0.507138
O53   O     O_3   0.338689 0.484113 0.449755 -0.533510
C149  C     C_3   0.381228 0.544857 0.430526 -0.105672
H57   H     H_    0.404864 0.585443 0.458430 0.110770
H58   H     H_    0.363281 0.597356 0.404312 0.110635
H59   H     H_    0.412347 0.497677 0.411998 0.145428
O54   O     O_3   0.661293 0.484161 0.550251 -0.533507
C150  C     C_3   0.618765 0.544925 0.569480 -0.105676
H60   H     H_    0.595132 0.585517 0.541576 0.110778
H61   H     H_    0.636723 0.597422 0.595691 0.110639
H62   H     H_    0.587640 0.497759 0.588012 0.145421
O55   O     O_3   0.838693 0.984124 0.449754 -0.533510
C151  C     C_3   0.881231 0.044875 0.430529 -0.105675
H63   H     H_    0.904871 0.085443 0.458437 0.110787
H64   H     H_    0.863283 0.097392 0.404323 0.110628
H65   H     H_    0.912347 0.997701 0.411993 0.145423
O56   O     O_3   0.161299 0.984145 0.550250 -0.533509
C152  C     C_3   0.118768 0.044900 0.569483 -0.105674
H66   H     H_    0.095128 0.085483 0.541579 0.110777
H67   H     H_    0.136723 0.097404 0.595691 0.110632
H68   H     H_    0.087651 0.997727 0.588018 0.145428
O57   O     O_3   0.346082 0.501493 0.546314 -0.535948
C153  C     C_3   0.387516 0.569978 0.561672 -0.110330
H69   H     H_    0.378338 0.594232 0.598064 0.141889
H70   H     H_    0.391455 0.635678 0.538444 0.091240
H71   H     H_    0.429534 0.532771 0.562392 0.138317
O58   O     O_3   0.653901 0.501536 0.453691 -0.535945
C154  C     C_3   0.612476 0.570038 0.438333 -0.110322
H72   H     H_    0.621657 0.594292 0.401941 0.141890
H73   H     H_    0.608544 0.635739 0.461562 0.091253
H74   H     H_    0.570453 0.532846 0.437611 0.138311
O59   O     O_3   0.846086 0.001504 0.546313 -0.535947
C155  C     C_3   0.887516 0.069995 0.561673 -0.110332
H75   H     H_    0.878339 0.094236 0.598067 0.141898
H76   H     H_    0.891447 0.135704 0.538449 0.091240
H77   H     H_    0.929537 0.032799 0.562388 0.138312
O60   O     O_3   0.153905 0.001526 0.453690 -0.535948
C156  C     C_3   0.112476 0.070022 0.438335 -0.110325
H78   H     H_    0.121660 0.094295 0.401947 0.141881
H79   H     H_    0.108535 0.135709 0.461570 0.091252
H80   H     H_    0.070456 0.032819 0.437605 0.138314

loop_
_geom_bond_atom_site_label_1
_geom_bond_atom_site_label_2
_ccdc_geom_bond_type
C99   C103  A    
C153  H71   S    
Cr12  O36   S    
C62   C77   T    
C76   C79   S    
C47   O31   A    
C20   C92   S    
C127  O51   A    
O56   C152  S    
C88   C108  A    
C85   C105  A    
C22   C38   A    
C29   C33   A    
C36   H8    S    
O54   C150  S    
C12   H43   S    
C83   C119  T    
C108  C120  S    
C46   O34   A    
C48   O36   A    
C93   H21   S    
Cr6   O30   S    
C136  O44   A    
Cr1   O21   S    
Cr10  O10   S    
C23   H47   S    
C104  O60   S    
C106  C118  S    
C69   H13   S    
C41   C49   S    
C115  C123  T    
C17   C89   S    
C121  C128  S    
C1    C60   S    
C25   C41   A    
C2    C59   S    
C123  C126  S    
C98   C102  A    
C28   C44   A    
Cr11  O15   S    
C82   C134  S    
C29   H53   S    
C134  O42   A    
Cr6   O18   S    
C69   C74   A    
Cr1   O1    S    
C64   C79   T    
Cr3   O3    S    
C28   H52   S    
C82   C118  T    
C155  H75   S    
C138  H33   S    
C125  O49   A    
C138  C141  S    
Cr9   O33   S    
C5    C137  S    
Cr4   O20   S    
Cr7   O31   S    
C8    C140  S    
Cr11  O35   S    
C48   O32   A    
C95   H23   S    
O58   C154  S    
C91   O39   A    
C11   H44   S    
C69   C70   A    
C9    H42   S    
C87   C107  A    
C130  O10   A    
C152  H67   S    
Cr12  O20   S    
C143  H31   S    
C103  C107  A    
C137  C142  S    
Cr5   O25   S    
C62   C130  S    
Cr7   O7    S    
C140  C143  S    
C13   C145  T    
C20   C56   T    
C142  H1    S    
C7    C143  S    
Cr9   O13   S    
C154  H73   S    
C31   C43   A    
C32   C36   A    
C31   H55   S    
C66   C74   A    
C49   C57   T    
C22   H46   S    
C122  C127  S    
C11   H40   S    
C52   C60   T    
C45   O33   A    
C85   C93   A    
C127  O47   A    
C156  H79   S    
C74   C77   S    
C87   C95   A    
Cr12  O16   S    
C9    C10   S    
C110  C114  S    
C47   O35   A    
C155  H77   S    
C61   C129  S    
C37   C53   S    
C44   C52   S    
C128  O48   A    
C90   O38   A    
Cr3   O19   S    
C141  H2    S    
C86   C106  A    
C72   C75   A    
C63   C80   T    
C32   C44   A    
C7    C12   S    
C30   C34   A    
C150  H62   S    
C151  H63   S    
C46   O30   A    
C1    O21   A    
Cr1   O17   S    
Cr10  O38   S    
C131  O11   A    
C97   C109  A    
Cr8   O52   S    
C99   C111  A    
O57   C153  S    
C50   C58   T    
C26   H50   S    
C70   H14   S    
Cr1   O41   S    
C42   C50   S    
C67   C75   A    
C10   H37   S    
C112  C116  S    
C26   C42   A    
C153  H70   S    
C2    O26   A    
C21   C25   A    
C137  H34   S    
C29   C41   A    
Cr11  O19   S    
C33   H5    S    
C24   C28   A    
C81   C133  S    
Cr3   O47   S    
C68   C76   A    
C135  O43   A    
Cr8   O8    S    
Cr8   O28   S    
C94   C110  A    
C71   C72   A    
Cr10  O18   S    
C97   O53   S    
Cr8   O20   S    
C134  O14   A    
C140  H35   S    
C90   O2    A    
C32   H56   S    
C113  C121  T    
C125  O45   A    
C126  O50   A    
C131  O7    A    
C4    O28   A    
C93   C109  A    
Cr7   O27   S    
C88   C96   A    
C98   C110  A    
C150  H60   S    
C151  H65   S    
Cr11  O39   S    
C101  O57   S    
C102  O58   S    
C103  O59   S    
C138  H26   S    
C132  O12   A    
C71   C76   A    
C142  H30   S    
C48   C147  S    
C153  H69   S    
Cr1   O45   S    
C39   C55   S    
C64   C132  S    
C40   C56   S    
Cr5   O29   S    
O55   C151  S    
C63   C131  S    
C6    C142  S    
Cr9   O9    S    
Cr4   O48   S    
C133  O41   A    
C135  O15   A    
O53   C149  S    
C149  H59   S    
C105  C117  S    
C6    C9    S    
C107  C119  S    
C155  H76   S    
C88   H20   S    
C137  H25   S    
Cr3   O43   S    
C67   C68   A    
C18   C90   S    
C130  O6    A    
C141  H29   S    
Cr8   O32   S    
C45   O29   A    
C154  H72   S    
C144  H32   S    
C24   H48   S    
C33   C37   A    
Cr12  O12   S    
C65   H9    S    
C140  H28   S    
Cr5   O49   S    
O59   C155  S    
Cr5   O5    S    
C152  H66   S    
C30   H54   S    
C136  O16   A    
C38   C54   S    
C84   C120  T    
C70   C73   A    
C128  O52   A    
Cr5   O17   S    
C5    C14   S    
Cr2   O46   S    
C92   O40   A    
C7    C16   S    
C100  C112  A    
C8    C15   S    
C144  H3    S    
C31   C35   A    
C17   C53   T    
C143  H4    S    
C104  C108  A    
C139  H36   S    
C19   C55   T    
C84   C136  S    
C116  C124  T    
C132  O8    A    
Cr10  O34   S    
C4    O24   A    
Cr3   O23   S    
Cr12  O40   S    
Cr2   O18   S    
C15   C147  T    
C68   H12   S    
C43   C51   S    
C71   H15   S    
C72   H16   S    
C10   H41   S    
C133  O13   A    
C19   C91   S    
C3    C58   S    
C27   C43   A    
C21   C37   A    
C85   H17   S    
C156  H78   S    
C22   C26   A    
C149  H57   S    
C30   C42   A    
C94   H22   S    
C34   H6    S    
C3    O23   A    
Cr6   O26   S    
Cr6   O6    S    
C35   C39   A    
Cr10  O14   S    
C96   C112  A    
C150  H61   S    
C151  H64   S    
C152  H68   S    
C46   C145  S    
C65   C73   A    
C126  O46   A    
C21   H45   S    
C92   O4    A    
C86   C94   A    
C100  C104  A    
Cr2   O22   S    
C4    C57   S    
C35   H7    S    
C73   C78   S    
C23   C27   A    
C98   O54   S    
C75   C80   S    
C83   C135  S    
C109  C113  S    
C89   O37   A    
C100  O56   S    
C99   O55   S    
C96   H24   S    
C86   H18   S    
C139  H27   S    
C154  H74   S    
C101  C105  A    
C45   C146  S    
C36   C40   A    
C129  O5    A    
C2    O22   A    
C67   H11   S    
C87   H19   S    
C6    C138  S    
Cr9   O37   S    
C139  C144  S    
Cr4   O44   S    
C5    C141  S    
Cr4   O24   S    
Cr7   O19   S    
C61   C78   T    
C156  H80   S    
C27   H51   S    
Cr2   O2    S    
C8    C144  S    
C3    O27   A    
C25   H49   S    
C1    O25   A    
C81   C117  T    
O60   C156  S    
Cr11  O11   S    
C51   C59   T    
C129  O9    A    
C9    H38   S    
C47   C148  S    
C34   C38   A    
C66   H10   S    
Cr6   O50   S    
C11   C12   S    
C14   C146  T    
C16   C148  T    
C5    C10   S    
C95   C111  A    
Cr2   O42   S    
C6    C13   S    
C7    C139  S    
Cr9   O17   S    
C8    C11   S    
C23   C39   A    
Cr4   O4    S    
C24   C40   A    
C12   H39   S    
C102  C106  A    
C149  H58   S    
C91   O3    A    
C97   C101  A    
C18   C54   T    
C89   O1    A    
C114  C122  T    
C65   C66   A    
C111  C115  S    
Cr7   O51   S    
C124  C125  S    
