data_mof_unit_21131.cif
_audit_creation_date              2012-12-10T20:40:01-0500
_audit_creation_method            fapswitch 2.2
_symmetry_space_group_name_H-M    P1
_symmetry_Int_Tables_number       1
_space_group_crystal_system       triclinic
_cell_length_a                    23.468696
_cell_length_b                    10.68648
_cell_length_c                    9.901402
_cell_angle_alpha                 89.333952
_cell_angle_beta                  88.989349
_cell_angle_gamma                 91.413493
_cell_volume                      2481.92686005

loop_
_atom_site_label
_atom_site_type_symbol
_atom_type_description
_atom_site_fract_x
_atom_site_fract_y
_atom_site_fract_z
_atom_type_partial_charge
C1    C     C_R   0.501091 0.259911 0.500678 0.937054
C2    C     C_R   0.119880 0.607721 0.515451 0.515754
C3    C     C_R   0.242695 0.601760 0.402501 -0.020199
C4    C     C_R   0.389810 0.503933 0.500487 0.935803
C5    C     C_R   0.302405 0.608083 0.419110 -0.123040
C6    C     C_R   0.328280 0.514799 0.498654 -0.120301
C7    C     C_R   0.295453 0.421224 0.563291 -0.222320
C8    C     C_R   0.236897 0.421088 0.555933 -0.100588
C9    C     C_R   0.210118 0.509357 0.475328 0.216114
C10   C     C_R   0.761784 0.431862 0.382193 0.192311
C11   C     C_R   0.701663 0.426172 0.389481 -0.160086
C12   C     C_R   0.971184 0.267468 0.432785 0.159688
C13   C     C_R   0.673047 0.490308 0.494869 -0.181633
C14   C     C_R   0.704719 0.551426 0.595708 0.182664
C15   C     C_R   0.763581 0.543109 0.595227 -0.194200
C16   C     C_R   0.502501 0.739846 0.499469 0.952140
C17   C     C_R   0.792317 0.487401 0.488039 0.228873
C18   C     C_R   0.517338 0.063053 0.621397 0.008761
C19   C     C_R   0.509563 0.128562 0.500665 -0.083917
C20   C     C_R   0.513427 0.066250 0.377035 -0.171298
C21   C     C_R   0.514754 0.937507 0.375843 -0.146807
C22   C     C_R   0.512095 0.871508 0.498669 -0.103775
C23   C     C_R   0.031500 0.271609 0.426155 0.159328
C24   C     C_R   0.519203 0.934873 0.619983 0.041553
C25   C     C_3   0.487034 0.921016 0.751772 0.019261
C26   C     C_3   0.483670 0.064082 0.752041 -0.011996
C27   C     C_R   0.457241 0.440213 0.074412 0.074338
C28   C     C_R   0.610578 0.496879 0.498628 0.952639
C29   C     C_R   0.544711 0.551333 0.067158 -0.001743
C30   C     C_R   0.544809 0.547956 0.923935 -0.152868
C31   C     C_R   0.456852 0.441262 0.932212 0.106905
C32   C     C_3   0.394067 0.468646 0.930881 0.044823
C33   C     C_3   0.395356 0.468306 0.086358 -0.370408
C34   C     C_R   0.061556 0.386581 0.446460 -0.095165
C35   C     C_R   0.882478 0.600607 0.495077 0.488437
C36   C     C_R   0.881354 0.377818 0.479226 0.579339
C37   C     C_R   0.941107 0.377606 0.462821 -0.100431
C38   C     C_R   0.971339 0.491752 0.480168 -0.067154
C39   C     C_R   0.941724 0.603564 0.500492 0.015068
C40   C     C_3   0.922997 0.141055 0.267025 -0.678224
C41   C     C_2   0.669416 0.349009 0.291301 0.944990
C42   C     C_3   0.658293 0.746797 0.643172 -0.735737
C43   C     C_3   0.578275 0.900845 0.886346 -0.672826
C44   C     C_3   0.484287 0.130332 0.987430 -0.712356
C45   C     C_R   0.031206 0.494987 0.478204 -0.059363
C46   C     C_2   0.592839 0.620115 0.128304 0.931871
C47   C     C_3   0.079280 0.094773 0.522861 -0.679439
C48   C     C_3   0.325500 0.634700 0.876909 -0.613928
C49   C     C_2   0.359010 0.363851 0.868096 0.921083
C50   C     C_2   0.360200 0.366959 0.159188 0.994443
C51   C     C_2   0.213878 0.690370 0.311024 1.008651
C52   C     C_2   0.337784 0.710369 0.354131 0.955284
C53   C     C_3   0.811434 0.467222 0.168505 -0.725919
C54   C     C_R   0.060699 0.607441 0.509198 0.030534
C55   C     C_R   0.030649 0.716818 0.533825 -0.160836
C56   C     C_R   0.971719 0.715701 0.525750 -0.165099
C57   C     C_R   0.121385 0.398372 0.433969 0.573537
H1    H     H_    0.787623 0.586276 0.675495 0.169234
H2    H     H_    0.315244 0.345405 0.615840 0.195189
H3    H     H_    0.212024 0.349876 0.610913 0.160409
H4    H     H_    0.958293 0.073427 0.443980 0.223418
H5    H     H_    0.960706 0.135427 0.198188 0.207926
H6    H     H_    0.897165 0.221977 0.236288 0.258183
H7    H     H_    0.896411 0.054361 0.257243 0.249261
H8    H     H_    0.610201 0.212979 0.262244 0.336338
H9    H     H_    0.698407 0.634243 0.784969 0.247958
H10   H     H_    0.681596 0.825141 0.692426 0.237647
H11   H     H_    0.612170 0.753465 0.666246 0.254655
H12   H     H_    0.511276 0.115562 0.281564 0.169579
H13   H     H_    0.664556 0.757328 0.531889 0.248139
H14   H     H_    0.496430 0.831146 0.941451 0.210789
H15   H     H_    0.603089 0.817212 0.912053 0.224637
H16   H     H_    0.579205 0.963491 0.974897 0.251424
H17   H     H_    0.599404 0.949426 0.798766 0.247547
H18   H     H_    0.531940 0.212489 0.830789 0.267356
H19   H     H_    0.510186 0.185091 0.059614 0.224614
H20   H     H_    0.476837 0.034601 0.029440 0.238871
H21   H     H_    0.442667 0.175664 0.976195 0.268708
H22   H     H_    0.677477 0.658551 0.124725 0.338694
H23   H     H_    0.513086 0.890617 0.279532 0.188939
H24   H     H_    0.044465 0.100893 0.331176 0.228264
H25   H     H_    0.041418 0.058250 0.581071 0.198587
H26   H     H_    0.104652 0.158405 0.587833 0.253694
H27   H     H_    0.106253 0.014982 0.494425 0.262040
H28   H     H_    0.412482 0.661229 0.902012 0.217175
H29   H     H_    0.324670 0.734465 0.844417 0.222741
H30   H     H_    0.306980 0.625812 0.980644 0.287208
H31   H     H_    0.299080 0.580125 0.805694 0.268845
H32   H     H_    0.281779 0.279024 0.849110 0.340307
H33   H     H_    0.282913 0.313400 0.234727 0.368032
H34   H     H_    0.444656 0.873699 0.739960 0.125589
H35   H     H_    0.202107 0.869595 0.254007 0.355313
H36   H     H_    0.356679 0.813783 0.186749 0.345120
H37   H     H_    0.775627 0.296203 0.234944 0.259466
H38   H     H_    0.837551 0.418693 0.091610 0.233341
H39   H     H_    0.838170 0.543058 0.212562 0.243628
H40   H     H_    0.774242 0.508677 0.118326 0.272925
H41   H     H_    0.439916 0.098868 0.738277 0.188377
H42   H     H_    0.579727 0.590597 0.865826 0.194640
H43   H     H_    0.389210 0.561693 0.131409 0.187661
H44   H     H_    0.052627 0.804139 0.556511 0.180547
H45   H     H_    0.949721 0.802260 0.542542 0.185574
N1    N     N_R   0.853430 0.488586 0.486839 -0.340585
N2    N     N_2   0.383663 0.592391 0.873287 -0.299572
N3    N     N_2   0.792439 0.378543 0.272195 -0.285092
N4    N     N_R   0.149065 0.506030 0.472686 -0.347964
N5    N     N_R   0.499610 0.499140 0.142800 -0.143112
N6    N     N_R   0.499610 0.499180 0.857150 -0.120469
N7    N     N_2   0.940785 0.153519 0.405560 -0.252761
N8    N     N_2   0.677949 0.627792 0.693808 -0.288208
N9    N     N_2   0.519961 0.862047 0.858166 -0.279871
N10   N     N_2   0.514440 0.126496 0.858956 -0.269565
N11   N     N_2   0.061869 0.159792 0.401924 -0.255389
O1    O     O_R   0.500010 0.316790 0.614690 -0.621243
O2    O     O_R   0.583850 0.500060 0.614640 -0.606470
O3    O     O_R   0.583840 0.500020 0.385300 -0.602413
O4    O     O_2   0.853987 0.708822 0.498106 -0.560626
O5    O     O_2   0.678413 0.362177 0.169924 -0.604519
O6    O     O_R   0.628968 0.260112 0.338494 -0.810057
O7    O     O_2   0.584371 0.697175 0.215712 -0.633929
O8    O     O_R   0.648079 0.604722 0.077037 -0.804976
O9    O     O_2   0.382017 0.286982 0.796329 -0.682613
O10   O     O_R   0.300270 0.354187 0.893855 -0.773284
O11   O     O_2   0.382162 0.271213 0.199776 -0.631679
O12   O     O_2   0.851184 0.268934 0.490212 -0.519508
O13   O     O_R   0.302180 0.385590 0.182962 -0.743932
O14   O     O_2   0.179629 0.650625 0.229277 -0.606753
O15   O     O_R   0.224760 0.819168 0.320736 -0.750492
O16   O     O_2   0.374105 0.765493 0.419382 -0.647853
O17   O     O_R   0.329634 0.743822 0.219059 -0.810334
O18   O     O_2   0.151970 0.304400 0.382220 -0.512752
O19   O     O_2   0.148172 0.708664 0.563972 -0.558120
O20   O     O_R   0.500000 0.316760 0.385350 -0.599164
O21   O     O_R   0.416160 0.499980 0.614700 -0.579573
O22   O     O_R   0.416150 0.499940 0.385360 -0.631939
O23   O     O_R   0.500000 0.683240 0.614650 -0.631100
O24   O     O_R   0.499990 0.683210 0.385310 -0.576939
Zn1   Zn    Zn3+2 0.500000 0.500020 0.653130 0.990446
Zn2   Zn    Zn3+2 0.500000 0.499980 0.346870 1.014226

loop_
_geom_bond_atom_site_label_1
_geom_bond_atom_site_label_2
_ccdc_geom_bond_type
C43   H16   S    
C55   C56   A    
H37   N3    S    
C43   H15   S    
C53   H38   S    
C31   N6    A    
C16   O24   A    
C18   C26   S    
H4    N7    S    
C7    C8    A    
C27   C33   S    
O22   Zn2   S    
O24   Zn2   S    
C12   C23   A    
H18   N10   S    
C37   C38   A    
C40   H6    S    
C36   N1    A    
C18   C24   A    
C51   O15   S    
C36   C37   A    
C35   N1    A    
C38   C39   A    
C10   C17   A    
C49   O10   S    
C42   H13   S    
C40   H5    S    
C15   C17   A    
C18   C19   A    
C47   H25   S    
C12   C37   A    
C44   H19   S    
C38   C45   A    
C28   O3    A    
C36   O12   S    
C8    C9    A    
H14   N9    S    
C34   C57   A    
C2    O19   S    
C32   N2    S    
C13   C28   S    
C50   O13   S    
C47   H26   S    
C41   O5    D    
O3    Zn2   S    
C43   H17   S    
C57   N4    A    
C21   C22   A    
C53   H39   S    
C42   H11   S    
C43   N9    S    
C1    O20   A    
H35   O15   S    
C7    H2    S    
C12   N7    S    
H33   O13   S    
C1    C19   S    
C25   H34   S    
C27   C31   A    
C50   O11   D    
C24   C25   S    
O23   Zn1   S    
C2    C54   A    
C3    C51   S    
C42   N8    S    
H32   O10   S    
C53   H40   S    
C25   C26   S    
C30   H42   S    
C2    N4    A    
H9    N8    S    
C35   C39   A    
C29   C30   A    
C3    C9    A    
C28   O2    A    
C23   N11   S    
H22   O8    S    
C39   C56   A    
O2    Zn1   S    
C27   N5    A    
C23   C34   A    
C48   H31   S    
H8    O6    S    
C48   H30   S    
C46   O7    D    
C5    C52   S    
C34   C45   A    
C47   H27   S    
C41   O6    S    
C40   N7    S    
H28   N2    S    
C26   H41   S    
C4    O22   A    
C44   N10   S    
C4    C6    S    
C45   C54   A    
O20   Zn2   S    
C42   H10   S    
C15   H1    S    
C48   H29   S    
C20   H12   S    
C35   O4    S    
C1    O1    A    
C52   O16   D    
H36   O17   S    
C16   O23   A    
C26   N10   S    
C9    N4    S    
C4    O21   A    
C47   N11   S    
C54   C55   A    
C44   H20   S    
C16   C22   S    
C30   N6    A    
C57   O18   S    
C31   C32   S    
C51   O14   D    
C3    C5    A    
O21   Zn1   S    
C6    C7    A    
C55   H44   S    
C40   H7    S    
C29   C46   S    
C33   H43   S    
C52   O17   S    
C32   C33   S    
C19   C20   A    
C44   H21   S    
C33   C50   S    
C56   H45   S    
C8    H3    S    
N6    Zn1   S    
C11   C13   A    
C46   O8    S    
C5    C6    A    
C14   N8    S    
C49   O9    D    
C21   H23   S    
C11   C41   S    
C22   C24   A    
O1    Zn1   S    
C17   N1    S    
C32   C49   S    
C10   C11   A    
C25   N9    S    
C53   N3    S    
C20   C21   A    
H24   N11   S    
C14   C15   A    
C29   N5    A    
C10   N3    S    
C13   C14   A    
N5    Zn2   S    
C48   N2    S    
