data_mof_unit_21372.cif
_audit_creation_date              2013-03-05T15:52:57-0500
_audit_creation_method            fapswitch 2.2
_symmetry_space_group_name_H-M    P1
_symmetry_Int_Tables_number       1
_space_group_crystal_system       triclinic
_cell_length_a                    10.798103
_cell_length_b                    10.67255
_cell_length_c                    17.114402
_cell_angle_alpha                 99.394078
_cell_angle_beta                  98.788248
_cell_angle_gamma                 61.406704
_cell_volume                      1702.19069702

loop_
_atom_site_label
_atom_site_type_symbol
_atom_site_description
_atom_site_fract_x
_atom_site_fract_y
_atom_site_fract_z
_atom_type_partial_charge
O1    O     O_R   0.749810 0.499790 0.438040 -0.486252
O2    O     O_R   0.477660 0.726260 0.439290 -0.470578
C1    C     C_R   0.359083 0.770405 0.398757 0.601139
O3    O     O_R   0.260150 0.743000 0.412270 -0.431459
O4    O     O_R   0.297740 0.466550 0.394720 -0.423791
C2    C     C_R   0.406203 0.373901 0.356155 0.539453
O5    O     O_R   0.488080 0.253500 0.386430 -0.445939
O6    O     O_R   0.722670 0.303800 0.421940 -0.528599
C3    C     C_R   0.777685 0.373529 0.404451 0.546637
O7    O     O_R   0.751130 0.502220 0.613520 -0.526028
O8    O     O_R   0.478890 0.728510 0.601960 -0.498000
C4    C     C_R   0.379072 0.717148 0.631158 0.545994
O9    O     O_R   0.261470 0.745430 0.587750 -0.479235
O10   O     O_R   0.298970 0.468800 0.557390 -0.520796
C5    C     C_R   0.365857 0.340521 0.580046 0.570582
O11   O     O_R   0.489400 0.255930 0.561910 -0.450149
O12   O     O_R   0.723890 0.306050 0.584610 -0.480590
C6    C     C_R   0.772485 0.380695 0.629915 0.551592
Cr1   Cr    Cr6+3 0.608100 0.610860 0.522250 1.081080
Cr2   Cr    Cr6+3 0.288890 0.599990 0.488420 1.132239
Cr3   Cr    Cr6+3 0.603040 0.289190 0.489390 1.134077
O13   O     O_3   0.500010 0.500010 0.500020 -0.344234
C7    C     C_1   0.376622 0.360634 0.271627 0.020725
C8    C     C_1   0.349741 0.343370 0.201051 0.037945
H1    H     H_    0.962560 0.435555 0.369426 0.201493
C9    C     C_R   0.904215 0.311162 0.178416 -0.022088
C10   C     C_R   0.820078 0.248302 0.192157 -0.022700
C11   C     C_R   0.809784 0.234111 0.270467 0.005163
C12   C     C_R   0.930791 0.377675 0.319329 -0.095526
C13   C     C_R   0.959044 0.378919 0.243430 0.134269
C14   C     C_R   0.747185 0.196647 0.130179 -0.074217
C15   C     C_R   0.704926 0.098272 0.143098 -0.110568
C16   C     C_R   0.712207 0.067835 0.219613 -0.088811
C17   C     C_R   0.758651 0.138895 0.283044 -0.022111
C18   C     C_R   0.849723 0.316998 0.332557 0.003377
H2    H     H_    0.723530 0.229133 0.070875 0.182826
H3    H     H_    0.667172 0.045194 0.093395 0.154909
H4    H     H_    0.679735 0.990868 0.230024 0.162558
H5    H     H_    0.765736 0.105895 0.340467 0.222311
C19   C     C_R   0.308553 0.851926 0.163265 0.005385
C20   C     C_R   0.441780 0.762564 0.194899 -0.022831
C21   C     C_R   0.466583 0.774451 0.278165 -0.075462
C22   C     C_R   0.210322 0.904912 0.289006 0.200478
C23   C     C_R   0.192564 0.920515 0.209561 -0.138917
C24   C     C_R   0.554368 0.682299 0.146287 0.220948
C25   C     C_R   0.687741 0.657730 0.177205 -0.120409
C26   C     C_R   0.713019 0.693145 0.257196 -0.139627
C27   C     C_R   0.605809 0.746959 0.308534 0.213005
C28   C     C_R   0.347326 0.830042 0.325036 0.034641
H6    H     H_    0.086847 0.987550 0.183974 0.151875
H7    H     H_    0.766913 0.624315 0.137022 0.228330
H8    H     H_    0.812866 0.692021 0.278698 0.226189
H9    H     H_    0.136265 0.501410 0.661287 0.148140
C29   C     C_R   0.285088 0.253109 0.793355 0.002718
C30   C     C_R   0.391045 0.136953 0.747614 -0.007450
C31   C     C_R   0.398834 0.152452 0.667817 0.017751
C32   C     C_R   0.204004 0.397509 0.682733 -0.151753
C33   C     C_R   0.186834 0.376580 0.757472 -0.147760
C34   C     C_R   0.493634 0.006476 0.779247 -0.118283
C35   C     C_R   0.600627 0.899100 0.736770 -0.174130
C36   C     C_R   0.603159 0.910218 0.658881 -0.057683
C37   C     C_R   0.498501 0.028653 0.622455 0.234206
C38   C     C_R   0.315834 0.292620 0.640039 0.017803
H10   H     H_    0.500413 0.978989 0.836999 0.192448
H11   H     H_    0.102496 0.463270 0.789870 0.150443
H12   H     H_    0.678678 0.803474 0.763622 0.131746
H13   H     H_    0.683269 0.821454 0.624795 0.163849
C39   C     C_1   0.817196 0.341472 0.708947 -0.033410
C40   C     C_1   0.845302 0.313420 0.776613 -0.033549
C41   C     C_1   0.355866 0.766994 0.713221 -0.036587
C42   C     C_1   0.324314 0.813285 0.780346 -0.033243
O14   O     O_R   0.171100 0.914680 0.053100 -0.513836
O15   O     O_R   0.941680 0.184840 0.050710 -0.524866
C43   C     C_R   0.951928 0.287225 0.099988 0.565162
O16   O     O_R   0.922080 0.403420 0.072610 -0.450725
O17   O     O_R   0.196880 0.369150 0.083850 -0.438879
C44   C     C_R   0.321017 0.302526 0.119277 0.577292
O18   O     O_R   0.411730 0.181020 0.091530 -0.544038
O19   O     O_R   0.365010 0.944360 0.063320 -0.471353
C45   C     C_R   0.286347 0.898990 0.086581 0.618115
O20   O     O_R   0.159380 0.906670 0.876210 -0.491132
O21   O     O_R   0.930820 0.177420 0.886730 -0.489409
C46   C     C_R   0.887447 0.296877 0.858744 0.567533
O22   O     O_R   0.910360 0.395420 0.895720 -0.510532
O23   O     O_R   0.186010 0.361730 0.919870 -0.491658
C47   C     C_R   0.277747 0.247473 0.878252 0.557128
O24   O     O_R   0.400000 0.173010 0.914630 -0.525934
O25   O     O_R   0.354140 0.936940 0.899340 -0.528151
C48   C     C_R   0.280359 0.881765 0.857678 0.572160
Cr4   Cr    Cr6+3 0.053960 0.052250 0.967380 1.039793
Cr5   Cr    Cr6+3 0.059890 0.373160 0.992710 1.090744
Cr6   Cr    Cr6+3 0.373370 0.061690 0.991710 1.016065
O26   O     O_3   0.162410 0.162370 0.983930 -0.319641
N1    N     N_R   0.627017 0.827513 0.377965 0.120322
O27   O     O_R   0.739215 0.763043 0.425847 -0.294234
O28   O     O_R   0.580755 0.962426 0.370569 -0.276764
N2    N     N_R   0.503542 0.018296 0.539533 0.100802
O29   O     O_R   0.388795 0.059564 0.491258 -0.290645
O30   O     O_R   0.622259 0.995281 0.516090 -0.250522
N3    N     N_R   0.031890 0.460973 0.236779 0.036488
O31   O     O_R   0.083781 0.507081 0.301488 -0.324156
O32   O     O_R   0.007365 0.530858 0.176342 -0.332607
N4    N     N_R   0.087721 0.956684 0.331238 0.070103
O33   O     O_R   0.075579 0.039870 0.397416 -0.320280
O34   O     O_R   0.012001 0.889198 0.315709 -0.310161
Cl1   Cl    Cl    0.533691 0.614480 0.046479 -0.587747

loop_
_geom_bond_atom_site_label_1
_geom_bond_atom_site_label_2
_geom_bond_distance
_ccdc_geom_bond_type
C44   O18   1.261696 A    
C30   C31   1.421861 A    
O11   Cr3   2.048980 S    
C30   C34   1.430275 A    
C20   C21   1.405523 A    
N2    O29   1.302098 A    
C1    C28   1.465946 S    
O4    Cr2   1.944206 S    
O23   C47   1.323406 A    
O8    Cr1   1.931275 S    
C9    C10   1.425138 A    
C27   N1    1.405480 S    
O15   Cr4   1.932256 S    
O4    C2    1.303738 A    
C6    C39   1.424663 S    
C5    O11   1.254305 A    
C13   N3    1.455272 S    
O15   C43   1.305335 A    
N3    O31   1.295752 A    
C29   C30   1.434543 A    
C46   O22   1.245676 A    
C11   C18   1.419856 A    
C39   C40   1.200686 T    
C7    C8    1.203551 T    
C19   C45   1.426863 S    
C41   C42   1.205447 T    
O22   Cr5   2.088409 S    
O16   Cr5   2.050907 S    
O20   C48   1.282379 A    
C11   C17   1.424292 A    
C34   C35   1.376201 A    
Cr3   O13   1.966086 S    
N1    O27   1.302138 A    
N2    O30   1.299321 A    
C32   C38   1.397828 A    
H1    C12   1.083716 S    
O1    Cr1   2.050292 S    
C43   O16   1.273665 A    
C10   C14   1.420527 A    
C17   H5    1.077016 S    
C26   C27   1.397030 A    
O25   Cr6   1.947328 S    
Cr1   O13   1.986380 S    
O1    C3    1.283996 A    
O17   C44   1.284558 A    
C29   C47   1.479641 S    
H9    C32   1.083436 S    
C47   O24   1.291523 A    
O6    C3    1.243585 A    
C21   C28   1.443168 A    
O18   Cr6   2.071344 S    
O5    Cr3   2.087133 S    
C25   H7    1.067131 S    
O12   Cr3   1.967281 S    
C35   C36   1.362958 A    
C22   C23   1.369978 A    
C12   C13   1.382452 A    
C40   C46   1.422227 S    
O10   Cr2   1.928705 S    
Cr5   O26   1.966155 S    
C37   N2    1.412746 S    
O14   Cr4   2.065518 S    
C36   H13   1.084182 S    
C33   H11   1.083110 S    
C14   C15   1.387315 A    
C42   C48   1.433604 S    
O7    Cr1   2.075969 S    
N3    O32   1.294364 A    
O12   C6    1.259110 A    
C34   H10   1.058455 S    
C31   C38   1.444211 A    
N4    O34   1.301039 A    
C21   C27   1.416032 A    
C15   H3    1.080947 S    
C4    O9    1.293699 A    
N1    O28   1.300176 A    
O19   Cr6   1.929035 S    
C26   H8    1.079729 S    
O20   Cr4   2.050086 S    
C19   C20   1.374615 A    
Cr2   O13   1.994367 S    
C9    C13   1.434337 A    
C31   C37   1.437366 A    
C1    O3    1.294955 A    
O23   Cr5   1.932274 S    
N4    O33   1.301486 A    
C24   Cl1   1.768056 S    
Cr4   O26   1.984985 S    
C29   C33   1.402181 A    
C23   H6    1.083760 S    
C4    C41   1.433295 S    
C25   C26   1.380995 A    
C5    C38   1.487442 S    
O9    Cr2   2.058990 S    
O2    Cr1   1.953442 S    
C14   H2    1.080026 S    
C22   C28   1.399250 A    
O6    Cr3   1.932038 S    
O8    C4    1.317433 A    
C2    O5    1.300484 A    
C12   C18   1.374020 A    
C16   H4    1.082593 S    
O21   Cr4   1.949021 S    
C15   C16   1.381831 A    
O2    C1    1.265104 A    
O14   C45   1.232481 A    
C32   C33   1.387715 A    
O7    C6    1.275470 A    
C2    C7    1.431813 S    
Cr6   O26   1.993133 S    
C9    C43   1.451117 S    
C16   C17   1.390707 A    
C36   C37   1.392172 A    
C22   N4    1.429039 S    
O17   Cr5   1.969547 S    
C35   H12   1.083750 S    
O19   C45   1.293972 A    
O3    Cr2   2.048588 S    
C24   C25   1.368874 A    
C8    C44   1.429150 S    
C19   C23   1.403082 A    
O25   C48   1.276038 A    
O21   C46   1.278051 A    
C10   C11   1.399797 A    
C3    C18   1.443586 S    
C20   C24   1.408393 A    
O10   C5    1.299064 A    
O24   Cr6   2.046698 S    
