data_mof_unit_9377.cif
_audit_creation_date              2012-12-10T16:54:56-0500
_audit_creation_method            fapswitch 2.2
_symmetry_space_group_name_H-M    P1
_symmetry_Int_Tables_number       1
_space_group_crystal_system       triclinic
_cell_length_a                    7.772934
_cell_length_b                    8.578948
_cell_length_c                    15.716179
_cell_angle_alpha                 90.841135
_cell_angle_beta                  85.849157
_cell_angle_gamma                 93.627074
_cell_volume                      1043.11491896

loop_
_atom_site_label
_atom_site_type_symbol
_atom_type_description
_atom_site_fract_x
_atom_site_fract_y
_atom_site_fract_z
_atom_type_partial_charge
C1    C     C_R   0.545762 0.794722 0.497810 0.960601
C2    C     C_2   0.430155 0.041804 0.503451 -0.382255
C3    C     C_R   0.502011 0.500028 0.661608 0.905916
C4    C     C_R   0.454238 0.205278 0.502190 0.960580
C5    C     C_R   0.497988 0.499965 0.338392 0.905919
C6    C     C_3   0.352250 0.594155 0.955410 -0.398200
C7    C     C_3   0.675628 0.575151 0.946753 -0.399824
C8    C     C_3   0.671569 0.575439 0.045077 -0.397374
C9    C     C_1   0.493889 0.500340 0.249603 -0.182259
C10   C     C_3   0.503422 0.499708 0.917315 0.370785
C11   C     C_3   0.348197 0.594445 0.053734 -0.397925
C12   C     C_3   0.496571 0.500187 0.082684 0.370579
C13   C     C_3   0.474097 0.330356 0.048676 -0.400913
C14   C     C_3   0.478224 0.330067 0.950346 -0.398857
C15   C     C_1   0.493549 0.500397 0.174232 -0.129314
C16   C     C_1   0.506444 0.499519 0.825767 -0.129255
C17   C     C_1   0.506104 0.499612 0.750396 -0.182261
C18   C     C_2   0.569845 0.958195 0.496550 -0.382280
H1    H     H_    0.361727 0.716942 0.077894 0.165774
H2    H     H_    0.786110 0.509141 0.919761 0.165924
H3    H     H_    0.696445 0.697194 0.923288 0.165015
H4    H     H_    0.690540 0.697636 0.069061 0.165349
H5    H     H_    0.780194 0.509619 0.065531 0.165074
H6    H     H_    0.355238 0.273473 0.929431 0.165136
H7    H     H_    0.585433 0.259980 0.923441 0.165408
H8    H     H_    0.349119 0.273949 0.075218 0.164949
H9    H     H_    0.227071 0.542034 0.934624 0.165586
H10   H     H_    0.221144 0.542413 0.080388 0.165918
H11   H     H_    0.579295 0.260349 0.069232 0.164997
H12   H     H_    0.701792 0.009217 0.489955 0.180501
H13   H     H_    0.298208 0.990783 0.510046 0.180506
H14   H     H_    0.013410 0.381938 0.436570 0.191583
H15   H     H_    0.986590 0.618061 0.563430 0.191609
H16   H     H_    0.367611 0.716546 0.932122 0.165196
N1    N     N_2   0.950340 0.457950 0.477370 -0.173525
N2    N     N_2   0.049660 0.542050 0.522630 -0.173517
O1    O     O_R   0.389240 0.738570 0.505550 -0.612978
O2    O     O_R   0.678400 0.711630 0.491050 -0.631127
O3    O     O_R   0.355360 0.513470 0.630110 -0.613565
O4    O     O_R   0.644510 0.486530 0.615610 -0.622015
O5    O     O_R   0.321600 0.288370 0.508950 -0.631143
O6    O     O_R   0.610760 0.261430 0.494450 -0.612997
O7    O     O_R   0.355490 0.513470 0.384390 -0.622007
O8    O     O_R   0.644640 0.486530 0.369890 -0.613578
Zn1   Zn    Zn3+2 0.306930 0.517990 0.509680 0.942139
Zn2   Zn    Zn3+2 0.693070 0.482010 0.490320 0.942122

loop_
_geom_bond_atom_site_label_1
_geom_bond_atom_site_label_2
_ccdc_geom_bond_type
C6    C10   S    
C7    C10   S    
C8    H4    S    
C11   C12   S    
C5    C9    S    
C18   H12   S    
C8    C12   S    
C2    C18   D    
C6    H9    S    
C2    C4    S    
N1    N2    D    
C12   C15   S    
C1    O1    A    
O3    Zn1   S    
C8    H5    S    
C5    O7    A    
C3    O3    A    
N2    Zn1   S    
C10   C16   S    
C13   C14   S    
O4    Zn2   S    
O7    Zn1   S    
C11   H1    S    
C1    C18   S    
C4    O6    A    
C1    O2    A    
C11   H10   S    
C13   H11   S    
C5    O8    A    
O8    Zn2   S    
C3    O4    A    
C3    C17   S    
C14   H7    S    
C10   C14   S    
C13   H8    S    
O2    Zn2   S    
C4    O5    A    
O1    Zn1   S    
H14   N1    S    
C7    C8    S    
H15   N2    S    
C12   C13   S    
C7    H2    S    
O6    Zn2   S    
C14   H6    S    
C6    C11   S    
O5    Zn1   S    
C2    H13   S    
C7    H3    S    
N1    Zn2   S    
C6    H16   S    
C9    C15   T    
C16   C17   T    
