data_mof_unit_59984.cif
_audit_creation_date              2012-12-11T17:24:15-0500
_audit_creation_method            fapswitch 2.2
_symmetry_space_group_name_H-M    P1
_symmetry_Int_Tables_number       1
_space_group_crystal_system       triclinic
_cell_length_a                    22.956948
_cell_length_b                    7.208959
_cell_length_c                    20.739904
_cell_angle_alpha                 89.902967
_cell_angle_beta                  93.740861
_cell_angle_gamma                 89.84717
_cell_volume                      3425.03348974

loop_
_atom_site_label
_atom_site_type_symbol
_atom_type_description
_atom_site_fract_x
_atom_site_fract_y
_atom_site_fract_z
_atom_type_partial_charge
O1    O     O_R   0.307200 0.614510 0.194080 -0.531914
O2    O     O_R   0.692800 0.385490 0.805920 -0.531914
O3    O     O_R   0.192800 0.114510 0.305920 -0.532009
O4    O     O_R   0.807200 0.885490 0.694080 -0.532008
O5    O     O_R   0.188140 0.283260 0.181690 -0.535968
O6    O     O_R   0.811860 0.716740 0.818310 -0.535967
O7    O     O_R   0.311860 0.783260 0.318310 -0.536964
O8    O     O_R   0.688140 0.216740 0.681690 -0.536964
C1    C     C_R   0.168641 0.453590 0.165743 0.690150
C2    C     C_R   0.831359 0.546410 0.834257 0.690149
C3    C     C_R   0.331550 0.953040 0.334097 0.690058
C4    C     C_R   0.668449 0.046960 0.665903 0.690057
O9    O     O_R   0.306460 0.284700 0.186400 -0.536117
O10   O     O_R   0.693540 0.715300 0.813600 -0.536117
O11   O     O_R   0.193540 0.784700 0.313600 -0.535029
O12   O     O_R   0.806460 0.215300 0.686400 -0.535029
O13   O     O_R   0.311970 0.115840 0.310660 -0.536716
O14   O     O_R   0.688030 0.884160 0.689340 -0.536717
O15   O     O_R   0.188030 0.615840 0.189340 -0.536539
O16   O     O_R   0.811970 0.384160 0.810660 -0.536539
C5    C     C_R   0.325365 0.453190 0.171761 0.719072
C6    C     C_R   0.674635 0.546810 0.828239 0.719073
C7    C     C_R   0.174701 0.953320 0.328314 0.715954
C8    C     C_R   0.825298 0.046680 0.671686 0.715952
O17   O     O_3   0.251670 0.448440 0.290760 -0.372532
O18   O     O_3   0.748330 0.551560 0.709240 -0.372532
O19   O     O_3   0.248330 0.948440 0.209240 -0.372771
O20   O     O_3   0.751670 0.051560 0.790760 -0.372771
V1    V     V_3+5 0.249690 0.173030 0.242440 1.420577
V2    V     V_3+5 0.750310 0.826970 0.757560 1.420574
V3    V     V_3+5 0.250310 0.673030 0.257560 1.421153
V4    V     V_3+5 0.749690 0.326970 0.742440 1.421150
H1    H     H_    0.974339 0.980921 0.382041 0.112712
H2    H     H_    0.025659 0.019074 0.617956 0.112716
H3    H     H_    0.463251 0.784472 0.051259 0.110673
H4    H     H_    0.536749 0.215528 0.948740 0.110672
C9    C     C_R   0.941400 0.002973 0.476663 -0.156210
C10   C     C_R   0.058597 0.997026 0.523335 -0.156211
C11   C     C_R   0.523344 0.673246 0.985633 -0.163782
C12   C     C_R   0.476655 0.326754 0.014366 -0.163781
H5    H     H_    0.896245 0.004963 0.457871 0.110630
H6    H     H_    0.103753 0.995035 0.542126 0.110630
H7    H     H_    0.540965 0.808346 0.975000 0.111325
H8    H     H_    0.459034 0.191655 0.024999 0.111325
C13   C     C_R   0.955158 0.014010 0.543557 0.139636
C14   C     C_R   0.044840 0.985990 0.456441 0.139636
C15   C     C_R   0.544677 0.513699 0.956227 0.133233
C16   C     C_R   0.455322 0.486301 0.043772 0.133233
C17   C     C_R   0.014087 0.010886 0.566564 -0.156312
C18   C     C_R   0.985910 0.989112 0.433433 -0.156312
C19   C     C_R   0.520968 0.340378 0.970894 -0.163938
C20   C     C_R   0.479032 0.659623 0.029105 -0.163938
C21   C     C_1   0.909046 0.027260 0.588454 -0.057011
C22   C     C_1   0.090952 0.972740 0.411543 -0.057012
C23   C     C_1   0.590734 0.527439 0.911285 -0.071723
C24   C     C_1   0.409266 0.472561 0.088715 -0.071722
C25   C     C_1   0.129275 0.962865 0.373835 -0.176581
C26   C     C_1   0.870723 0.037135 0.626163 -0.176583
C27   C     C_1   0.370897 0.462536 0.126358 -0.177293
C28   C     C_1   0.629103 0.537465 0.873641 -0.177293
C29   C     C_R   0.424711 0.097127 0.376608 -0.223234
C30   C     C_R   0.575289 0.902872 0.623391 -0.223240
C31   C     C_R   0.072278 0.343478 0.118098 -0.215539
C32   C     C_R   0.927722 0.656522 0.881902 -0.215540
C33   C     C_R   0.381545 0.963249 0.382884 -0.086657
C34   C     C_R   0.618454 0.036751 0.617116 -0.086663
C35   C     C_R   0.119530 0.464375 0.115933 -0.084322
C36   C     C_R   0.880470 0.535625 0.884067 -0.084324
C37   C     C_R   0.385868 0.842634 0.435822 -0.222110
C38   C     C_R   0.614132 0.157366 0.564178 -0.222110
C39   C     C_R   0.119122 0.599349 0.067459 -0.227854
C40   C     C_R   0.880878 0.400651 0.932541 -0.227859
C41   C     C_R   0.432496 0.856393 0.483635 0.037430
C42   C     C_R   0.567504 0.143609 0.516365 0.037436
C43   C     C_R   0.072669 0.612145 0.019472 0.035856
C44   C     C_R   0.927331 0.387855 0.980529 0.035860
C45   C     C_R   0.476523 0.991544 0.476334 0.025423
C46   C     C_R   0.523477 0.008456 0.523666 0.025429
C47   C     C_R   0.024089 0.492108 0.022967 0.024329
C48   C     C_R   0.975911 0.507892 0.977034 0.024334
C49   C     C_R   0.473263 0.110404 0.421678 0.035337
C50   C     C_R   0.526737 0.889596 0.578321 0.035342
C51   C     C_R   0.023719 0.356944 0.072795 0.038113
C52   C     C_R   0.976281 0.643056 0.927205 0.038116
C53   C     C_R   0.435500 0.739619 0.538804 -0.056422
C54   C     C_R   0.564500 0.260384 0.461195 -0.056421
C55   C     C_R   0.073396 0.744981 0.969058 -0.061712
C56   C     C_R   0.926604 0.255018 0.030942 -0.061710
C57   C     C_R   0.482312 0.756903 0.586257 -0.060707
C58   C     C_R   0.517688 0.243098 0.413742 -0.060707
C59   C     C_R   0.025251 0.760632 0.923158 -0.057744
C60   C     C_R   0.974749 0.239369 0.076842 -0.057744
H9    H     H_    0.420071 0.189925 0.335548 0.142236
H10   H     H_    0.579929 0.810073 0.664451 0.142236
H11   H     H_    0.073191 0.242980 0.156950 0.136833
H12   H     H_    0.926809 0.757019 0.843050 0.136831
H13   H     H_    0.351387 0.742313 0.440206 0.140910
H14   H     H_    0.648614 0.257685 0.559793 0.140910
H15   H     H_    0.155875 0.692968 0.067428 0.142492
H16   H     H_    0.844125 0.307031 0.932572 0.142491
C61   C     C_R   0.389305 0.600198 0.548171 0.099851
C62   C     C_R   0.386848 0.436943 0.511387 -0.144786
C63   C     C_R   0.344280 0.303522 0.521376 -0.104940
C64   C     C_R   0.304084 0.332185 0.568178 -0.104034
C65   C     C_R   0.306281 0.494704 0.604934 -0.118341
C66   C     C_R   0.348735 0.628629 0.594997 -0.109508
H17   H     H_    0.417855 0.414033 0.475157 0.121356
H18   H     H_    0.342350 0.178042 0.492903 0.127210
H19   H     H_    0.271209 0.228581 0.575907 0.102306
H20   H     H_    0.275133 0.516788 0.641168 0.106466
H21   H     H_    0.350234 0.753856 0.623838 0.106718
C67   C     C_R   0.610694 0.399811 0.451830 0.099846
C68   C     C_R   0.651259 0.371400 0.404999 -0.109500
C69   C     C_R   0.693713 0.505328 0.395064 -0.118342
C70   C     C_R   0.695914 0.667828 0.431829 -0.104038
C71   C     C_R   0.655723 0.696471 0.478637 -0.104936
C72   C     C_R   0.613155 0.563049 0.488622 -0.144790
H22   H     H_    0.649757 0.246185 0.376150 0.106721
H23   H     H_    0.724856 0.483259 0.358825 0.106468
H24   H     H_    0.728789 0.771434 0.424103 0.102309
H25   H     H_    0.657658 0.821935 0.507118 0.127211
H26   H     H_    0.582152 0.585943 0.524858 0.121356
C73   C     C_R   0.124291 0.869946 0.963995 0.102516
C74   C     C_R   0.177559 0.799579 0.944805 -0.149426
C75   C     C_R   0.225255 0.917786 0.939806 -0.115539
C76   C     C_R   0.219919 0.106695 0.953473 -0.103162
C77   C     C_R   0.166858 0.177696 0.972060 -0.107794
C78   C     C_R   0.119171 0.059818 0.977382 -0.100082
H27   H     H_    0.182022 0.653622 0.933817 0.104011
H28   H     H_    0.266313 0.863036 0.925218 0.109650
H29   H     H_    0.256832 0.198138 0.949473 0.103955
H30   H     H_    0.162701 0.324020 0.982156 0.115930
H31   H     H_    0.078181 0.115892 0.991461 0.115632
C79   C     C_R   0.875709 0.130053 0.036006 0.102515
C80   C     C_R   0.880828 0.940182 0.022617 -0.100087
C81   C     C_R   0.833141 0.822305 0.027939 -0.107793
C82   C     C_R   0.780081 0.893304 0.046528 -0.103163
C83   C     C_R   0.774746 0.082212 0.060196 -0.115537
C84   C     C_R   0.822442 0.200419 0.055197 -0.149419
H32   H     H_    0.921818 0.884109 0.008536 0.115629
H33   H     H_    0.837298 0.675982 0.017842 0.115930
H34   H     H_    0.743168 0.801861 0.050528 0.103955
H35   H     H_    0.733688 0.136962 0.074785 0.109649
H36   H     H_    0.817979 0.346376 0.066186 0.104011
C85   C     C_R   0.484749 0.633718 0.644020 0.102820
C86   C     C_R   0.475021 0.706513 0.705201 -0.155637
C87   C     C_R   0.478637 0.591276 0.759642 -0.115479
C88   C     C_R   0.491437 0.402773 0.753252 -0.101643
C89   C     C_R   0.500479 0.329137 0.692394 -0.113894
C90   C     C_R   0.497239 0.444108 0.637915 -0.101762
H37   H     H_    0.465107 0.852392 0.710637 0.106188
H38   H     H_    0.471588 0.648073 0.806793 0.117454
H39   H     H_    0.494255 0.313779 0.795440 0.108408
H40   H     H_    0.510043 0.183095 0.687510 0.116128
H41   H     H_    0.504389 0.386105 0.591035 0.116925
C91   C     C_R   0.515250 0.366286 0.355980 0.102818
C92   C     C_R   0.502762 0.555896 0.362087 -0.101755
C93   C     C_R   0.499524 0.670871 0.307609 -0.113896
C94   C     C_R   0.508565 0.597237 0.246751 -0.101642
C95   C     C_R   0.521363 0.408734 0.240360 -0.115478
C96   C     C_R   0.524978 0.293492 0.294799 -0.155646
H42   H     H_    0.495613 0.613897 0.408968 0.116928
H43   H     H_    0.489962 0.816913 0.312494 0.116129
H44   H     H_    0.505749 0.686235 0.204564 0.108406
H45   H     H_    0.528412 0.351939 0.193208 0.117455
H46   H     H_    0.534891 0.147613 0.289361 0.106188
C97   C     C_R   0.027274 0.898252 0.869968 0.100943
C98   C     C_R   0.994053 0.061722 0.871084 -0.147476
C99   C     C_R   0.996238 0.191599 0.821177 -0.106035
C100  C     C_R   0.031638 0.159078 0.770017 -0.109418
C101  C     C_R   0.064911 0.996565 0.768703 -0.123650
C102  C     C_R   0.062772 0.866247 0.818502 -0.104482
H47   H     H_    0.966425 0.087132 0.910397 0.122258
H48   H     H_    0.970450 0.317150 0.822000 0.127104
H49   H     H_    0.033237 0.259653 0.731370 0.105867
H50   H     H_    0.092328 0.971531 0.729084 0.102691
H51   H     H_    0.088665 0.740673 0.817067 0.106276
C103  C     C_R   0.972727 0.101749 0.130033 0.100941
C104  C     C_R   0.937237 0.133767 0.181504 -0.104491
C105  C     C_R   0.935102 0.003452 0.231304 -0.123643
C106  C     C_R   0.968367 0.840928 0.229986 -0.109425
C107  C     C_R   0.003757 0.808394 0.178820 -0.106037
C108  C     C_R   0.005940 0.938269 0.128912 -0.147464
H52   H     H_    0.911350 0.259351 0.182944 0.106275
H53   H     H_    0.907691 0.028498 0.270929 0.102689
H54   H     H_    0.966769 0.740354 0.268634 0.105868
H55   H     H_    0.029540 0.682834 0.177993 0.127106
H56   H     H_    0.033562 0.912849 0.089595 0.122256

loop_
_geom_bond_atom_site_label_1
_geom_bond_atom_site_label_2
_ccdc_geom_bond_type
C102  H51   S    
O17   V3    S    
C47   C51   A    
C101  C102  A    
O1    C5    A    
C76   C77   A    
C55   C59   A    
O19   V1    S    
O13   V1    S    
C99   C100  A    
C65   C66   A    
O3    C7    A    
C87   C88   A    
C72   H26   S    
C16   C24   S    
C65   H20   S    
O15   V3    S    
C40   H16   S    
C103  C104  A    
C80   C81   A    
C10   C17   A    
C34   C38   A    
C106  C107  A    
O7    C3    A    
C51   C60   A    
C55   C73   S    
C61   C62   A    
C50   C57   A    
C32   C36   A    
O9    V1    S    
C91   C92   A    
C5    C27   S    
C16   C20   A    
C83   H35   S    
C6    C28   S    
C67   C72   A    
O4    C8    A    
C29   H9    S    
C100  C101  A    
C70   C71   A    
C31   H11   S    
O1    V3    S    
C71   C72   A    
O2    V4    S    
O3    V1    S    
C77   H30   S    
C64   C65   A    
C107  C108  A    
C75   H28   S    
C1    O15   A    
C92   C93   A    
C32   C52   A    
C56   C60   A    
C2    O16   A    
C38   C42   A    
C108  H56   S    
C99   H48   S    
C37   C41   A    
C63   H18   S    
O14   V2    S    
C52   C59   A    
C45   C49   A    
O8    C4    A    
C44   C56   A    
C85   C90   A    
C104  H52   S    
C48   C52   A    
C82   C83   A    
C66   H21   S    
C58   C91   S    
O11   C7    A    
C11   C20   A    
C30   C50   A    
C15   C23   S    
C13   C21   S    
O12   C8    A    
C23   C28   T    
C64   H19   S    
C98   H47   S    
O10   V2    S    
C67   C68   A    
C69   C70   A    
O5    V1    S    
C100  H49   S    
C80   H32   S    
C31   C35   A    
C82   H34   S    
O7    V3    S    
C71   H25   S    
C30   C34   A    
O8    V4    S    
C73   C74   A    
C106  H54   S    
C88   C89   A    
C32   H12   S    
C68   C69   A    
C54   C58   A    
C79   C84   A    
C53   C57   A    
O18   V4    S    
C15   C19   A    
H1    C18   S    
C45   C46   A    
C4    C34   S    
C47   C48   A    
C31   C51   A    
C86   H37   S    
C103  C108  A    
C57   C85   S    
C89   H40   S    
C1    C35   S    
O5    C1    A    
C81   H33   S    
C84   H36   S    
C46   C50   A    
C94   C95   A    
C13   C17   A    
C36   C40   A    
C14   C22   S    
O9    C5    A    
C62   H17   S    
C95   H45   S    
C42   C54   A    
C41   C53   A    
C97   C102  A    
H4    C19   S    
C60   C103  S    
C93   H43   S    
C7    C25   S    
C49   C58   A    
C43   C55   A    
C98   C99   A    
O6    V2    S    
C91   C96   A    
C90   H41   S    
C30   H10   S    
C75   C76   A    
C88   H39   S    
C9    C13   A    
C77   C78   A    
C85   C86   A    
C97   C98   A    
C53   C61   S    
C105  C106  A    
C11   C15   A    
C86   C87   A    
O16   V4    S    
C59   C97   S    
C61   C66   A    
C12   C16   A    
C3    O13   A    
H2    C17   S    
C3    C33   S    
C44   C48   A    
C81   C82   A    
O6    C2    A    
C11   H7    S    
C21   C26   T    
O11   V3    S    
C79   C80   A    
C2    C36   S    
C104  C105  A    
O12   V4    S    
C12   C19   A    
C101  H50   S    
C14   C18   A    
C24   C27   T    
C95   C96   A    
O10   C6    A    
O20   V2    S    
C87   H38   S    
C56   C79   S    
C29   C49   A    
C89   C90   A    
C39   C43   A    
C9    C18   A    
H3    C20   S    
C73   C78   A    
C93   C94   A    
C69   H23   S    
C39   H15   S    
C76   H29   S    
C40   C44   A    
C33   C37   A    
O2    C6    A    
C74   H27   S    
C35   C39   A    
C107  H55   S    
C9    H5    S    
C62   C63   A    
C10   C14   A    
C83   C84   A    
C96   H46   S    
C68   H22   S    
C10   H6    S    
C29   C33   A    
C54   C67   S    
C12   H8    S    
C8    C26   S    
C70   H24   S    
C42   C46   A    
C105  H53   S    
C4    O14   A    
C63   C64   A    
C41   C45   A    
C94   H44   S    
C78   H31   S    
C43   C47   A    
C92   H42   S    
O4    V2    S    
C38   H14   S    
C74   C75   A    
C22   C25   T    
C37   H13   S    
