data_mof_unit_54577.cif
_audit_creation_date              2012-12-10T20:52:10-0500
_audit_creation_method            fapswitch 2.2
_symmetry_space_group_name_H-M    P1
_symmetry_Int_Tables_number       1
_space_group_crystal_system       triclinic
_cell_length_a                    11.035449
_cell_length_b                    9.000266
_cell_length_c                    8.344231
_cell_angle_alpha                 88.536219
_cell_angle_beta                  92.311716
_cell_angle_gamma                 91.57181
_cell_volume                      827.531634251

loop_
_atom_site_label
_atom_site_type_symbol
_atom_type_description
_atom_site_fract_x
_atom_site_fract_y
_atom_site_fract_z
_atom_type_partial_charge
C1    C     C_R   0.499536 0.218809 0.501276 0.919502
C2    C     C_R   0.740334 0.504050 0.502843 0.842541
C3    C     C_R   0.235397 0.544355 0.997048 0.512435
C4    C     C_R   0.768364 0.461369 0.005036 0.527897
C5    C     C_R   0.153076 0.578112 0.112548 -0.231938
C6    C     C_R   0.846033 0.434187 0.882286 -0.220862
C7    C     C_R   0.102228 0.463044 0.204123 0.093688
C8    C     C_R   0.898009 0.553846 0.798165 0.087299
C9    C     C_R   0.114335 0.314589 0.166182 -0.173731
C10   C     C_R   0.884880 0.699883 0.843872 -0.148479
C11   C     C_R   0.183980 0.280373 0.039533 -0.253893
C12   C     C_R   0.500052 0.781180 0.498740 0.915139
C13   C     C_R   0.809355 0.728118 0.966171 -0.264708
C14   C     C_R   0.246414 0.393374 0.958338 -0.143729
C15   C     C_R   0.747451 0.611373 0.041729 -0.170619
C16   C     C_R   0.930549 0.503624 0.362051 -0.283741
C17   C     C_R   0.071667 0.535220 0.636741 -0.250092
C18   C     C_3   0.342246 0.774838 0.983363 0.136208
C19   C     C_3   0.321481 0.915714 0.882326 -0.370312
C20   C     C_3   0.410644 0.039547 0.933152 -0.926674
C21   C     C_3   0.774591 0.238014 0.152532 0.079500
C22   C     C_3   0.704789 0.089891 0.159812 -0.317339
C23   C     C_R   0.873774 0.511455 0.505993 -0.093428
C24   C     C_3   0.767038 0.980658 0.277677 -0.997716
C25   C     C_R   0.127510 0.511135 0.494497 -0.093552
C26   C     C_R   0.947370 0.529114 0.645156 0.026949
C27   C     C_R   0.053993 0.496500 0.355524 0.032265
C28   C     C_1   0.499300 0.065186 0.501958 -0.212200
C29   C     C_1   0.499566 0.934774 0.498204 -0.211560
C30   C     C_R   0.260036 0.502630 0.497326 0.857640
H1    H     H_    0.303624 0.360440 0.865942 0.179219
H2    H     H_    0.123513 0.559586 0.742068 0.212184
H3    H     H_    0.441370 0.759238 0.995790 0.169670
H4    H     H_    0.310736 0.790673 0.106255 0.109274
H5    H     H_    0.333876 0.893292 0.753905 0.255229
H6    H     H_    0.226506 0.949941 0.893513 0.189589
H7    H     H_    0.392414 0.140189 0.858886 0.277185
H8    H     H_    0.401583 0.064875 0.061651 0.263990
H9    H     H_    0.504779 0.006600 0.912699 0.266695
H10   H     H_    0.794838 0.270712 0.277737 0.169983
H11   H     H_    0.861710 0.220743 0.094012 0.104379
H12   H     H_    0.684943 0.641477 0.129653 0.181447
H13   H     H_    0.611371 0.106571 0.198115 0.262914
H14   H     H_    0.697631 0.044384 0.037765 0.194920
H15   H     H_    0.861628 0.962493 0.243385 0.261727
H16   H     H_    0.716203 0.872675 0.277790 0.273933
H17   H     H_    0.768737 0.024104 0.401199 0.265313
H18   H     H_    0.133202 0.691879 0.138724 0.119569
H19   H     H_    0.854913 0.322215 0.840171 0.127398
H20   H     H_    0.073428 0.226079 0.237948 0.129135
H21   H     H_    0.926162 0.791824 0.777528 0.137355
H22   H     H_    0.192386 0.166118 0.008217 0.163732
H23   H     H_    0.794733 0.841049 0.996212 0.170875
H24   H     H_    0.879836 0.497154 0.253528 0.170817
N1    N     N_1   0.500020 0.500030 0.073640 -0.040680
N2    N     N_1   0.499980 0.499970 0.926360 -0.022112
O1    O     O_R   0.499990 0.285340 0.636850 -0.629008
O2    O     O_3   0.700590 0.346125 0.074288 -0.623667
O3    O     O_R   0.500010 0.714660 0.363150 -0.657013
O4    O     O_R   0.500010 0.285350 0.363100 -0.600986
O5    O     O_R   0.499990 0.714650 0.636900 -0.596376
O6    O     O_R   0.316750 0.500000 0.636870 -0.607400
O7    O     O_R   0.683250 0.500000 0.363130 -0.627616
O8    O     O_R   0.316770 0.500020 0.363120 -0.622029
O9    O     O_R   0.683230 0.499980 0.636880 -0.603085
O10   O     O_3   0.288345 0.653441 0.899634 -0.655873
Zn1   Zn    Zn3+2 0.499990 0.499990 0.682780 0.996043
Zn2   Zn    Zn3+2 0.500010 0.500010 0.317220 0.966780

loop_
_geom_bond_atom_site_label_1
_geom_bond_atom_site_label_2
_ccdc_geom_bond_type
C1    C28   S    
N1    N2    T    
C5    C7    A    
C24   H15   S    
C20   H7    S    
C30   O8    A    
C12   C29   S    
C25   C27   A    
N2    Zn1   S    
C20   H8    S    
O5    Zn1   S    
C7    C27   S    
C19   C20   S    
C14   H1    S    
C2    O9    A    
C24   H16   S    
C24   H17   S    
C16   C27   A    
C30   O6    A    
N1    Zn2   S    
C20   H9    S    
C17   C25   A    
C21   O2    S    
C19   H5    S    
C21   C22   S    
C12   O5    A    
C9    C11   A    
C3    C14   A    
O6    Zn1   S    
C4    C15   A    
C21   H11   S    
C17   C26   A    
O8    Zn2   S    
C22   C24   S    
C4    C6    A    
C28   C29   T    
C11   C14   A    
C18   H4    S    
O1    Zn1   S    
C16   C23   A    
C13   H23   S    
C19   H6    S    
C13   C15   A    
C6    H19   S    
C21   H10   S    
O3    Zn2   S    
C5    H18   S    
C16   H24   S    
C1    O4    A    
C3    O10   S    
C18   O10   S    
C18   H3    S    
C10   H21   S    
C2    C23   S    
C8    C26   S    
C2    O7    A    
O4    Zn2   S    
C8    C10   A    
C18   C19   S    
C23   C26   A    
C4    O2    S    
C25   C30   S    
C7    C9    A    
C17   H2    S    
O7    Zn2   S    
C6    C8    A    
C11   H22   S    
C3    C5    A    
C12   O3    A    
C22   H14   S    
C9    H20   S    
C22   H13   S    
C15   H12   S    
O9    Zn1   S    
C10   C13   A    
C1    O1    A    
