data_mof_unit_42547.cif
_audit_creation_date              2012-12-10T16:44:15-0500
_audit_creation_method            fapswitch 2.2
_symmetry_space_group_name_H-M    P1
_symmetry_Int_Tables_number       1
_space_group_crystal_system       triclinic
_cell_length_a                    7.448065
_cell_length_b                    8.679198
_cell_length_c                    13.375979
_cell_angle_alpha                 93.829294
_cell_angle_beta                  78.68943
_cell_angle_gamma                 103.012936
_cell_volume                      825.867740899

loop_
_atom_site_label
_atom_site_type_symbol
_atom_type_description
_atom_site_fract_x
_atom_site_fract_y
_atom_site_fract_z
_atom_type_partial_charge
C1    C     C_R   0.545692 0.800142 0.502136 0.881154
C2    C     C_R   0.427961 0.393331 0.965450 -0.177673
C3    C     C_R   0.486915 0.408451 0.858672 -0.105999
C4    C     C_R   0.563648 0.455568 0.028750 0.104225
C5    C     C_R   0.754827 0.511315 0.983256 0.112050
C6    C     C_R   0.810615 0.498427 0.878610 -0.305281
C7    C     C_R   0.682111 0.425878 0.819024 0.548477
C8    C     C_R   0.516248 0.470513 0.135037 -0.212844
C9    C     C_R   0.842961 0.565799 0.148768 -0.148466
C10   C     C_R   0.349886 0.400320 0.796075 -0.182812
C11   C     C_2   0.572439 0.967898 0.501039 -0.387247
C12   C     C_R   0.400747 0.465286 0.691388 0.835124
C13   C     C_2   0.429080 0.031956 0.495434 -0.379072
C14   C     C_R   0.455001 0.199817 0.496449 0.869004
C15   C     C_R   0.599467 0.511763 0.306127 0.798638
C16   C     C_R   0.891814 0.567680 0.043212 -0.141560
C17   C     C_R   0.655057 0.516654 0.195103 -0.074556
C18   C     C_R   0.165687 0.323351 0.833641 -0.420601
C19   C     C_R   0.113250 0.268173 0.933591 0.498401
C20   C     C_R   0.240585 0.307555 0.001158 0.426590
Cu1   Cu    Cu3+1 0.321300 0.483160 0.488710 0.958145
Cu2   Cu    Cu3+1 0.678700 0.516840 0.511290 0.974392
H1    H     H_    0.951468 0.604278 0.193967 0.150538
H2    H     H_    0.290506 0.960776 0.490852 0.177996
H3    H     H_    0.011775 0.618468 0.579299 0.227394
H4    H     H_    0.988078 0.381285 0.420870 0.230467
H5    H     H_    0.957179 0.532511 0.843868 0.155373
H6    H     H_    0.038059 0.607296 0.008335 0.115647
H7    H     H_    0.063242 0.302055 0.784341 0.221678
H8    H     H_    0.711282 0.039055 0.504831 0.176816
N1    N     N_2   0.947230 0.542220 0.528320 -0.186515
N2    N     N_2   0.052770 0.457780 0.471680 -0.208087
O1    O     O_R   0.383920 0.714220 0.492660 -0.585113
O2    O     O_R   0.685730 0.742660 0.511730 -0.595180
O3    O     O_R   0.275440 0.478800 0.636790 -0.584820
O4    O     O_R   0.577250 0.507240 0.655860 -0.540006
O5    O     O_R   0.314270 0.257340 0.488270 -0.589078
O6    O     O_R   0.616080 0.285780 0.507340 -0.567280
O7    O     O_R   0.422750 0.492760 0.344140 -0.586761
O8    O     O_R   0.724560 0.521200 0.363210 -0.589550
H9    H     H_    0.371729 0.448561 0.172624 0.214982
O9    O     O_3   0.180004 0.252039 0.099280 -0.571693
C21   C     C_3   0.250554 0.116144 0.106996 -0.307082
H10   H     H_    0.406484 0.142592 0.092580 0.174513
H11   H     H_    0.198026 0.019588 0.054365 0.148883
H12   H     H_    0.200857 0.072298 0.185816 0.191904
O10   O     O_3   0.931311 0.188109 0.969679 -0.539287
C22   C     C_3   0.900207 0.036438 0.922518 -0.325351
H13   H     H_    0.997326 0.965652 0.939382 0.149578
H14   H     H_    0.913251 0.042605 0.838640 0.143375
H15   H     H_    0.755162 0.972594 0.953418 0.184015
O11   O     O_3   0.752801 0.353533 0.728815 -0.552771
C23   C     C_3   0.672362 0.189664 0.730078 -0.284973
H16   H     H_    0.535132 0.165801 0.704926 0.165340
H17   H     H_    0.654030 0.137807 0.806343 0.142470
H18   H     H_    0.767403 0.128232 0.675841 0.172490

loop_
_geom_bond_atom_site_label_1
_geom_bond_atom_site_label_2
_ccdc_geom_bond_type
C1    O2    A    
C20   O9    S    
C21   H10   S    
H4    N2    S    
C6    C7    A    
Cu1   O3    S    
C12   O4    A    
Cu2   O4    S    
C2    C4    A    
C8    C17   A    
Cu1   O7    S    
C6    H5    S    
C4    C8    A    
Cu2   O8    S    
C22   H14   S    
C2    C3    A    
C1    O1    A    
C3    C10   A    
N1    N2    D    
C13   C14   S    
O11   C23   S    
C14   O5    A    
C21   H11   S    
C15   O7    A    
C10   C12   S    
C10   C18   A    
C9    C17   A    
C22   H13   S    
Cu1   N2    S    
C9    C16   A    
C7    O11   S    
C3    C7    A    
C23   H17   S    
C5    C6    A    
Cu2   O2    S    
C21   H12   S    
C19   O10   S    
C15   O8    A    
Cu1   O1    S    
O9    C21   S    
C23   H16   S    
C14   O6    A    
Cu2   O6    S    
O10   C22   S    
C11   C13   D    
Cu1   O5    S    
C8    H9    S    
C11   H8    S    
C15   C17   S    
C18   C19   A    
Cu2   N1    S    
C23   H18   S    
C18   H7    S    
C16   H6    S    
C9    H1    S    
C5    C16   A    
Cu1   Cu2   S    
C2    C20   A    
H3    N1    S    
C22   H15   S    
C19   C20   A    
C13   H2    S    
C4    C5    A    
C12   O3    A    
C1    C11   S    
