data_mof_unit_67458.cif
_audit_creation_date              2013-03-05T15:40:58-0500
_audit_creation_method            fapswitch 2.2
_symmetry_space_group_name_H-M    P1
_symmetry_Int_Tables_number       1
_space_group_crystal_system       triclinic
_cell_length_a                    11.089659
_cell_length_b                    8.84219
_cell_length_c                    7.701324
_cell_angle_alpha                 102.903346
_cell_angle_beta                  96.052649
_cell_angle_gamma                 94.445231
_cell_volume                      728.006290158

loop_
_atom_site_label
_atom_site_type_symbol
_atom_site_description
_atom_site_fract_x
_atom_site_fract_y
_atom_site_fract_z
_atom_type_partial_charge
O1    O     O_R   0.509140 0.286130 0.619770 -0.574520
O2    O     O_R   0.485380 0.256770 0.308360 -0.613552
C1    C     C_R   0.496586 0.201689 0.454881 0.823060
O3    O     O_R   0.329570 0.514650 0.655700 -0.514561
O4    O     O_R   0.305810 0.485300 0.344290 -0.597744
C2    C     C_R   0.260190 0.497576 0.499060 0.842927
Cu1   Cu    Cu3+1 0.514070 0.517380 0.684380 1.064170
Cu2   Cu    Cu3+1 0.485930 0.482620 0.315620 0.949181
O5    O     O_R   0.514620 0.743230 0.691640 -0.542331
O6    O     O_R   0.490860 0.713870 0.380230 -0.625873
O7    O     O_R   0.694190 0.514700 0.655710 -0.521378
O8    O     O_R   0.670430 0.485350 0.344300 -0.615955
C3    C     C_R   0.504707 0.798228 0.545206 0.836014
C4    C     C_R   0.738846 0.499751 0.501703 0.778435
C5    C     C_3   0.082367 0.445276 0.680888 0.060282
C6    C     C_3   0.934174 0.429637 0.673204 0.048437
C7    C     C_3   0.081705 0.675504 0.502450 0.116532
C8    C     C_3   0.047720 0.368525 0.326114 0.343271
C9    C     C_3   0.120705 0.497296 0.500151 -0.078982
C10   C     C_3   0.877395 0.499275 0.509065 -0.082120
C11   C     C_3   0.936683 0.677478 0.523547 0.199528
C12   C     C_3   0.907089 0.387112 0.327577 -0.031422
H1    H     H_    0.882845 0.455736 0.230334 0.219537
C13   C     C_2   0.483588 0.034344 0.431992 -0.061642
C14   C     C_2   0.521796 0.965106 0.568650 -0.174949
N1    N     N_2   0.464720 0.456420 0.038520 -0.090087
N2    N     N_2   0.535280 0.543580 0.961480 -0.091784
C15   C     C_2   0.142823 0.570474 0.849518 0.402292
H2    H     H_    0.107928 0.679228 0.893292 0.032699
O9    O     O_2   0.235215 0.554643 0.941989 -0.523726
C16   C     C_3   0.115876 0.736765 0.334931 -0.843637
H3    H     H_    0.136679 0.866016 0.363623 0.204665
H4    H     H_    0.196551 0.687384 0.284314 0.279405
H5    H     H_    0.044732 0.718725 0.220442 0.209875
C17   C     C_3   0.866515 0.752459 0.380899 -0.799042
H6    H     H_    0.775579 0.779732 0.418836 0.216519
H7    H     H_    0.913495 0.867797 0.379376 0.223869
H8    H     H_    0.852613 0.682765 0.241642 0.226844
C18   C     C_3   0.412391 0.945881 0.253143 -0.763778
H9    H     H_    0.361671 0.021623 0.180928 0.217060
H10   H     H_    0.474866 0.888476 0.162713 0.249313
H11   H     H_    0.341215 0.860872 0.274158 0.251901
C19   C     C_2   0.585931 0.043548 0.750922 0.312480
H12   H     H_    0.567978 0.997765 0.866319 0.137281
O10   O     O_2   0.662488 0.154143 0.777980 -0.542987
C20   C     C_3   0.412463 0.304809 0.943346 -0.294924
H13   H     H_    0.340756 0.264910 0.017179 0.135159
H14   H     H_    0.371222 0.304928 0.809876 0.196092
H15   H     H_    0.481684 0.224866 0.948368 0.178801
C21   C     C_2   0.617458 0.668347 0.065212 0.636287
H16   H     H_    0.636162 0.686677 0.205249 0.068181
O11   O     O_2   0.672532 0.755856 0.991929 -0.616144
C22   C     C_3   0.136490 0.288281 0.703308 -0.766542
H17   H     H_    0.172033 0.290184 0.840417 0.220743
H18   H     H_    0.076697 0.179648 0.677605 0.186991
H19   H     H_    0.211300 0.259585 0.622903 0.200520
C23   C     C_3   0.875118 0.256870 0.640034 -0.634641
H20   H     H_    0.889559 0.208512 0.761038 0.240905
H21   H     H_    0.777067 0.249614 0.595954 0.266516
H22   H     H_    0.905340 0.172332 0.534199 0.183244
C24   C     C_2   0.892922 0.507857 0.856110 0.386091
H23   H     H_    0.927510 0.621806 0.932641 0.033494
O12   O     O_2   0.815124 0.442981 0.923584 -0.524440
C25   C     C_2   0.158630 0.805114 0.649911 0.286655
H24   H     H_    0.123832 0.916343 0.695289 0.090373
O13   O     O_2   0.265244 0.798274 0.701626 -0.549755
C26   C     C_3   0.909860 0.794311 0.700106 -0.879615
H25   H     H_    0.816530 0.770118 0.732408 0.278993
H26   H     H_    0.973479 0.805655 0.820882 0.181685
H27   H     H_    0.915398 0.917153 0.685962 0.225451
C27   C     C_3   0.075579 0.386737 0.139846 -0.791717
H28   H     H_    0.054438 0.494137 0.109901 0.219147
H29   H     H_    0.168728 0.365187 0.116321 0.276121
H30   H     H_    0.016212 0.299511 0.032593 0.221435
C28   C     C_3   0.085125 0.197115 0.310275 -0.832634
H31   H     H_    0.052249 0.117686 0.176834 0.222329
H32   H     H_    0.185810 0.197119 0.323638 0.207918
H33   H     H_    0.050167 0.129272 0.398253 0.215189
C29   C     C_3   0.820885 0.233226 0.238380 -0.770711
H34   H     H_    0.857357 0.123726 0.252974 0.220197
H35   H     H_    0.730992 0.229110 0.287237 0.238397
H36   H     H_    0.803586 0.220516 0.091127 0.288703

loop_
_geom_bond_atom_site_label_1
_geom_bond_atom_site_label_2
_geom_bond_distance
_ccdc_geom_bond_type
C8    C28   1.584189 S    
Cu2   N1    2.080386 S    
C17   H6    1.108534 S    
C28   H31   1.114114 S    
C14   C19   1.495174 S    
C29   H36   1.108759 S    
C5    C15   1.555894 S    
Cu1   Cu2   2.768666 S    
C18   H10   1.105013 S    
C22   H17   1.083459 S    
Cu1   O7    2.034013 S    
C2    C9    1.547569 S    
C20   H15   1.086505 S    
N1    N2    1.329248 D    
C5    C22   1.591056 S    
C15   H2    1.062319 S    
C17   H7    1.111720 S    
C12   C29   1.574699 S    
C7    C25   1.547158 S    
O4    C2    1.329031 A    
O7    C4    1.316601 A    
C23   H21   1.096952 S    
C5    C6    1.632190 S    
C13   C18   1.525177 S    
Cu1   N2    2.080387 S    
C8    C9    1.641576 S    
C24   O12   1.222455 D    
O5    C3    1.321906 A    
C21   O11   1.218502 D    
C16   H4    1.095949 S    
N2    C21   1.408119 S    
Cu2   O8    2.032317 S    
O1    Cu1   1.988502 S    
C11   C26   1.584348 S    
C3    C14   1.440923 S    
C1    C13   1.444450 S    
O3    Cu1   2.032318 S    
C18   H11   1.097051 S    
C22   H18   1.090958 S    
C20   H14   1.080346 S    
C26   H25   1.105716 S    
C4    C10   1.531890 S    
C17   H8    1.099515 S    
C13   C14   1.376925 D    
O3    C2    1.332267 A    
C18   H9    1.110391 S    
C29   H35   1.102843 S    
C23   H22   1.076921 S    
C7    C11   1.634424 S    
O1    C1    1.308650 A    
C25   O13   1.217650 D    
C5    C9    1.646252 S    
C19   H12   1.085729 S    
O4    Cu2   2.034013 S    
C19   O10   1.209748 D    
C16   H3    1.115248 S    
C6    C10   1.616608 S    
C21   H16   1.049732 S    
C16   H5    1.093761 S    
C28   H32   1.110438 S    
C10   C12   1.604430 S    
C7    C16   1.576333 S    
C6    C24   1.556169 S    
C27   H29   1.091222 S    
C22   H19   1.098591 S    
C8    C27   1.538870 S    
Cu1   O5    1.984787 S    
C20   H13   1.105264 S    
C8    C12   1.581745 S    
O2    Cu2   1.984788 S    
O8    C4    1.335459 A    
O6    C3    1.308461 A    
C27   H30   1.110246 S    
C11   C17   1.573827 S    
C26   H27   1.113268 S    
C25   H24   1.082640 S    
C15   O9    1.220421 D    
O2    C1    1.323331 A    
C27   H28   1.063442 S    
C23   H20   1.110852 S    
C7    C9    1.662881 S    
C6    C23   1.569458 S    
C24   H23   1.066248 S    
C28   H33   1.081707 S    
N1    C20   1.421745 S    
C29   H34   1.101533 S    
C10   C11   1.634933 S    
Cu2   O6    1.988502 S    
C12   H1    1.089538 S    
C26   H26   1.087174 S    
