data_mof_unit_7191.cif
_audit_creation_date              2012-12-11T16:27:25-0500
_audit_creation_method            fapswitch 2.2
_symmetry_space_group_name_H-M    P1
_symmetry_Int_Tables_number       1
_space_group_crystal_system       triclinic
_cell_length_a                    21.818774
_cell_length_b                    6.923529
_cell_length_c                    14.873571
_cell_angle_alpha                 90.001773
_cell_angle_beta                  106.569403
_cell_angle_gamma                 89.998927
_cell_volume                      2153.54474711

loop_
_atom_site_label
_atom_site_type_symbol
_atom_type_description
_atom_site_fract_x
_atom_site_fract_y
_atom_site_fract_z
_atom_type_partial_charge
O1    O     O_R   0.835850 0.638310 0.002120 -0.539995
O2    O     O_R   0.164150 0.361690 0.997880 -0.539160
O3    O     O_R   0.664150 0.138310 0.997880 -0.539976
O4    O     O_R   0.335850 0.861690 0.002120 -0.539165
O5    O     O_R   0.717530 0.306070 0.861970 -0.545815
O6    O     O_R   0.282470 0.693930 0.138030 -0.545276
O7    O     O_R   0.782470 0.806070 0.138030 -0.545840
O8    O     O_R   0.217530 0.193930 0.861970 -0.545314
C1    C     C_R   0.705651 0.476769 0.824558 0.682076
C2    C     C_R   0.294501 0.522402 0.175421 0.682998
C3    C     C_R   0.794354 0.976773 0.175441 0.682144
C4    C     C_R   0.205503 0.022396 0.824579 0.682921
O9    O     O_R   0.838690 0.308440 0.993250 -0.541702
O10   O     O_R   0.161310 0.691560 0.006750 -0.542255
O11   O     O_R   0.661310 0.808440 0.006750 -0.541705
O12   O     O_R   0.338690 0.191560 0.993250 -0.542260
O13   O     O_R   0.786170 0.140510 0.130090 -0.544016
O14   O     O_R   0.213830 0.859490 0.869910 -0.544724
O15   O     O_R   0.713830 0.640510 0.869910 -0.544050
O16   O     O_R   0.286170 0.359490 0.130090 -0.544751
C5    C     C_R   0.866970 0.476461 0.007557 0.713427
C6    C     C_R   0.132940 0.523328 0.991837 0.712242
C7    C     C_R   0.633031 0.976466 0.992450 0.713526
C8    C     C_R   0.367059 0.023325 0.008164 0.712157
O17   O     O_3   0.732630 0.472520 0.044740 -0.366701
O18   O     O_3   0.267370 0.527480 0.955260 -0.366342
O19   O     O_3   0.767370 0.972520 0.955260 -0.366719
O20   O     O_3   0.232630 0.027480 0.044740 -0.366348
V1    V     V_3+5 0.753220 0.196740 0.991700 1.404557
V2    V     V_3+5 0.246780 0.803260 0.008300 1.405863
V3    V     V_3+5 0.746780 0.696740 0.008300 1.404550
V4    V     V_3+5 0.253220 0.303260 0.991700 1.405842
H1    H     H_    0.631390 0.125657 0.309328 0.121900
H2    H     H_    0.370029 0.098698 0.686335 0.121479
H3    H     H_    0.868594 0.625755 0.690688 0.121943
H4    H     H_    0.129969 0.598543 0.313675 0.121444
C9    C     C_R   0.517438 0.955653 0.816668 0.120888
C10   C     C_R   0.481938 0.990672 0.183246 0.121462
C11   C     C_R   0.982562 0.455525 0.183324 0.120937
C12   C     C_R   0.018052 0.490772 0.816746 0.121417
C13   C     C_R   0.466785 0.006474 0.738300 -0.114223
C14   C     C_R   0.533180 0.045157 0.260074 -0.116162
C15   C     C_R   0.033215 0.506322 0.261697 -0.114284
C16   C     C_R   0.966807 0.545271 0.739926 -0.116089
C17   C     C_R   0.408412 0.061915 0.748014 -0.182353
C18   C     C_R   0.592397 0.086222 0.248889 -0.180638
C19   C     C_R   0.091586 0.561800 0.251989 -0.182330
C20   C     C_R   0.907590 0.586298 0.751119 -0.180681
C21   C     C_R   0.398088 0.058264 0.835529 -0.140769
C22   C     C_R   0.602809 0.061924 0.162020 -0.141321
C23   C     C_R   0.101908 0.558212 0.164473 -0.140733
C24   C     C_R   0.897181 0.561952 0.837987 -0.141352
C25   C     C_R   0.448286 0.017409 0.917660 0.063063
C26   C     C_R   0.551966 0.016882 0.081330 0.062360
C27   C     C_R   0.051711 0.517381 0.082338 0.063058
C28   C     C_R   0.948028 0.516901 0.918670 0.062381
C29   C     C_R   0.511377 0.982459 0.909720 0.019771
C30   C     C_R   0.488396 0.002260 0.089910 0.018017
C31   C     C_R   0.988621 0.482403 0.090275 0.019734
C32   C     C_R   0.011598 0.502305 0.910086 0.018045
C33   C     C_R   0.435542 0.010529 0.006268 -0.176002
C34   C     C_R   0.564368 0.986836 0.993527 -0.176620
C35   C     C_R   0.064454 0.510543 0.993728 -0.176038
C36   C     C_R   0.935629 0.486818 0.006472 -0.176592
H5    H     H_    0.471611 0.994235 0.667953 0.135083
H6    H     H_    0.528353 0.044051 0.330620 0.136082
H7    H     H_    0.028396 0.494001 0.332045 0.135088
H8    H     H_    0.971638 0.544235 0.669381 0.136074
H9    H     H_    0.350203 0.091910 0.837570 0.111551
H10   H     H_    0.651205 0.083435 0.159036 0.111470
H11   H     H_    0.149791 0.591882 0.162434 0.111527
H12   H     H_    0.848785 0.583435 0.840973 0.111502
C37   C     C_R   0.176896 0.011317 0.723153 -0.026815
C38   C     C_R   0.822862 0.982086 0.276970 -0.026067
C39   C     C_R   0.323105 0.511357 0.276848 -0.026892
C40   C     C_R   0.677141 0.482051 0.723028 -0.025978
C41   C     C_R   0.187282 0.007461 0.566015 -0.169216
C42   C     C_R   0.812249 0.002702 0.433706 -0.169088
C43   C     C_R   0.312725 0.508067 0.433992 -0.169218
C44   C     C_R   0.687758 0.502111 0.566279 -0.169098
C45   C     C_R   0.214853 0.024737 0.662329 -0.175394
C46   C     C_R   0.784674 0.004901 0.337006 -0.177800
C47   C     C_R   0.285159 0.525198 0.337672 -0.175427
C48   C     C_R   0.715338 0.504431 0.662978 -0.177769
C49   C     C_R   0.111074 0.982588 0.687627 -0.248038
C50   C     C_R   0.888678 0.955003 0.313607 -0.244616
C51   C     C_R   0.388917 0.482422 0.312381 -0.248092
C52   C     C_R   0.611313 0.455200 0.686407 -0.244588
C53   C     C_R   0.081082 0.976523 0.589931 0.086050
C54   C     C_R   0.918626 0.963801 0.411246 0.087735
C55   C     C_R   0.418911 0.476570 0.410080 0.086068
C56   C     C_R   0.581367 0.463806 0.588764 0.087712
C57   C     C_R   0.120907 0.983707 0.529391 0.143763
C58   C     C_R   0.878733 0.983420 0.471228 0.143174
C59   C     C_R   0.379091 0.484106 0.470621 0.143789
C60   C     C_R   0.621264 0.483068 0.528770 0.143160
C61   C     C_R   0.013191 0.967930 0.550548 0.051962
C62   C     C_R   0.986543 0.959068 0.450908 0.052629
C63   C     C_R   0.486800 0.467871 0.449464 0.051954
C64   C     C_R   0.513448 0.459199 0.549108 0.052640
C65   C     C_R   0.028702 0.954277 0.394193 -0.209438
C66   C     C_R   0.971045 0.976362 0.607197 -0.209773
C67   C     C_R   0.471289 0.454698 0.605828 -0.209409
C68   C     C_R   0.528946 0.476029 0.392809 -0.209805
C69   C     C_R   0.094348 0.968647 0.432813 -0.209128
C70   C     C_R   0.905334 0.985501 0.568082 -0.209889
C71   C     C_R   0.405647 0.469211 0.567206 -0.209160
C72   C     C_R   0.594660 0.485010 0.431915 -0.209863
H13   H     H_    0.124626 0.970358 0.386290 0.128375
H14   H     H_    0.875039 0.997221 0.614332 0.128877
H15   H     H_    0.375371 0.471166 0.613730 0.128399
H16   H     H_    0.624957 0.496491 0.385658 0.128860
H17   H     H_    0.914906 0.928113 0.263559 0.094597
H18   H     H_    0.084931 0.964750 0.738506 0.097058
H19   H     H_    0.585078 0.428579 0.736469 0.094505
H20   H     H_    0.415053 0.464327 0.261507 0.097154
H21   H     H_    0.733563 0.020923 0.309018 0.100120
H22   H     H_    0.265816 0.044903 0.689561 0.098996
H23   H     H_    0.766461 0.520196 0.690954 0.100128
H24   H     H_    0.234207 0.545602 0.310438 0.098992
H25   H     H_    0.217805 0.014793 0.519972 0.115093
H26   H     H_    0.781639 0.018395 0.479267 0.115455
H27   H     H_    0.282208 0.515706 0.480036 0.115094
H28   H     H_    0.718374 0.517486 0.520707 0.115451
H29   H     H_    0.012675 0.945333 0.318890 0.133980
H30   H     H_    0.987123 0.981876 0.682577 0.133304
H31   H     H_    0.487313 0.445880 0.681134 0.133974
H32   H     H_    0.512866 0.481436 0.317426 0.133305
C73   C     C_3   0.570953 0.848802 0.793132 -0.418842
C74   C     C_3   0.613701 0.985818 0.758480 -0.674398
H33   H     H_    0.588210 0.040870 0.687540 0.210662
H34   H     H_    0.626338 0.108863 0.807134 0.233380
H35   H     H_    0.657749 0.911095 0.754378 0.232143
H36   H     H_    0.597960 0.756035 0.850779 0.194070
H37   H     H_    0.549504 0.746407 0.735629 0.184984
C75   C     C_3   0.429085 0.884615 0.209098 -0.416393
C76   C     C_3   0.386654 0.021248 0.244479 -0.680878
H38   H     H_    0.413957 0.086338 0.312236 0.212942
H39   H     H_    0.369504 0.136340 0.192382 0.234661
H40   H     H_    0.345301 0.942716 0.256035 0.231725
H41   H     H_    0.401543 0.790803 0.152240 0.195605
H42   H     H_    0.451329 0.783578 0.266957 0.184325
C77   C     C_3   0.929074 0.348501 0.206846 -0.418722
C78   C     C_3   0.886316 0.485329 0.241595 -0.674663
H43   H     H_    0.911879 0.540768 0.312428 0.210689
H44   H     H_    0.873475 0.608134 0.192836 0.233505
H45   H     H_    0.842385 0.410316 0.245978 0.232107
H46   H     H_    0.902064 0.255806 0.149168 0.194085
H47   H     H_    0.950554 0.246013 0.264291 0.184983
C79   C     C_3   0.070931 0.384877 0.790881 -0.416516
C80   C     C_3   0.113349 0.521691 0.755587 -0.680728
H48   H     H_    0.086097 0.586394 0.687706 0.212929
H49   H     H_    0.130291 0.637070 0.807597 0.234557
H50   H     H_    0.154834 0.443423 0.744305 0.231782
H51   H     H_    0.098475 0.291018 0.847714 0.195607
H52   H     H_    0.048717 0.283913 0.732974 0.184336

loop_
_geom_bond_atom_site_label_1
_geom_bond_atom_site_label_2
_ccdc_geom_bond_type
O17   V3    S    
C16   C20   A    
O1    C5    A    
C8    C33   S    
C12   C32   A    
C27   C31   A    
O19   V1    S    
O13   V1    S    
O3    C7    A    
O1    V3    S    
C44   C48   A    
O15   V3    S    
C40   C48   A    
C61   C62   A    
C29   C34   A    
O7    C3    A    
C76   H39   S    
C31   C36   A    
C22   C26   A    
C50   H17   S    
O9    V1    S    
C49   H18   S    
O10   V2    S    
C10   C14   A    
C51   C55   A    
C9    C13   A    
C44   H28   S    
O4    C8    A    
C77   C78   S    
C56   C60   A    
H4    C19   S    
O2    V4    S    
C14   C18   A    
C80   H50   S    
O3    V1    S    
C5    C36   S    
C75   H42   S    
C57   C69   A    
C6    C35   S    
C73   H37   S    
C25   C33   A    
C1    O15   A    
C7    C34   S    
C58   C70   A    
C52   C56   A    
C2    O16   A    
C27   C35   A    
O2    C6    A    
C77   H47   S    
C65   H29   S    
C80   H48   S    
C28   C36   A    
O14   V2    S    
C1    C40   S    
C10   C75   S    
C44   C60   A    
C67   H31   S    
C40   C52   A    
C12   C16   A    
C61   C66   A    
C30   C33   A    
O11   C7    A    
C63   C68   A    
C60   C72   A    
O12   C8    A    
C21   H9    S    
C4    C37   S    
O17   V1    S    
H1    C18   S    
C23   H11   S    
C38   C46   A    
C78   H45   S    
H3    C20   S    
C37   C45   A    
C54   C58   A    
O5    V1    S    
C65   C69   A    
C77   H46   S    
C76   H40   S    
O7    V3    S    
O19   V3    S    
O8    V4    S    
O20   V4    S    
C78   H44   S    
C50   C54   A    
C25   C29   A    
O18   V4    S    
C78   H43   S    
C13   H5    S    
C26   C34   A    
C43   H27   S    
C45   H22   S    
C64   C67   A    
C72   H16   S    
C53   C61   A    
C47   H24   S    
C74   H34   S    
C15   H7    S    
C43   C59   A    
C75   H41   S    
C24   H12   S    
C2    C39   S    
C42   C46   A    
C63   C64   A    
C68   H32   S    
C17   C21   A    
O8    C4    A    
C11   C31   A    
C26   C30   A    
C12   C79   S    
H2    C17   S    
C10   C30   A    
C38   C50   A    
C37   C49   A    
C51   H20   S    
C59   C71   A    
C39   C51   A    
O6    V2    S    
C11   C77   S    
O18   V2    S    
C79   H51   S    
C32   C35   A    
C16   H8    S    
C74   H35   S    
C68   C72   A    
C56   C64   A    
C67   C71   A    
C73   C74   S    
O16   V4    S    
C69   H13   S    
C3    O13   A    
C49   C53   A    
C71   H15   S    
O5    C1    A    
C75   C76   S    
C66   H30   S    
C3    C38   S    
O6    C2    A    
C19   C23   A    
O11   V3    S    
O12   V4    S    
C62   C65   A    
C76   H38   S    
C18   C22   A    
O10   C6    A    
C52   H19   S    
O20   V2    S    
C74   H33   S    
C22   H10   S    
O9    C5    A    
C43   C47   A    
C39   C47   A    
C42   C58   A    
C48   H23   S    
C21   C25   A    
C41   C57   A    
C9    C73   S    
C66   C70   A    
C23   C27   A    
C80   H49   S    
C53   C57   A    
C42   H26   S    
O4    V2    S    
C41   H25   S    
C55   C59   A    
C73   H36   S    
C28   C32   A    
C20   C24   A    
C11   C15   A    
C70   H14   S    
C41   C45   A    
C4    O14   A    
C14   H6    S    
C13   C17   A    
C79   C80   S    
C79   H52   S    
C46   H21   S    
C55   C63   A    
C15   C19   A    
C54   C62   A    
C9    C29   A    
C24   C28   A    
