data_mof_unit_8509.cif
_audit_creation_date              2012-12-10T18:22:25-0500
_audit_creation_method            fapswitch 2.2
_symmetry_space_group_name_H-M    P1
_symmetry_Int_Tables_number       1
_space_group_crystal_system       triclinic
_cell_length_a                    23.490932
_cell_length_b                    10.717929
_cell_length_c                    9.554765
_cell_angle_alpha                 89.752736
_cell_angle_beta                  90.271739
_cell_angle_gamma                 90.513743
_cell_volume                      2405.49703137

loop_
_atom_site_label
_atom_site_type_symbol
_atom_type_description
_atom_site_fract_x
_atom_site_fract_y
_atom_site_fract_z
_atom_type_partial_charge
C1    C     C_R   0.498597 0.259996 0.499770 0.769928
C2    C     C_R   0.501526 0.739976 0.500247 0.771024
C3    C     C_R   0.239843 0.610820 0.537984 -0.013575
C4    C     C_R   0.760074 0.388596 0.463926 -0.022577
C5    C     C_R   0.300011 0.612020 0.533915 -0.104107
C6    C     C_R   0.699906 0.389930 0.459876 -0.061300
C7    C     C_R   0.329040 0.501621 0.498084 -0.211236
C8    C     C_R   0.670978 0.498708 0.501702 -0.241565
C9    C     C_R   0.298884 0.393568 0.454102 -0.036517
C10   C     C_R   0.701333 0.606743 0.544980 -0.033119
C11   C     C_R   0.238582 0.393762 0.454651 0.141183
C12   C     C_R   0.761568 0.607945 0.538069 0.175584
C13   C     C_R   0.209581 0.502338 0.496636 0.278064
C14   C     C_R   0.790347 0.498606 0.497930 0.225426
C15   C     C_3   0.547780 0.047485 0.559447 -0.236278
C16   C     C_3   0.452571 0.952437 0.440648 -0.227982
C17   C     C_3   0.545747 0.962880 0.428542 0.148397
C18   C     C_3   0.454606 0.037005 0.571576 0.157361
C19   C     C_3   0.502462 0.876816 0.501720 -0.083693
C20   C     C_3   0.497871 0.123115 0.498379 -0.078824
C21   C     C_3   0.504050 0.960616 0.632149 0.153273
C22   C     C_3   0.496309 0.039301 0.367945 0.148639
C23   C     C_R   0.391582 0.501112 0.499576 0.758505
C24   C     C_R   0.608427 0.499324 0.500361 0.753104
C25   C     C_3   0.502321 0.612013 0.048493 0.067385
C26   C     C_3   0.497679 0.387967 0.951547 0.065731
C27   C     C_3   0.456943 0.559314 0.949354 0.162706
C28   C     C_3   0.543041 0.440666 0.050723 0.123342
C29   C     C_3   0.545450 0.552382 0.950432 0.187108
C30   C     C_3   0.454555 0.447582 0.049616 0.190718
C31   C     C_R   0.879338 0.525756 0.374785 0.517604
C32   C     C_R   0.120609 0.472990 0.619901 0.560992
C33   C     C_R   0.880165 0.469502 0.616826 0.544198
C34   C     C_R   0.119704 0.528745 0.377682 0.619024
C35   C     C_R   0.939726 0.469268 0.618896 -0.047502
C36   C     C_R   0.060162 0.528258 0.375476 -0.050702
C37   C     C_R   0.969818 0.498585 0.495776 -0.050318
C38   C     C_R   0.030090 0.499027 0.498636 -0.048038
C39   C     C_R   0.939684 0.527418 0.370325 -0.016940
C40   C     C_R   0.060242 0.470406 0.624130 -0.012935
C41   C     C_R   0.969283 0.440361 0.742136 -0.152054
C42   C     C_R   0.030616 0.556739 0.252111 -0.153279
C43   C     C_R   0.028814 0.440448 0.747309 0.140504
C44   C     C_R   0.971100 0.556850 0.246985 0.140570
Cu1   Cu    Cu3+1 0.500010 0.499990 0.643150 0.933701
Cu2   Cu    Cu3+1 0.499990 0.500010 0.356850 0.938203
H1    H     H_    0.945678 0.417173 0.835984 0.185446
H2    H     H_    0.054217 0.579723 0.158199 0.184904
H3    H     H_    0.586673 0.086985 0.609467 0.158102
H4    H     H_    0.413766 0.912577 0.390622 0.185139
N1    N     N_R   0.851563 0.497635 0.496470 -0.475932
N2    N     N_R   0.148361 0.501927 0.498397 -0.443660
N3    N     N_3   0.500040 0.499970 0.858290 -0.208494
N4    N     N_3   0.499960 0.500030 0.141710 -0.210322
O1    O     O_R   0.500030 0.316850 0.620870 -0.588300
O2    O     O_R   0.499970 0.683150 0.379130 -0.586659
O3    O     O_R   0.500000 0.316860 0.379090 -0.585113
O4    O     O_R   0.500000 0.683140 0.620910 -0.585496
O5    O     O_R   0.417890 0.499960 0.620920 -0.571734
O6    O     O_R   0.582110 0.500040 0.379080 -0.567940
O7    O     O_R   0.417870 0.499970 0.379140 -0.579937
O8    O     O_R   0.582130 0.500030 0.620860 -0.582406
O9    O     O_2   0.848054 0.552083 0.260024 -0.528149
O10   O     O_2   0.151913 0.446824 0.734667 -0.543822
O11   O     O_2   0.850771 0.442101 0.734262 -0.519775
O12   O     O_2   0.149060 0.556068 0.260153 -0.519881
C45   C     C_3   0.404833 0.627257 0.893772 -0.819211
H5    H     H_    0.384545 0.679273 0.980121 0.206895
H6    H     H_    0.417361 0.693553 0.810588 0.237756
H7    H     H_    0.373413 0.559088 0.851771 0.254272
C46   C     C_3   0.595006 0.372741 0.107016 -0.741192
H8    H     H_    0.614801 0.318427 0.021773 0.207922
H9    H     H_    0.626812 0.441242 0.146571 0.254518
H10   H     H_    0.582510 0.308676 0.192566 0.248631
C47   C     C_2   0.502513 0.743461 0.098649 0.376880
H11   H     H_    0.465452 0.779544 0.151586 0.079409
O13   O     O_2   0.543460 0.811299 0.076855 -0.586857
C48   C     C_2   0.497582 0.256490 0.901520 0.376336
H12   H     H_    0.534579 0.220646 0.848116 0.078996
O14   O     O_2   0.456821 0.188322 0.924090 -0.589174
C49   C     C_3   0.600695 0.609228 0.896188 -0.659327
H13   H     H_    0.623669 0.656861 0.982758 0.242583
H14   H     H_    0.628507 0.534808 0.855328 0.225876
H15   H     H_    0.591400 0.677194 0.812282 0.240668
C50   C     C_3   0.399341 0.390597 0.103927 -0.662467
H16   H     H_    0.376385 0.342901 0.017373 0.240311
H17   H     H_    0.408669 0.322653 0.187853 0.241636
H18   H     H_    0.371490 0.464942 0.144795 0.226546
C51   C     C_3   0.056314 0.407850 0.885934 -0.736068
H19   H     H_    0.024412 0.387234 0.968520 0.201035
H20   H     H_    0.082661 0.323043 0.874815 0.266763
H21   H     H_    0.082628 0.487517 0.923605 0.263782
C52   C     C_3   0.943615 0.589216 0.108264 -0.727249
H22   H     H_    0.975523 0.609216 0.025512 0.203009
H23   H     H_    0.917127 0.509665 0.071005 0.260575
H24   H     H_    0.917452 0.674336 0.119035 0.269557
C53   C     C_2   0.208701 0.720417 0.593649 0.502772
H25   H     H_    0.227784 0.776985 0.675561 0.098805
O15   O     O_2   0.162055 0.749866 0.548135 -0.531674
C54   C     C_2   0.792877 0.272528 0.439472 0.508063
H26   H     H_    0.834258 0.277213 0.389724 0.055843
O16   O     O_2   0.775487 0.171399 0.481249 -0.499586
C55   C     C_2   0.333315 0.729992 0.556471 0.309825
H27   H     H_    0.377411 0.727154 0.589366 0.082772
O17   O     O_2   0.312929 0.832014 0.530998 -0.551290
C56   C     C_2   0.666392 0.279391 0.411232 0.451579
H28   H     H_    0.624816 0.259431 0.455098 0.027880
O18   O     O_2   0.683605 0.213041 0.317188 -0.519684
C57   C     C_2   0.331698 0.281400 0.410118 0.355207
H29   H     H_    0.374938 0.268497 0.446824 0.056349
O19   O     O_2   0.312269 0.204726 0.328400 -0.532020
C58   C     C_2   0.668887 0.718398 0.591827 0.352882
H30   H     H_    0.625325 0.731611 0.557616 0.058302
O20   O     O_2   0.689128 0.794399 0.673180 -0.532660
C59   C     C_3   0.205011 0.277012 0.416564 -0.660928
H31   H     H_    0.220569 0.196509 0.479010 0.249635
H32   H     H_    0.158843 0.283611 0.437682 0.194940
H33   H     H_    0.209583 0.257774 0.303167 0.266131
C60   C     C_3   0.795258 0.725743 0.570784 -0.643024
H34   H     H_    0.840966 0.719608 0.544152 0.204814
H35   H     H_    0.778112 0.805274 0.509322 0.249295
H36   H     H_    0.792819 0.746077 0.684363 0.263219
C61   C     C_3   0.599327 0.924748 0.351050 -0.726792
H37   H     H_    0.607609 0.990236 0.263107 0.272232
H38   H     H_    0.636375 0.928030 0.423305 0.237624
H39   H     H_    0.594621 0.828538 0.310522 0.250569
C62   C     C_3   0.401068 0.074899 0.649346 -0.740381
H40   H     H_    0.392404 0.008209 0.735939 0.254975
H41   H     H_    0.406032 0.170429 0.691595 0.251968
H42   H     H_    0.364136 0.073325 0.576764 0.250355
C63   C     C_3   0.511295 0.919364 0.783258 -0.707187
H43   H     H_    0.515888 0.001266 0.852113 0.255704
H44   H     H_    0.473945 0.863899 0.817132 0.222524
H45   H     H_    0.550455 0.863676 0.793033 0.248183
C64   C     C_3   0.489180 0.080742 0.216874 -0.704996
H46   H     H_    0.484696 0.998931 0.147846 0.254767
H47   H     H_    0.449999 0.136357 0.207009 0.247956
H48   H     H_    0.526541 0.136388 0.183323 0.226941

loop_
_geom_bond_atom_site_label_1
_geom_bond_atom_site_label_2
_ccdc_geom_bond_type
C64   H48   S    
C5    C55   S    
C52   H22   S    
C8    C24   S    
C18   C21   S    
C36   C42   A    
C63   H45   S    
C34   O12   S    
C58   O20   D    
C49   H13   S    
C33   O11   S    
C61   H37   S    
Cu1   Cu2   S    
C15   H3    S    
C23   O5    A    
C30   N4    S    
C43   C51   S    
C56   O18   D    
C28   C29   S    
C35   C37   A    
C16   H4    S    
C57   O19   D    
C48   O14   D    
C61   H38   S    
C56   H28   S    
C59   H31   S    
C12   C60   S    
Cu1   O8    S    
C64   H47   S    
C32   N2    A    
C44   C52   S    
C53   O15   D    
C17   C61   S    
C40   C43   A    
C21   C63   S    
C59   H32   S    
C24   O8    A    
C10   C58   S    
C26   C28   S    
C51   H20   S    
C11   C59   S    
C18   C20   S    
C3    C13   A    
C50   H17   S    
Cu1   N3    S    
C52   H23   S    
C27   C30   S    
C25   C29   S    
C41   C43   A    
C42   C44   A    
C58   H30   S    
C49   H14   S    
C53   H25   S    
C60   H35   S    
C9    C57   S    
C15   C20   S    
Cu1   O4    S    
Cu2   O7    S    
C45   H5    S    
C31   O9    S    
C64   H46   S    
C25   N4    S    
C32   O10   S    
C4    C6    A    
C5    C7    A    
C28   N4    S    
C48   H12   S    
C17   C19   S    
C61   H39   S    
C6    C8    A    
C63   H44   S    
C50   H16   S    
C25   C47   S    
C47   H11   S    
C62   H41   S    
C29   C49   S    
C37   C38   A    
C1    O3    A    
C18   C62   S    
C13   N2    S    
C9    C11   A    
C3    C53   S    
C14   N1    S    
C23   O7    A    
C24   O6    A    
C59   H33   S    
Cu2   N4    S    
C54   O16   D    
C41   H1    S    
C55   O17   D    
C42   H2    S    
C51   H21   S    
C47   O13   D    
C10   C12   A    
C16   C18   S    
C12   C14   A    
C26   C30   S    
C52   H24   S    
C4    C54   S    
Cu2   O3    S    
C28   C46   S    
C33   N1    A    
C20   C22   S    
C63   H43   S    
C26   N3    S    
C49   H15   S    
C46   H9    S    
C50   H18   S    
C15   C17   S    
Cu1   O5    S    
C1    C20   S    
C16   C22   S    
Cu2   O6    S    
C2    C19   S    
C60   H36   S    
C31   N1    A    
C3    C5    A    
C46   H10   S    
C60   H34   S    
C27   N3    S    
C39   C44   A    
C25   C27   S    
C34   N2    A    
C17   C22   S    
C22   C64   S    
C45   H7    S    
C36   C38   A    
C1    O1    A    
C62   H42   S    
C46   H8    S    
C37   C39   A    
C2    O2    A    
C57   H29   S    
C38   C40   A    
C11   C13   A    
C29   N3    S    
C16   C19   S    
C7    C23   S    
C54   H26   S    
C33   C35   A    
C31   C39   A    
C34   C36   A    
C32   C40   A    
C4    C14   A    
C2    O4    A    
C35   C41   A    
C30   C50   S    
C27   C45   S    
C26   C48   S    
C7    C9    A    
C15   C21   S    
Cu1   O1    S    
C8    C10   A    
Cu2   O2    S    
C55   H27   S    
C45   H6    S    
C51   H19   S    
C62   H40   S    
C6    C56   S    
C19   C21   S    
