data_mof_unit_20094.cif
_audit_creation_date              2013-03-05T15:54:13-0500
_audit_creation_method            fapswitch 2.2
_symmetry_space_group_name_H-M    P1
_symmetry_Int_Tables_number       1
_space_group_crystal_system       triclinic
_cell_length_a                    10.530155
_cell_length_b                    10.673239
_cell_length_c                    9.932407
_cell_angle_alpha                 89.933705
_cell_angle_beta                  91.14621
_cell_angle_gamma                 92.868225
_cell_volume                      1114.69022441

loop_
_atom_site_label
_atom_site_type_symbol
_atom_site_description
_atom_site_fract_x
_atom_site_fract_y
_atom_site_fract_z
_atom_type_partial_charge
O1    O     O_R   0.500000 0.316780 0.614690 -0.646554
O2    O     O_R   0.499990 0.316750 0.385360 -0.639848
C1    C     C_R   0.504283 0.261134 0.500224 0.857396
O3    O     O_R   0.313960 0.499980 0.614650 -0.627866
O4    O     O_R   0.313940 0.499960 0.385310 -0.593328
C2    C     C_R   0.257681 0.496553 0.498569 0.882865
Zn1   Zn    Zn3+2 0.500010 0.500020 0.653130 0.931044
Zn2   Zn    Zn3+2 0.499990 0.499980 0.346870 0.966931
O5    O     O_R   0.500010 0.683250 0.614640 -0.625604
O6    O     O_R   0.500000 0.683220 0.385310 -0.593496
O7    O     O_R   0.686060 0.500040 0.614690 -0.636019
O8    O     O_R   0.686040 0.500020 0.385350 -0.607448
C3    C     C_R   0.504337 0.739721 0.499982 0.886723
C4    C     C_R   0.742424 0.503076 0.501408 0.873273
C5    C     C_3   0.037717 0.401730 0.575555 -0.292447
C6    C     C_3   0.946700 0.391321 0.450143 -0.247952
H1    H     H_    0.899494 0.304030 0.408392 0.175471
H2    H     H_    0.072137 0.322572 0.636563 0.152814
C7    C     C_3   0.877207 0.503871 0.503781 -0.124386
C8    C     C_3   0.966666 0.514173 0.626980 0.282515
C9    C     C_3   0.051672 0.606781 0.548534 0.187307
C10   C     C_3   0.961818 0.599007 0.424063 -0.324579
C11   C     C_3   0.033100 0.486487 0.374164 0.398172
C12   C     C_3   0.122986 0.496239 0.496159 -0.173861
H3    H     H_    0.927871 0.678176 0.362776 0.161515
H4    H     H_    0.359345 0.110195 0.354721 0.145267
C13   C     C_R   0.696876 0.141033 0.660877 -0.163135
H5    H     H_    0.707475 0.242104 0.656435 0.168942
C14   C     C_R   0.779263 0.080586 0.747468 -0.125325
H6    H     H_    0.847383 0.134800 0.809655 0.149514
C15   C     C_R   0.774754 0.950579 0.753126 -0.157215
H7    H     H_    0.837526 0.904127 0.822222 0.131430
C16   C     C_R   0.691591 0.880431 0.668213 -0.181586
H8    H     H_    0.699454 0.780032 0.669789 0.143320
C17   C     C_R   0.602446 0.940067 0.583905 0.062667
C18   C     C_R   0.604107 0.071578 0.582382 0.093216
C19   C     C_R   0.513791 0.129751 0.500210 -0.122698
C20   C     C_R   0.428064 0.062614 0.416638 -0.278151
C21   C     C_R   0.427737 0.934291 0.413568 0.182606
C22   C     C_R   0.512518 0.873045 0.499355 -0.159353
H9    H     H_    0.640682 0.645791 0.127793 0.139156
C23   C     C_R   0.336294 0.330123 0.136922 -0.076193
H10   H     H_    0.327818 0.328290 0.243635 0.186386
C24   C     C_R   0.258360 0.243452 0.065429 -0.121106
H11   H     H_    0.196293 0.177298 0.118705 0.155536
C25   C     C_R   0.257808 0.243564 0.925980 -0.216313
H12   H     H_    0.195278 0.177529 0.870618 0.145813
C26   C     C_R   0.336090 0.329585 0.857123 -0.159531
H13   H     H_    0.328392 0.325806 0.750118 0.201414
C27   C     C_R   0.419311 0.416058 0.926228 0.174521
C28   C     C_R   0.419332 0.416221 0.070707 0.179282
N1    N     N_R   0.498800 0.498800 0.142780 -0.118137
C29   C     C_R   0.577379 0.580198 0.072997 -0.102313
H14   H     H_    0.640587 0.645772 0.877786 0.129609
C30   C     C_R   0.577335 0.580182 0.930028 -0.098708
N2    N     N_R   0.498760 0.498720 0.857170 -0.119799
N3    N     N_2   0.336534 0.866592 0.330122 -0.294750
H15   H     H_    0.244948 0.893676 0.343603 0.213942
C31   C     C_3   0.368140 0.865038 0.188985 -0.671225
H16   H     H_    0.363062 0.960584 0.145063 0.210008
H17   H     H_    0.299498 0.800422 0.133779 0.257175
H18   H     H_    0.465303 0.831413 0.175776 0.247495
N4    N     N_2   0.923518 0.529855 0.762997 -0.317245
H19   H     H_    0.864734 0.603384 0.773478 0.209806
C32   C     C_3   0.021307 0.526169 0.866583 -0.628249
H20   H     H_    0.977790 0.539070 0.966019 0.276695
H21   H     H_    0.095327 0.602448 0.851565 0.248485
H22   H     H_    0.065678 0.434027 0.865953 0.259602
N5    N     N_2   0.119223 0.719461 0.598267 -0.287259
H23   H     H_    0.190417 0.751279 0.535317 0.231820
C33   C     C_3   0.040231 0.817934 0.640607 -0.817392
H24   H     H_    0.101085 0.900890 0.672944 0.241003
H25   H     H_    0.983756 0.785515 0.727619 0.242374
H26   H     H_    0.976328 0.846047 0.556672 0.243262
N6    N     N_R   0.070950 0.471429 0.235351 0.198885
O9    O     O_R   0.025648 0.375877 0.165393 -0.448833
O10   O     O_R   0.139909 0.559485 0.177207 -0.427357

loop_
_geom_bond_atom_site_label_1
_geom_bond_atom_site_label_2
_geom_bond_distance
_ccdc_geom_bond_type
C5    H2    1.110423 S    
C30   N2    1.367389 A    
N4    C32   1.442918 S    
C13   C14   1.390489 A    
C7    C8    1.529916 S    
C24   H11   1.082827 S    
Zn1   O7    2.003464 S    
C19   C20   1.387100 A    
C18   C19   1.408185 A    
O4    C2    1.281470 A    
O7    C4    1.282195 A    
N3    C31   1.447562 S    
C5    C6    1.557060 S    
C21   N3    1.425294 S    
N5    C33   1.440804 S    
O5    C3    1.288421 A    
C3    C22   1.421310 S    
C25   H12   1.082890 S    
C17   C18   1.402954 A    
C6    H1    1.110577 S    
C32   H21   1.110617 S    
C10   H3    1.110255 S    
C11   C12   1.522986 S    
C15   C16   1.394646 A    
Zn2   N1    2.026942 S    
C23   C28   1.408105 A    
C26   C27   1.409731 A    
C31   H16   1.112042 S    
C9    C10   1.541466 S    
C23   C24   1.391286 A    
Zn1   N2    2.026941 S    
O3    Zn1   1.988529 S    
C24   C25   1.384956 A    
C16   H8    1.078969 S    
C29   C30   1.420026 A    
C5    C8    1.538690 S    
C25   C26   1.391250 A    
C31   H17   1.110799 S    
C28   N1    1.375948 A    
C7    C10   1.545201 S    
O3    C2    1.285486 A    
C21   C22   1.406074 A    
C33   H25   1.104342 S    
H4    C20   1.085354 S    
C27   N2    1.377130 A    
C9    N5    1.448481 S    
O1    C1    1.285947 A    
N6    O9    1.300067 A    
C14   H6    1.082790 S    
C33   H26   1.111318 S    
C15   H7    1.080556 S    
Zn2   O8    1.988529 S    
C32   H22   1.109802 S    
C2    C12   1.417917 S    
C27   C28   1.435020 A    
N6    O10   1.300512 A    
H9    C29   1.081822 S    
C5    C12   1.543194 S    
O8    C4    1.285749 A    
C6    C11   1.536933 S    
C23   H10   1.065530 S    
N1    C29   1.367284 A    
Zn1   O5    1.992238 S    
H14   C30   1.081329 S    
C26   H13   1.064947 S    
C31   H18   1.111333 S    
O1    Zn1   1.993112 S    
C4    C7    1.418610 S    
O2    Zn2   1.992239 S    
C11   N6    1.454147 S    
O6    C3    1.288319 A    
O4    Zn2   2.003463 S    
C13   C18   1.417766 A    
C8    N4    1.446468 S    
O2    C1    1.286495 A    
C33   H24   1.110577 S    
C14   C15   1.387138 A    
N3    H15   1.031873 S    
C20   C21   1.369824 A    
C6    C7    1.538641 S    
C16   C17   1.419387 A    
C17   C22   1.419665 A    
N5    H23   1.030081 S    
N4    H19   1.030186 S    
C8    C9    1.524103 S    
C1    C19   1.410840 S    
Zn2   O6    1.993112 S    
C32   H20   1.108651 S    
C9    C12   1.527180 S    
C13   H5    1.079879 S    
C10   C11   1.535520 S    
