data_mof_unit_35640.cif
_audit_creation_date              2013-03-05T15:47:24-0500
_audit_creation_method            fapswitch 2.2
_symmetry_space_group_name_H-M    P1
_symmetry_Int_Tables_number       1
_space_group_crystal_system       triclinic
_cell_length_a                    8.407602
_cell_length_b                    18.833052
_cell_length_c                    19.090928
_cell_angle_alpha                 95.853686
_cell_angle_beta                  94.60236
_cell_angle_gamma                 92.830929
_cell_volume                      2992.35758543

loop_
_atom_site_label
_atom_site_type_symbol
_atom_site_description
_atom_site_fract_x
_atom_site_fract_y
_atom_site_fract_z
_atom_type_partial_charge
P1    P     P_3+3 0.954930 0.659850 0.559700 0.504558
O1    O     O_2   0.126770 0.670950 0.539180 -0.411543
O2    O     O_3   0.874330 0.583580 0.538020 -0.310390
O3    O     O_3   0.360240 0.629040 0.412110 -0.403373
O4    O     O_2   0.270838 0.756175 0.464849 -0.359322
O5    O     O_3   0.957763 0.671012 0.652807 -0.591143
O6    O     O_3   0.321830 0.742096 0.330307 -0.451034
H1    H     H_    0.319453 0.638702 0.280754 0.126425
C1    C     C_3   0.357098 0.714894 0.206896 -0.830002
H2    H     H_    0.416572 0.678433 0.169455 0.179113
H3    H     H_    0.228622 0.711070 0.188560 0.298245
P2    P     P_3+3 0.352180 0.446150 0.339620 0.485432
P3    P     P_3+3 0.910880 0.593608 0.283834 0.455783
O7    O     O_2   0.179370 0.467330 0.329490 -0.376497
O8    O     O_3   0.943350 0.594040 0.376060 -0.364300
O9    O     O_2   0.016726 0.535981 0.252285 -0.370241
O10   O     O_3   0.362223 0.353304 0.324201 -0.608298
O11   O     O_3   0.999656 0.672757 0.257494 -0.547739
C2    C     C_3   0.905901 0.733501 0.263782 0.816624
C3    C     C_3   0.786530 0.732257 0.198404 -1.014659
H4    H     H_    0.734699 0.785216 0.196214 0.261059
H5    H     H_    0.846190 0.718753 0.149311 0.284352
C4    C     C_3   0.744003 0.357514 0.308905 0.154591
H6    H     H_    0.662164 0.387694 0.341731 0.116555
H7    H     H_    0.819138 0.396974 0.284773 0.110797
C5    C     C_3   0.645571 0.306811 0.249907 0.067198
H8    H     H_    0.551394 0.277346 0.274585 0.182684
Ba1   Ba    Ba6+2 0.154050 0.534420 0.467300 1.633798
C6    C     C_3   0.111081 0.686224 0.687880 0.654662
H9    H     H_    0.200085 0.657116 0.658923 0.033713
C7    C     C_3   0.156367 0.767202 0.695320 -0.213171
H10   H     H_    0.161296 0.785390 0.642127 0.093173
H11   H     H_    0.277733 0.777770 0.723067 0.140516
C8    C     C_3   0.222744 0.313721 0.334560 0.806005
H12   H     H_    0.146811 0.343848 0.370412 0.017245
C9    C     C_3   0.133406 0.292613 0.262459 -0.875975
H13   H     H_    0.087694 0.340420 0.239772 0.230699
H14   H     H_    0.034525 0.253794 0.268046 0.232722
H15   H     H_    0.212171 0.264994 0.226006 0.280059
P4    P     P_3+3 0.855360 0.340140 0.440240 0.535766
O12   O     O_2   0.683530 0.329010 0.460790 -0.319922
O13   O     O_3   0.935970 0.416420 0.461920 -0.348115
O14   O     O_3   0.450050 0.370950 0.587830 -0.337093
O15   O     O_3   0.845782 0.317114 0.348401 -0.607761
P5    P     P_3+3 0.890916 0.409429 0.717568 0.528715
O16   O     O_3   0.375780 0.535040 0.584090 -0.344713
O17   O     O_3   0.866950 0.405950 0.623880 -0.286445
O18   O     O_2   0.761880 0.456474 0.747288 -0.366376
O19   O     O_3   0.829776 0.325920 0.741541 -0.535848
Ba2   Ba    Ba6+2 0.656120 0.465570 0.532650 1.707972
P6    P     P_3+3 0.387897 0.721502 0.414770 0.493741
C10   C     C_3   0.382632 0.691970 0.280866 0.459635
H16   H     H_    0.512966 0.687268 0.292823 -0.014332
H17   H     H_    0.407369 0.770392 0.205928 0.276836
O20   O     O_3   0.434510 0.464950 0.415850 -0.371658
C11   C     C_3   0.573352 0.683405 0.649973 0.327801
H18   H     H_    0.664964 0.648316 0.630002 0.162272
C12   C     C_3   0.660210 0.748943 0.692121 -0.673886
H19   H     H_    0.738341 0.732298 0.736480 0.287284
H20   H     H_    0.733956 0.777702 0.657212 0.220600
H21   H     H_    0.573408 0.785873 0.714152 0.232551
P7    P     P_3+3 0.455291 0.557304 0.672937 0.518663
O21   O     O_2   0.630930 0.532620 0.670490 -0.313801
O22   O     O_3   0.474186 0.650327 0.694630 -0.563228
H22   H     H_    0.687164 0.692730 0.200471 0.206289
C13   C     C_3   0.948630 0.277858 0.728890 0.159300
H23   H     H_    0.966535 0.270441 0.671495 0.096237
H24   H     H_    0.061956 0.297351 0.760421 0.012502
C14   C     C_3   0.893933 0.206370 0.752886 -0.076751
H25   H     H_    0.778430 0.186542 0.723240 0.184251
H26   H     H_    0.875339 0.214481 0.810105 0.127303
P8    P     P_3+3 0.428024 0.276842 0.578957 0.585517
C15   C     C_3   0.379129 0.268173 0.709699 0.485028
H27   H     H_    0.254939 0.255096 0.685927 0.007568
O23   O     O_2   0.554683 0.247069 0.531585 -0.310215
O24   O     O_3   0.489338 0.247933 0.660813 -0.482327
H28   H     H_    0.304922 0.236276 0.809593 0.167162
C16   C     C_3   0.400520 0.224857 0.773669 -0.501760
H29   H     H_    0.387578 0.166951 0.754479 0.278257
N1    N     N_R   0.804150 0.047712 0.475085 -0.041146
N2    N     N_R   0.750963 0.979250 0.472182 -0.043471
C17   C     C_2   0.700614 0.702403 0.480211 -0.423794
C18   C     C_3   0.602414 0.751777 0.439158 0.151509
C19   C     C_2   0.639125 0.830286 0.461869 -0.205820
C20   C     C_2   0.783238 0.852265 0.496093 0.038457
C21   C     C_2   0.888737 0.795730 0.521966 -0.213267
C22   C     C_1   0.837597 0.726662 0.516027 0.238702
N3    N     N_R   0.982941 0.953269 0.537545 -0.021427
N4    N     N_R   0.035703 0.021701 0.540524 0.017411
C23   C     C_R   0.948967 0.070733 0.508881 0.266432
C24   C     C_R   0.839289 0.930187 0.503057 0.194604
C25   C     C_R   0.911679 0.200559 0.485853 -0.211822
C26   C     C_R   0.969837 0.272439 0.485718 0.293081
C27   C     C_R   0.225876 0.242443 0.540421 0.072893
C28   C     C_R   0.172377 0.169936 0.537259 0.309654
C29   C     C_R   0.011683 0.147875 0.511057 -0.083917
C30   C     C_R   0.127522 0.291066 0.511163 -0.399977
H30   H     H_    0.559541 0.868272 0.441153 0.176875
H31   H     H_    0.010243 0.811441 0.543026 0.164220
H32   H     H_    0.790946 0.185245 0.463656 0.196711
H33   H     H_    0.672123 0.645397 0.468521 0.155340
H34   H     H_    0.179342 0.342437 0.502364 0.199674
C31   C     C_R   0.608491 0.532835 0.301224 -0.493236
C32   C     C_R   0.460892 0.497085 0.278358 0.289750
C33   C     C_R   0.402994 0.494661 0.206987 -0.182660
C34   C     C_R   0.496184 0.524051 0.157594 0.067401
C35   C     C_R   0.648792 0.555835 0.181025 -0.240818
C36   C     C_R   0.703612 0.561675 0.252877 0.234601
C37   C     C_R   0.455099 0.572066 0.039192 -0.195706
C38   C     C_R   0.404637 0.562469 0.966933 -0.120115
C39   C     C_R   0.344893 0.495114 0.933701 0.111626
C40   C     C_R   0.339046 0.436585 0.975106 0.010179
C41   C     C_R   0.381958 0.448124 0.047892 -0.109653
C42   C     C_R   0.441520 0.515160 0.080797 0.117955
C43   C     C_R   0.135361 0.457605 0.831123 -0.095985
C44   C     C_R   0.089918 0.449624 0.757713 0.091576
C45   C     C_R   0.342472 0.510427 0.736489 0.163557
C46   C     C_R   0.392040 0.514732 0.808637 -0.255633
C47   C     C_R   0.290295 0.487935 0.856675 0.039964
C48   C     C_R   0.194018 0.476886 0.712246 0.031364
H35   H     H_    0.507704 0.540497 0.827551 0.173688
H36   H     H_    0.412011 0.608052 0.936782 0.177844
H37   H     H_    0.502955 0.624260 0.062640 0.142528
H38   H     H_    0.288081 0.467409 0.189472 0.158901
H39   H     H_    0.374360 0.403138 0.078163 0.206372
H40   H     H_    0.726561 0.574320 0.143254 0.153795
H41   H     H_    0.654136 0.534063 0.355982 0.165878
N5    N     N_R   0.571682 0.347344 0.196387 0.232685
O25   O     O_R   0.422341 0.332731 0.174457 -0.440836
O26   O     O_R   0.661309 0.384268 0.159087 -0.433264
N6    N     N_3   0.738922 0.252672 0.214658 -0.179146
H42   H     H_    0.834258 0.277397 0.192826 0.157329
H43   H     H_    0.779195 0.217747 0.250505 0.157013
N7    N     N_R   0.114195 0.660544 0.757889 0.234053
O27   O     O_R   0.988112 0.628170 0.778141 -0.350376
O28   O     O_R   0.244598 0.668661 0.800160 -0.398566
N8    N     N_R   0.043739 0.808929 0.734203 0.277833
O29   O     O_R   0.977026 0.861394 0.706131 -0.354750
O30   O     O_R   0.030482 0.802149 0.800654 -0.292361
N9    N     N_R   0.266772 0.248455 0.365421 0.200155
O31   O     O_R   0.415175 0.238706 0.385025 -0.360099
O32   O     O_R   0.158804 0.197636 0.370141 -0.427380
N10   N     N_3   0.478870 0.705904 0.589717 -0.221005
H44   H     H_    0.424037 0.660663 0.559721 0.176556
H45   H     H_    0.390250 0.738237 0.607398 0.117968
N11   N     N_R   0.011500 0.153138 0.741196 0.241870
O33   O     O_R   0.077518 0.123956 0.794317 -0.347476
O34   O     O_R   0.033525 0.127352 0.677200 -0.389801
N12   N     N_3   0.399892 0.344968 0.731299 -0.201849
H46   H     H_    0.332586 0.357029 0.773899 -0.000405
H47   H     H_    0.519555 0.358625 0.748452 0.195121
N13   N     N_3   0.556975 0.240981 0.812549 -0.172329
H48   H     H_    0.575085 0.201646 0.846795 0.163476
H49   H     H_    0.553539 0.289103 0.844842 0.138264
N14   N     N_R   0.013682 0.798287 0.267141 0.259086
O35   O     O_R   0.049652 0.838667 0.326406 -0.364583
O36   O     O_R   0.070763 0.817562 0.210113 -0.354004
N15   N     N_R   0.286190 0.118455 0.552926 0.250390
O37   O     O_R   0.333485 0.110389 0.617988 -0.339160
O38   O     O_R   0.347560 0.081325 0.501610 -0.332640
N16   N     N_3   0.818866 0.736172 0.327228 -0.240693
H50   H     H_    0.761385 0.784241 0.331590 0.087004
H51   H     H_    0.901532 0.737081 0.371296 0.148279
N17   N     N_3   0.300118 0.364057 0.945331 -0.199700
H52   H     H_    0.185783 0.349118 0.958417 0.132172
H53   H     H_    0.300457 0.358427 0.890567 0.098538
N18   N     N_3   0.024299 0.438256 0.880077 -0.200309
H54   H     H_    0.986010 0.384557 0.867118 0.118303
H55   H     H_    0.925225 0.469226 0.874492 0.174409
N19   N     N_R   0.137253 0.480673 0.641610 0.243551
O39   O     O_R   0.036722 0.528016 0.628160 -0.317520
O40   O     O_R   0.163399 0.430427 0.593260 -0.405233

loop_
_geom_bond_atom_site_label_1
_geom_bond_atom_site_label_2
_geom_bond_distance
_ccdc_geom_bond_type
P1    C22   1.859082 S    
C13   H24   1.110541 S    
O14   P8    1.762245 S    
Ba2   O21   2.828817 S    
P6    C18   1.871960 S    
N14   O36   1.301789 A    
C28   N15   1.431774 S    
C2    N14   1.476286 S    
C15   H27   1.110230 S    
C2    C3    1.535033 S    
P4    C26   1.875836 S    
P8    O24   1.753909 S    
N5    O25   1.298286 A    
N16   H50   1.046109 S    
C20   C24   1.508379 S    
C16   N13   1.459907 S    
N18   H55   1.044906 S    
C20   C21   1.514807 S    
N8    O30   1.300937 A    
Ba1   O16   2.787865 S    
C5    H8    1.107536 S    
C6    H9    1.100533 S    
P3    O11   1.770634 S    
P2    Ba1   3.402735 S    
C18   C19   1.507351 S    
N17   H52   1.044893 S    
N9    O32   1.301171 A    
O6    C10   1.409521 S    
C8    H12   1.106643 S    
N12   H47   1.044018 S    
C13   C14   1.527225 S    
C41   H39   1.075298 S    
C34   C35   1.407858 A    
C12   H20   1.108464 S    
C43   C44   1.413552 A    
C25   C29   1.427502 A    
C11   H18   1.105139 S    
C39   C47   1.495450 S    
O11   C2    1.421526 S    
C2    N16   1.462371 S    
C4    C5    1.555079 S    
Ba1   O13   2.798522 S    
C14   H26   1.112105 S    
C38   C39   1.409144 A    
C32   C33   1.405080 A    
P7    C45   1.863218 S    
P7    O22   1.754970 S    
N16   H51   1.045565 S    
C46   C47   1.416046 A    
C11   N10   1.455993 S    
Ba1   Ba2   4.625544 S    
O2    Ba2   2.799353 S    
C28   C29   1.428952 A    
P2    O10   1.750673 S    
P1    Ba1   3.392506 S    
C4    H6    1.106531 S    
C7    H11   1.110452 S    
C31   C36   1.401542 A    
C7    N8    1.460346 S    
P8    O23   1.541569 D    
C31   H41   1.081870 S    
C1    H2    1.106171 S    
H1    C10   1.111449 S    
C30   H34   1.075773 S    
P8    C27   1.855492 S    
C12   H21   1.110398 S    
P4    O13   1.559468 S    
C6    N7    1.465747 S    
N8    O29   1.300999 A    
N15   O38   1.300774 A    
C14   N11   1.455860 S    
C34   C42   1.490959 S    
C14   H25   1.111607 S    
C1    C10   1.520380 S    
P3    C36   1.845647 S    
C40   C41   1.399454 A    
O3    Ba1   2.767997 S    
Ba1   O20   2.941249 S    
O17   Ba2   2.745217 S    
N11   O34   1.298828 A    
P5    O17   1.777896 S    
C40   N17   1.436522 S    
O19   C13   1.399894 S    
N11   O33   1.300806 A    
O3    P6    1.740401 S    
P1    O5    1.766566 S    
C3    H22   1.097045 S    
N9    O31   1.300881 A    
C45   C48   1.393149 A    
N18   H54   1.044810 S    
C21   C22   1.340356 D    
C37   H37   1.082024 S    
N7    O28   1.301123 A    
C27   C30   1.392608 A    
C12   H19   1.110023 S    
H28   C16   1.112690 S    
C4    O15   1.399098 S    
C44   C48   1.396954 A    
C33   H38   1.082970 S    
P1    O2    1.559273 S    
C46   H35   1.082967 S    
P7    O21   1.572702 D    
C7    H10   1.107516 S    
N3    C24   1.357686 A    
P5    O19   1.746962 S    
C15   C16   1.540053 S    
C3    H4    1.111276 S    
C11   O22   1.407511 S    
C5    N5    1.454896 S    
C19   C20   1.354449 D    
C23   C29   1.516236 S    
C21   H31   1.082946 S    
C1    H3    1.104990 S    
C37   C42   1.403066 A    
O13   Ba2   2.947228 S    
P4    O12   1.537129 D    
O16   P7    1.773404 S    
C43   C47   1.424335 A    
P3    O8    1.759054 S    
N15   O37   1.299690 A    
C15   O24   1.405695 S    
O10   C8    1.396774 S    
C35   C36   1.403183 A    
C43   N18   1.433190 S    
N6    H42   1.043716 S    
C26   C30   1.390177 A    
O12   Ba2   2.817644 S    
N14   O35   1.302609 A    
C10   H16   1.110982 S    
C25   H32   1.081780 S    
C41   C42   1.401632 A    
N13   H49   1.045814 S    
P5    O18   1.541134 D    
N10   H45   1.040735 S    
O2    Ba1   2.946262 S    
C39   C40   1.421569 A    
C15   N12   1.460858 S    
C16   H29   1.111625 S    
C9    H15   1.107953 S    
C35   H40   1.083082 S    
C3    H5    1.110906 S    
N1    N2    1.337883 A    
N6    H43   1.045093 S    
N5    O26   1.301477 A    
O14   Ba2   2.767270 S    
P2    C32   1.853969 S    
N7    O27   1.301902 A    
C1    H17   1.110401 S    
C33   C34   1.411244 A    
O16   Ba2   2.940323 S    
C45   C46   1.399701 A    
Ba2   O20   2.787400 S    
C19   H30   1.085569 S    
N17   H53   1.040291 S    
N10   H44   1.041987 S    
P2    O7    1.528191 D    
O6    P6    1.750481 S    
C6    C7    1.542965 S    
N12   H46   1.040244 S    
C38   H36   1.083227 S    
C9    H14   1.098681 S    
P5    C44   1.873644 S    
C48   N19   1.403947 S    
O8    Ba1   2.744665 S    
N19   O40   1.292564 A    
P4    Ba2   3.393176 S    
P1    O1    1.536945 D    
C8    N9    1.467178 S    
C25   C26   1.416755 A    
C17   H33   1.084871 S    
C11   C12   1.522586 S    
C13   H23   1.113607 S    
C8    C9    1.519828 S    
C4    H7    1.110735 S    
N1    C23   1.360673 A    
C27   C28   1.410242 A    
P2    O20   1.559304 S    
N2    C24   1.364298 A    
P4    O15   1.757081 S    
O5    C6    1.406384 S    
N3    N4    1.336238 A    
C9    H13   1.110377 S    
C17   C18   1.510354 S    
N19   O39   1.289046 A    
P3    O9    1.542944 D    
C31   C32   1.398010 A    
O4    P6    1.547964 D    
O1    Ba1   2.817127 S    
N13   H48   1.045647 S    
O7    Ba1   2.828764 S    
N4    C23   1.363463 A    
C37   C38   1.401179 A    
C5    N6    1.460237 S    
C17   C22   1.326868 D    
