data_mof_unit_40518.cif
_audit_creation_date              2012-12-11T15:41:09-0500
_audit_creation_method            fapswitch 2.2
_symmetry_space_group_name_H-M    P1
_symmetry_Int_Tables_number       1
_space_group_crystal_system       triclinic
_cell_length_a                    19.077518
_cell_length_b                    11.048913
_cell_length_c                    18.804784
_cell_angle_alpha                 90.194332
_cell_angle_beta                  90.941268
_cell_angle_gamma                 90.365058
_cell_volume                      3963.1425776

loop_
_atom_site_label
_atom_site_type_symbol
_atom_type_description
_atom_site_fract_x
_atom_site_fract_y
_atom_site_fract_z
_atom_type_partial_charge
C1    C     C_R   0.727705 0.954945 0.853168 0.548585
C2    C     C_R   0.273854 0.958248 0.145890 0.543340
C3    C     C_R   0.227705 0.454945 0.853168 0.548585
C4    C     C_R   0.773854 0.458249 0.145890 0.543340
C5    C     C_R   0.731267 0.331660 0.047239 0.005456
C6    C     C_R   0.311999 0.431947 0.956969 0.075886
C7    C     C_R   0.231267 0.831660 0.047239 0.005456
C8    C     C_R   0.811999 0.931947 0.956969 0.075886
C9    C     C_R   0.721352 0.314551 0.975300 -0.032104
C10   C     C_R   0.320480 0.398964 0.027416 -0.008246
C11   C     C_R   0.221352 0.814551 0.975300 -0.032104
C12   C     C_R   0.820480 0.898964 0.027416 -0.008246
C13   C     C_R   0.788494 0.495486 0.948851 0.065240
C14   C     C_R   0.215332 0.275024 0.018915 0.033933
C15   C     C_R   0.288494 0.995486 0.948851 0.065240
C16   C     C_R   0.715332 0.775025 0.018915 0.033933
C17   C     C_R   0.796883 0.513464 0.022777 -0.087531
C18   C     C_R   0.211201 0.303178 0.946495 -0.082906
C19   C     C_R   0.296883 0.013464 0.022777 -0.087531
C20   C     C_R   0.711201 0.803178 0.946495 -0.082906
C21   C     C_3   0.660837 0.281985 0.064483 -0.078635
C22   C     C_3   0.347543 0.551438 0.967932 -0.055024
C23   C     C_3   0.160837 0.781985 0.064483 -0.078635
C24   C     C_3   0.847543 0.051438 0.967932 -0.055024
C25   C     C_3   0.649585 0.263289 0.984618 -0.278645
C26   C     C_3   0.357469 0.515043 0.045837 -0.247694
C27   C     C_3   0.149585 0.763289 0.984618 -0.278645
C28   C     C_3   0.857469 0.015043 0.045837 -0.247693
C29   C     C_R   0.745646 0.398192 0.925681 0.041238
C30   C     C_R   0.269029 0.331498 0.062536 0.006829
C31   C     C_R   0.245646 0.898192 0.925681 0.041238
C32   C     C_R   0.769029 0.831498 0.062536 0.006829
C33   C     C_R   0.515269 0.173798 0.417975 0.030297
C34   C     C_R   0.523898 0.169784 0.565713 0.026708
C35   C     C_R   0.015269 0.673798 0.417975 0.030297
C36   C     C_R   0.023898 0.669784 0.565713 0.026708
C37   C     C_R   0.526060 0.281294 0.456561 0.017051
C38   C     C_R   0.527820 0.277991 0.528938 0.016379
C39   C     C_R   0.026060 0.781294 0.456561 0.017051
C40   C     C_R   0.027820 0.777991 0.528938 0.016379
C41   C     C_R   0.532085 0.061676 0.526938 -0.163282
C42   C     C_R   0.529766 0.064168 0.452264 -0.162673
C43   C     C_R   0.032085 0.561676 0.526938 -0.163282
C44   C     C_R   0.029766 0.564168 0.452264 -0.162673
C45   C     C_R   0.529275 0.176815 0.850048 0.562067
C46   C     C_R   0.468996 0.176965 0.148736 0.573684
C47   C     C_R   0.029275 0.676815 0.850048 0.562067
C48   C     C_R   0.968996 0.676965 0.148736 0.573684
C49   C     C_3   0.486931 0.398825 0.458649 -0.263622
C50   C     C_3   0.488358 0.392230 0.538637 -0.265783
C51   C     C_3   0.986931 0.898825 0.458649 -0.263622
C52   C     C_3   0.988358 0.892230 0.538637 -0.265783
C53   C     C_R   0.760807 0.432110 0.426965 0.056253
C54   C     C_R   0.235247 0.443231 0.570084 0.047472
C55   C     C_R   0.260807 0.932110 0.426965 0.056253
C56   C     C_R   0.735247 0.943231 0.570084 0.047472
C57   C     C_R   0.819071 0.424780 0.472644 0.019996
C58   C     C_R   0.179513 0.395173 0.529954 0.003763
C59   C     C_R   0.319071 0.924780 0.472644 0.019996
C60   C     C_R   0.679513 0.895173 0.529954 0.003763
C61   C     C_R   0.812591 0.409911 0.544187 0.022612
C62   C     C_R   0.185298 0.378283 0.457967 -0.004233
C63   C     C_R   0.312591 0.909911 0.544187 0.022612
C64   C     C_R   0.685298 0.878283 0.457967 -0.004233
C65   C     C_R   0.687566 0.426850 0.530568 -0.119614
C66   C     C_R   0.298346 0.476136 0.461362 -0.117934
C67   C     C_R   0.187566 0.926850 0.530568 -0.119614
C68   C     C_R   0.798346 0.976136 0.461362 -0.117935
C69   C     C_R   0.694411 0.441108 0.457012 -0.162997
C70   C     C_R   0.293137 0.491507 0.534761 -0.147762
C71   C     C_R   0.194411 0.941108 0.457012 -0.162997
C72   C     C_R   0.793137 0.991507 0.534761 -0.147762
C73   C     C_3   0.885713 0.354428 0.470921 -0.054619
C74   C     C_3   0.141144 0.278152 0.540141 -0.062813
C75   C     C_3   0.385713 0.854428 0.470921 -0.054619
C76   C     C_3   0.641144 0.778152 0.540141 -0.062813
C77   C     C_3   0.877090 0.333945 0.550346 -0.265461
C78   C     C_3   0.149074 0.257201 0.460980 -0.262465
C79   C     C_3   0.377090 0.833945 0.550346 -0.265461
C80   C     C_3   0.649074 0.757201 0.460980 -0.262465
C81   C     C_R   0.746835 0.404156 0.574357 0.066327
C82   C     C_R   0.246331 0.413021 0.422878 0.039148
C83   C     C_R   0.246835 0.904156 0.574357 0.066327
C84   C     C_R   0.746331 0.913021 0.422878 0.039148
C85   C     C_R   0.738169 0.362404 0.852598 0.610413
C86   C     C_R   0.274768 0.312464 0.139910 0.552411
C87   C     C_R   0.238169 0.862404 0.852598 0.610413
C88   C     C_R   0.774768 0.812465 0.139910 0.552411
C89   C     C_R   0.724910 0.962301 0.645085 0.564313
C90   C     C_R   0.273285 0.957670 0.353054 0.577020
C91   C     C_R   0.224910 0.462301 0.645085 0.564313
C92   C     C_R   0.773285 0.457670 0.353054 0.577020
C93   C     C_R   0.534608 0.176286 0.641698 0.550970
C94   C     C_R   0.473080 0.177317 0.353211 0.557273
C95   C     C_R   0.034608 0.676286 0.641698 0.550970
C96   C     C_R   0.973080 0.677317 0.353211 0.557273
C97   C     C_R   0.738083 0.358277 0.645355 0.558429
C98   C     C_R   0.260698 0.361313 0.353747 0.564889
C99   C     C_R   0.238083 0.858277 0.645355 0.558429
C100  C     C_R   0.760699 0.861313 0.353747 0.564889
C101  C     C_2   0.496679 0.164835 0.920026 -0.098422
C102  C     C_2   0.497573 0.164662 0.076862 -0.119414
C103  C     C_2   0.996679 0.664836 0.920026 -0.098422
C104  C     C_2   0.997573 0.664662 0.076862 -0.119414
C105  C     C_2   0.492400 0.060486 0.037768 -0.012135
C106  C     C_2   0.498836 0.060533 0.958412 -0.008436
C107  C     C_2   0.992400 0.560486 0.037768 -0.012135
C108  C     C_2   0.998836 0.560533 0.958412 -0.008436
C109  C     C_R   0.763318 0.436553 0.071409 0.032496
C110  C     C_R   0.253234 0.394346 0.917425 0.025517
C111  C     C_R   0.263318 0.936553 0.071409 0.032496
C112  C     C_R   0.753234 0.894346 0.917425 0.025517
Cr1   Cr    Cr6+3 0.769260 0.163750 0.750730 1.063874
Cr2   Cr    Cr6+3 0.230740 0.163750 0.249270 1.068461
Cr3   Cr    Cr6+3 0.269260 0.663750 0.750730 1.063874
Cr4   Cr    Cr6+3 0.730740 0.663750 0.249270 1.068461
Cr5   Cr    Cr6+3 0.612640 0.009910 0.748780 1.069928
Cr6   Cr    Cr6+3 0.387360 0.009910 0.251220 1.083505
Cr7   Cr    Cr6+3 0.112640 0.509910 0.748780 1.069928
Cr8   Cr    Cr6+3 0.887360 0.509910 0.251220 1.083505
Cr9   Cr    Cr6+3 0.614190 0.322400 0.747710 1.047635
Cr10  Cr    Cr6+3 0.385810 0.322400 0.252290 1.031146
Cr11  Cr    Cr6+3 0.114190 0.822400 0.747710 1.047635
Cr12  Cr    Cr6+3 0.885810 0.822400 0.252290 1.031146
H1    H     H_    0.933204 0.890334 0.437099 0.167883
H2    H     H_    0.019732 0.965835 0.564197 0.165091
H3    H     H_    0.433204 0.390334 0.437099 0.167883
H4    H     H_    0.519732 0.465835 0.564197 0.165091
H5    H     H_    0.518778 0.474725 0.437609 0.156665
H6    H     H_    0.435830 0.376561 0.561803 0.152395
H7    H     H_    0.018778 0.974725 0.437609 0.156665
H8    H     H_    0.935829 0.876561 0.561803 0.152395
H9    H     H_    0.636060 0.428583 0.552857 0.151698
H10   H     H_    0.345186 0.504985 0.435701 0.165110
H11   H     H_    0.136060 0.928583 0.552857 0.151698
H12   H     H_    0.845186 0.004985 0.435701 0.165110
H13   H     H_    0.648396 0.456394 0.423905 0.123568
H14   H     H_    0.335595 0.535109 0.563985 0.125041
H15   H     H_    0.148396 0.956394 0.423905 0.123568
H16   H     H_    0.835595 0.035109 0.563985 0.125041
H17   H     H_    0.929643 0.414218 0.458475 0.115000
H18   H     H_    0.085745 0.290643 0.555586 0.118557
H19   H     H_    0.429643 0.914218 0.458475 0.115000
H20   H     H_    0.585745 0.790643 0.555586 0.118557
H21   H     H_    0.865525 0.238725 0.564782 0.150099
H22   H     H_    0.184548 0.181812 0.447302 0.173712
H23   H     H_    0.365525 0.738725 0.564782 0.150099
H24   H     H_    0.684548 0.681813 0.447302 0.173712
H25   H     H_    0.918767 0.378543 0.583250 0.133626
H26   H     H_    0.098151 0.256995 0.431389 0.157403
H27   H     H_    0.418767 0.878543 0.583250 0.133626
H28   H     H_    0.598151 0.756995 0.431389 0.157403
H29   H     H_    0.512489 0.249174 0.052434 0.069821
H30   H     H_    0.481217 0.249365 0.944277 0.137008
H31   H     H_    0.012489 0.749174 0.052434 0.069821
H32   H     H_    0.981217 0.749365 0.944277 0.137008
H33   H     H_    0.828057 0.588887 0.042860 0.109462
H34   H     H_    0.169258 0.262964 0.914580 0.200829
H35   H     H_    0.328057 0.088887 0.042860 0.109462
H36   H     H_    0.669258 0.762964 0.914580 0.200829
H37   H     H_    0.126157 0.851526 0.087995 0.124158
H38   H     H_    0.811985 0.129409 0.960109 0.130150
H39   H     H_    0.626157 0.351526 0.087995 0.124158
H40   H     H_    0.311985 0.629409 0.960109 0.130150
H41   H     H_    0.646195 0.167374 0.966767 0.157638
H42   H     H_    0.412874 0.499215 0.062534 0.152898
H43   H     H_    0.146195 0.667374 0.966767 0.157638
H44   H     H_    0.912874 0.999215 0.062534 0.152898
H45   H     H_    0.608586 0.323433 0.961844 0.141765
H46   H     H_    0.327560 0.572707 0.082989 0.180599
H47   H     H_    0.108586 0.823433 0.961844 0.141765
H48   H     H_    0.827560 0.072707 0.082989 0.180599
H49   H     H_    0.537159 0.976271 0.554015 0.127220
H50   H     H_    0.531412 0.980390 0.422357 0.136690
H51   H     H_    0.037159 0.476271 0.554015 0.127220
H52   H     H_    0.031412 0.480390 0.422357 0.136690
O1    O     O_R   0.784290 0.290360 0.830540 -0.479629
O2    O     O_R   0.215710 0.290360 0.169460 -0.438181
O3    O     O_R   0.284290 0.790360 0.830540 -0.479629
O4    O     O_R   0.715710 0.790360 0.169460 -0.438181
O5    O     O_R   0.554690 0.080440 0.673480 -0.508343
O6    O     O_R   0.445310 0.080440 0.326520 -0.502267
O7    O     O_R   0.054690 0.580440 0.673480 -0.508343
O8    O     O_R   0.945310 0.580440 0.326520 -0.502267
O9    O     O_R   0.543980 0.282110 0.666770 -0.511473
O10   O     O_R   0.456020 0.282110 0.333230 -0.526188
O11   O     O_R   0.043980 0.782110 0.666770 -0.511473
O12   O     O_R   0.956020 0.782110 0.333230 -0.526188
O13   O     O_R   0.679070 0.374030 0.674430 -0.509843
O14   O     O_R   0.320930 0.374030 0.325570 -0.502547
O15   O     O_R   0.179070 0.874030 0.674430 -0.509843
O16   O     O_R   0.820930 0.874030 0.325570 -0.502547
O17   O     O_3   0.665360 0.165350 0.749070 -0.287974
O18   O     O_3   0.334640 0.165350 0.250930 -0.307144
O19   O     O_3   0.165360 0.665350 0.749070 -0.287974
O20   O     O_3   0.834640 0.665350 0.250930 -0.307144
O21   O     O_R   0.762610 0.041070 0.825230 -0.489231
O22   O     O_R   0.237390 0.041070 0.174770 -0.514143
O23   O     O_R   0.262610 0.541070 0.825230 -0.489231
O24   O     O_R   0.737390 0.541070 0.174770 -0.514143
O25   O     O_R   0.667390 0.924160 0.829970 -0.503364
O26   O     O_R   0.332610 0.924160 0.170030 -0.493056
O27   O     O_R   0.167390 0.424160 0.829970 -0.503364
O28   O     O_R   0.832610 0.424160 0.170030 -0.493056
O29   O     O_R   0.553980 0.081420 0.821780 -0.472684
O30   O     O_R   0.446020 0.081420 0.178220 -0.473242
O31   O     O_R   0.053980 0.581420 0.821780 -0.472684
O32   O     O_R   0.946020 0.581420 0.178220 -0.473242
O33   O     O_R   0.543210 0.283170 0.826740 -0.507489
O34   O     O_R   0.456790 0.283170 0.173260 -0.516598
O35   O     O_R   0.043210 0.783170 0.826740 -0.507489
O36   O     O_R   0.956790 0.783170 0.173260 -0.516598
O37   O     O_R   0.678350 0.375000 0.822720 -0.496905
O38   O     O_R   0.321650 0.375000 0.177280 -0.492507
O39   O     O_R   0.178350 0.875000 0.822720 -0.496905
O40   O     O_R   0.821650 0.875000 0.177280 -0.492507
O41   O     O_R   0.785060 0.289300 0.670580 -0.516136
O42   O     O_R   0.214940 0.289300 0.329420 -0.514346
O43   O     O_R   0.285060 0.789300 0.670580 -0.516136
O44   O     O_R   0.714940 0.789300 0.329420 -0.514346
O45   O     O_R   0.763330 0.040090 0.676940 -0.513148
O46   O     O_R   0.236670 0.040090 0.323060 -0.518967
O47   O     O_R   0.263330 0.540090 0.676940 -0.513148
O48   O     O_R   0.736670 0.540090 0.323060 -0.518967
O49   O     O_R   0.668160 0.923110 0.670000 -0.498577
O50   O     O_R   0.331840 0.923110 0.330000 -0.476417
O51   O     O_R   0.168160 0.423110 0.670000 -0.498577
O52   O     O_R   0.831840 0.423110 0.330000 -0.476417
C113  C     C_2   0.482850 0.940396 0.072608 0.668831
O53   O     O_2   0.521854 0.910693 0.121691 -0.428849
O54   O     O_R   0.430897 0.860396 0.047646 -0.666384
H53   H     H_    0.429952 0.781786 0.075271 0.352699
C114  C     C_2   0.505482 0.941068 0.922096 0.672212
O55   O     O_2   0.549398 0.868656 0.942729 -0.470875
O56   O     O_R   0.460533 0.911493 0.865049 -0.636269
H54   H     H_    0.470150 0.828350 0.844601 0.349871
C115  C     C_2   0.982850 0.440396 0.072608 0.668831
O57   O     O_2   0.021854 0.410693 0.121691 -0.428849
O58   O     O_R   0.930897 0.360396 0.047646 -0.666384
H55   H     H_    0.929952 0.281786 0.075271 0.352699
C116  C     C_2   0.005482 0.441068 0.922096 0.672212
O59   O     O_2   0.049398 0.368656 0.942729 -0.470876
O60   O     O_R   0.960533 0.411493 0.865049 -0.636269
H56   H     H_    0.970150 0.328350 0.844601 0.349871
C117  C     C_2   0.885287 0.241540 0.426024 0.575377
O61   O     O_2   0.831973 0.207771 0.394685 -0.512877
O62   O     O_R   0.948156 0.180230 0.416518 -0.744400
H57   H     H_    0.943456 0.113536 0.379577 0.327069
C118  C     C_2   0.180282 0.192844 0.588575 0.575394
O63   O     O_2   0.242437 0.172141 0.579415 -0.536530
O64   O     O_R   0.146109 0.145247 0.647427 -0.692663
H58   H     H_    0.179438 0.102537 0.681301 0.354482
C119  C     C_2   0.385287 0.741540 0.426024 0.575377
O65   O     O_2   0.331973 0.707771 0.394685 -0.512877
O66   O     O_R   0.448156 0.680230 0.416518 -0.744400
H59   H     H_    0.443456 0.613536 0.379577 0.327069
C120  C     C_2   0.680282 0.692844 0.588575 0.575394
O67   O     O_2   0.742437 0.672141 0.579415 -0.536530
O68   O     O_R   0.646109 0.645247 0.647427 -0.692663
H60   H     H_    0.679438 0.602537 0.681301 0.354482
C121  C     C_2   0.821132 0.582086 0.898490 0.582381
O69   O     O_2   0.848886 0.674346 0.921379 -0.560599
O70   O     O_R   0.820119 0.560365 0.825175 -0.668488
H61   H     H_    0.844252 0.626794 0.797466 0.351251
C122  C     C_2   0.157836 0.194442 0.043714 0.615579
O71   O     O_2   0.117963 0.227547 0.089890 -0.404914
O72   O     O_R   0.142890 0.087629 0.006276 -0.726443
H62   H     H_    0.099811 0.044177 0.024420 0.340869
C123  C     C_2   0.321132 0.082086 0.898490 0.582381
O73   O     O_2   0.348886 0.174345 0.921379 -0.560599
O74   O     O_R   0.320119 0.060365 0.825175 -0.668488
H63   H     H_    0.344252 0.126794 0.797466 0.351251
C124  C     C_2   0.657836 0.694442 0.043714 0.615579
O75   O     O_2   0.617963 0.727547 0.089890 -0.404914
O76   O     O_R   0.642890 0.587629 0.006276 -0.726443
H64   H     H_    0.599811 0.544177 0.024420 0.340869
C125  C     C_2   0.665495 0.167791 0.107918 0.585721
O77   O     O_2   0.689435 0.075073 0.082611 -0.516782
O78   O     O_R   0.641778 0.168834 0.177810 -0.681206
H65   H     H_    0.646876 0.087278 0.201846 0.363959
C126  C     C_2   0.415371 0.562691 0.928629 0.579180
O79   O     O_2   0.457460 0.641675 0.945930 -0.472912
O80   O     O_R   0.429826 0.484648 0.872108 -0.672465
H66   H     H_    0.476723 0.502898 0.849803 0.345996
C127  C     C_2   0.165495 0.667791 0.107918 0.585721
O81   O     O_2   0.189435 0.575073 0.082611 -0.516782
O82   O     O_R   0.141778 0.668834 0.177810 -0.681206
H67   H     H_    0.146876 0.587278 0.201846 0.363959
C128  C     C_2   0.915371 0.062691 0.928629 0.579180
O83   O     O_2   0.957460 0.141675 0.945930 -0.472912
O84   O     O_R   0.929826 0.984648 0.872108 -0.672465
H68   H     H_    0.976723 0.002898 0.849803 0.345996

loop_
_geom_bond_atom_site_label_1
_geom_bond_atom_site_label_2
_ccdc_geom_bond_type
Cr1   O1    S    
C21   H39   S    
C106  C114  S    
C55   C59   A    
O84   H68   S    
C2    O26   A    
C98   O14   A    
C53   C69   A    
Cr6   O26   S    
Cr8   O20   S    
Cr6   O30   S    
C96   O8    A    
C73   C117  S    
O74   H63   S    
C86   O2    A    
C64   C84   A    
C93   O5    A    
C48   O36   A    
C56   C72   A    
C44   H52   S    
C24   C128  S    
C117  O61   D    
C82   C98   S    
Cr10  O18   S    
Cr6   O6    S    
C2    C111  S    
C31   C87   S    
C9    C25   S    
C51   C52   S    
C52   H8    S    
C92   O48   A    
C51   H7    S    
C46   O34   A    
C60   C76   S    
Cr9   O37   S    
C43   C44   A    
C113  O53   D    
C21   C125  S    
C66   C82   A    
C10   C30   A    
C54   C70   A    
C11   C27   S    
C68   C72   A    
C48   O32   A    
C102  H29   S    
Cr1   O45   S    
C75   H19   S    
C76   H20   S    
C87   O3    A    
C70   H14   S    
C89   O45   A    
C123  O74   S    
C119  O66   S    
Cr3   O47   S    
Cr2   O18   S    
C90   O50   A    
C17   C109  A    
C57   C61   A    
C19   C111  A    
C59   C63   A    
C60   C64   A    
C127  O82   S    
C95   O7    A    
C66   C70   A    
C115  O57   D    
Cr7   O19   S    
Cr5   O17   S    
C78   H22   S    
C103  H32   S    
C80   H24   S    
C5    C21   S    
C26   H46   S    
C20   H36   S    
C73   C77   S    
C116  O60   S    
C75   C79   S    
C104  C107  D    
C55   C71   A    
C39   C51   S    
C4    C109  S    
C67   C83   A    
C47   O35   A    
C33   C94   S    
C35   C96   S    
Cr6   O50   S    
C118  O63   D    
C33   C42   A    
C55   C90   S    
C1    C112  S    
Cr9   O13   S    
C121  O69   D    
Cr10  O10   S    
C3    C110  S    
C32   C88   S    
C120  O67   D    
C57   C73   S    
C16   C32   A    
C91   O47   A    
C66   H10   S    
C28   H48   S    
C61   C77   S    
Cr2   O2    S    
C108  C116  S    
C107  C108  S    
Cr10  O34   S    
Cr4   O44   S    
C17   H33   S    
C114  O55   D    
C29   C85   S    
C97   O13   A    
C125  O77   D    
C100  O16   A    
C43   H51   S    
Cr2   O42   S    
C42   H50   S    
C39   C40   A    
Cr12  O12   S    
C52   H2    S    
Cr3   O23   S    
C45   O33   A    
C86   O38   A    
C5    C9    A    
C22   H40   S    
C8    C12   A    
Cr12  O20   S    
C128  O83   D    
Cr7   O7    S    
Cr8   O8    S    
C56   C89   S    
C74   C78   S    
Cr8   O28   S    
C74   C118  S    
C58   C74   S    
C101  C106  D    
C46   O30   A    
C41   H49   S    
C62   C78   S    
C1    O21   A    
C94   O10   A    
C75   C119  S    
O72   H62   S    
C15   C31   A    
C126  O80   S    
C76   C120  S    
C13   C17   A    
C125  O78   S    
C61   C81   A    
C36   C95   S    
C101  H30   S    
C7    C23   S    
C124  O76   S    
C104  H31   S    
Cr4   O20   S    
C72   H16   S    
Cr7   O31   S    
C100  O44   A    
C49   C50   S    
Cr2   O22   S    
O80   H66   S    
O68   H60   S    
C58   C62   A    
Cr11  O39   S    
C3    O27   A    
C41   C42   A    
O58   H55   S    
C1    O25   A    
C95   O11   A    
O70   H61   S    
C73   H17   S    
C15   C19   A    
C12   C28   S    
C13   C29   A    
Cr5   O29   S    
C8    C112  A    
C54   C58   A    
O60   H56   S    
C6    C22   S    
C102  C105  D    
C14   C18   A    
C21   C25   S    
C20   C112  A    
O56   H54   S    
C88   O4    A    
Cr8   O52   S    
C14   C122  S    
C62   C82   A    
C83   C99   S    
C123  O73   D    
C64   C80   S    
Cr11  O19   S    
C34   C41   A    
Cr9   O17   S    
Cr10  O14   S    
C47   C103  S    
C68   C84   A    
C24   C28   S    
Cr7   O27   S    
O64   H58   S    
C77   H25   S    
C122  O72   S    
C53   C57   A    
C79   H23   S    
Cr12  O36   S    
C25   H41   S    
C33   C37   A    
Cr10  O38   S    
C63   C83   A    
C84   C100  S    
Cr4   O48   S    
C67   H11   S    
C127  O81   D    
C18   H34   S    
C37   C49   S    
C65   C81   A    
O82   H67   S    
Cr2   O46   S    
C45   C101  S    
C99   O43   A    
C117  O62   S    
C97   O41   A    
C50   H4    S    
Cr11  O15   S    
Cr12  O16   S    
Cr3   O19   S    
C45   O29   A    
C91   O51   A    
Cr1   O17   S    
C18   C110  A    
C89   O49   A    
C6    C10   A    
C105  C106  S    
C19   H35   S    
O78   H65   S    
C54   C91   S    
C113  O54   S    
C99   O15   A    
C119  O65   D    
C5    C109  A    
C65   C69   A    
C7    C111  A    
C67   C71   A    
Cr6   O18   S    
C56   C60   A    
C92   O52   A    
C85   O1    A    
C22   C26   S    
C87   O39   A    
C36   C43   A    
C94   O6    A    
C105  C113  S    
C93   O9    A    
C96   O12   A    
C35   C39   A    
C34   C93   S    
Cr7   O51   S    
C63   C79   S    
C7    C11   A    
C107  C115  S    
Cr5   O49   S    
C37   C38   A    
C90   O46   A    
Cr4   O24   S    
Cr5   O5    S    
C4    O28   A    
C48   C104  S    
C116  O59   D    
C36   C40   A    
C50   H6    S    
C8    C24   S    
Cr11  O35   S    
C3    O23   A    
C103  C108  D    
C23   C27   S    
C30   C86   S    
C122  O71   D    
C16   C20   A    
C10   C26   S    
C74   H18   S    
C11   C31   A    
C46   C102  S    
C12   C32   A    
C6    C110  A    
Cr3   O43   S    
C59   C75   S    
C14   C30   A    
Cr5   O25   S    
Cr1   O41   S    
C69   H13   S    
C49   H3    S    
C118  O64   S    
C51   H1    S    
C68   H12   S    
C121  O70   S    
C34   C38   A    
C71   H15   S    
C126  O79   D    
C40   C52   S    
C49   H5    S    
C120  O68   S    
C85   O37   A    
C4    O24   A    
C53   C92   S    
C124  O75   D    
C35   C44   A    
C114  O56   S    
C23   C127  S    
O76   H64   S    
Cr9   O33   S    
C115  O58   S    
C76   C80   S    
O66   H59   S    
C77   H21   S    
C78   H26   S    
C79   H27   S    
Cr12  O40   S    
C25   H45   S    
C80   H28   S    
Cr4   O4    S    
C26   H42   S    
C88   O40   A    
C2    O22   A    
C24   H38   S    
C16   C124  S    
C22   C126  S    
Cr8   O32   S    
O62   H57   S    
C38   C50   S    
C9    C29   A    
C28   H44   S    
C47   O31   A    
C98   O42   A    
C81   C97   S    
C128  O84   S    
Cr11  O11   S    
Cr3   O3    S    
Cr9   O9    S    
O54   H53   S    
Cr1   O21   S    
C15   C123  S    
C27   H47   S    
C13   C121  S    
C65   H9    S    
C27   H43   S    
C23   H37   S    
