data_mof_unit_61461.cif
_audit_creation_date              2012-12-10T19:38:00-0500
_audit_creation_method            fapswitch 2.2
_symmetry_space_group_name_H-M    P1
_symmetry_Int_Tables_number       1
_space_group_crystal_system       triclinic
_cell_length_a                    10.764943
_cell_length_b                    15.814811
_cell_length_c                    17.03524
_cell_angle_alpha                 96.011399
_cell_angle_beta                  90.345809
_cell_angle_gamma                 92.132218
_cell_volume                      2882.08490841

loop_
_atom_site_label
_atom_site_type_symbol
_atom_type_description
_atom_site_fract_x
_atom_site_fract_y
_atom_site_fract_z
_atom_type_partial_charge
C1    C     C_R   0.498946 0.489880 0.348390 0.832508
C2    C     C_3   0.878270 0.498493 0.501942 -0.053097
C3    C     C_3   0.933249 0.558315 0.573991 0.207835
C4    C     C_3   0.928864 0.535923 0.425888 -0.205665
C5    C     C_R   0.498650 0.485310 0.261949 -0.010879
C6    C     C_R   0.520944 0.559538 0.224978 -0.175886
C7    C     C_R   0.521763 0.555941 0.143142 -0.153391
C8    C     C_R   0.500055 0.477609 0.096615 0.375452
C9    C     C_R   0.475784 0.403928 0.133558 -0.176885
C10   C     C_R   0.475912 0.407404 0.215684 -0.226216
C11   C     C_R   0.571869 0.448127 0.854415 0.432844
C12   C     C_R   0.259738 0.500235 0.500134 0.793712
C13   C     C_R   0.552004 0.443428 0.773117 -0.185856
C14   C     C_R   0.548245 0.525188 0.901746 0.263000
C15   C     C_R   0.516729 0.515087 0.737564 -0.127078
C16   C     C_R   0.501324 0.592276 0.784244 -0.225347
C17   C     C_R   0.516790 0.597015 0.865733 -0.218152
C18   C     C_R   0.455522 0.751568 0.453399 0.039233
C19   C     C_R   0.454878 0.840841 0.457570 -0.269720
C20   C     C_R   0.515182 0.890711 0.521039 0.383839
C21   C     C_R   0.575397 0.848387 0.577936 -0.307401
C22   C     C_R   0.575530 0.759135 0.570860 0.052307
C23   C     C_R   0.503544 0.510131 0.651526 0.816768
C24   C     C_R   0.558092 0.161640 0.542561 -0.114028
C25   C     C_R   0.548886 0.250881 0.546036 0.113675
C26   C     C_R   0.491364 0.109040 0.481928 0.283497
C27   C     C_R   0.422091 0.238873 0.431614 0.033939
C28   C     C_R   0.424128 0.149764 0.426705 -0.291288
C29   C     C_R   0.740208 0.499538 0.501434 0.799317
C30   C     C_3   0.068277 0.407179 0.498076 -0.431223
C31   C     C_3   0.925910 0.405582 0.503384 -0.144802
C32   C     C_3   0.076184 0.551612 0.576653 -0.342268
C33   C     C_3   0.073187 0.538940 0.427075 -0.465517
C34   C     C_3   0.122018 0.499946 0.500517 0.048488
Cu1   Cu    Cu3+1 0.493900 0.415220 0.496180 0.959062
Cu2   Cu    Cu3+1 0.506100 0.584780 0.503820 0.944040
H1    H     H_    0.109989 0.375467 0.546887 0.182001
H2    H     H_    0.898737 0.602751 0.426925 0.177169
H3    H     H_    0.120306 0.616779 0.583061 0.148214
H4    H     H_    0.913481 0.625709 0.565661 0.109523
H5    H     H_    0.568923 0.384208 0.737437 0.191705
H6    H     H_    0.457864 0.343497 0.098471 0.156879
H7    H     H_    0.457663 0.349328 0.242854 0.156056
H8    H     H_    0.475766 0.648689 0.757917 0.172015
H9    H     H_    0.538577 0.614492 0.116523 0.155381
H10   H     H_    0.501037 0.656417 0.901364 0.163623
H11   H     H_    0.095350 0.370069 0.441956 0.171604
H12   H     H_    0.538374 0.620526 0.259232 0.162656
H13   H     H_    0.598095 0.291711 0.591727 0.190832
H14   H     H_    0.622255 0.884527 0.627739 0.151274
H15   H     H_    0.622582 0.727526 0.615177 0.127463
H16   H     H_    0.371072 0.268807 0.387841 0.128003
H17   H     H_    0.405412 0.870174 0.412666 0.156126
H18   H     H_    0.373546 0.112189 0.379260 0.154579
H19   H     H_    0.406384 0.713802 0.405581 0.126445
H20   H     H_    0.888333 0.365443 0.450353 0.158361
H21   H     H_    0.104801 0.520239 0.629095 0.189261
H22   H     H_    0.108075 0.606265 0.428602 0.179098
H23   H     H_    0.111029 0.504340 0.372592 0.160933
N1    N     N_2   0.499371 0.470725 0.012975 -0.232493
N2    N     N_2   0.551669 0.532465 0.985132 -0.267579
N3    N     N_R   0.515260 0.712130 0.509560 -0.166495
N4    N     N_2   0.514010 0.981931 0.531886 -0.258350
N5    N     N_2   0.490422 0.017316 0.471435 -0.240646
N6    N     N_R   0.484730 0.287850 0.490450 -0.197012
O1    O     O_R   0.494300 0.420530 0.382500 -0.592017
O2    O     O_R   0.504600 0.563720 0.388950 -0.585930
O3    O     O_R   0.312540 0.428400 0.496760 -0.588153
O4    O     O_R   0.322840 0.571590 0.503210 -0.588504
O5    O     O_R   0.495400 0.436280 0.611050 -0.593862
O6    O     O_R   0.505700 0.579470 0.617500 -0.595896
O7    O     O_R   0.677160 0.428410 0.496790 -0.566812
O8    O     O_R   0.687460 0.571600 0.503240 -0.592639
O9    O     O_3   0.616680 0.377449 0.884584 -0.699715
H24   H     H_    0.660575 0.395904 0.935069 0.344354
C35   C     C_2   0.645155 0.127949 0.598534 0.446609
H25   H     H_    0.691808 0.069143 0.582712 0.093310
O10   O     O_2   0.668653 0.167169 0.662852 -0.518163
C36   C     C_2   0.885711 0.361557 0.574328 0.423581
H26   H     H_    0.910832 0.388157 0.633694 0.149512
O11   O     O_2   0.830741 0.292370 0.565079 -0.560020
O12   O     O_3   0.881927 0.539259 0.646094 -0.754869
H27   H     H_    0.801704 0.568143 0.652105 0.319362
C37   C     C_2   0.878717 0.488034 0.350031 0.368634
H28   H     H_    0.905353 0.423380 0.332398 0.074421
O13   O     O_2   0.809220 0.522203 0.307198 -0.544645

loop_
_geom_bond_atom_site_label_1
_geom_bond_atom_site_label_2
_ccdc_geom_bond_type
C8    C9    A    
C37   O13   D    
C12   O4    A    
C33   H22   S    
C19   C20   A    
C14   C17   A    
C13   H5    S    
Cu2   O2    S    
C7    C8    A    
C27   H16   S    
C12   O3    A    
C9    H6    S    
C6    H12   S    
C2    C29   S    
C1    C5    S    
C7    H9    S    
C24   C26   A    
C30   C31   S    
C11   C14   A    
C29   O8    A    
Cu1   N6    S    
C15   C16   A    
C18   C19   A    
C32   H3    S    
C26   N5    S    
Cu1   Cu2   S    
Cu1   O5    S    
C16   C17   A    
C31   H20   S    
C9    C10   A    
C16   H8    S    
Cu2   O6    S    
C29   O7    A    
C19   H17   S    
C15   C23   S    
C33   H23   S    
C21   C22   A    
C23   O5    A    
C32   H21   S    
Cu2   N3    S    
C21   H14   S    
C1    O1    A    
C35   H25   S    
O9    H24   S    
C30   C34   S    
C23   O6    A    
C30   H11   S    
C25   N6    A    
C24   C25   A    
C36   O11   D    
C28   H18   S    
C24   C35   S    
Cu1   O1    S    
C14   N2    S    
C36   H26   S    
C30   H1    S    
N1    N2    D    
C32   C34   S    
C2    C4    S    
C27   N6    A    
C22   N3    A    
C4    C37   S    
C3    O12   S    
C33   C34   S    
C37   H28   S    
C18   H19   S    
C4    H2    S    
Cu1   O7    S    
C13   C15   A    
C12   C34   S    
Cu2   O4    S    
C4    C33   S    
C10   H7    S    
C18   N3    A    
C35   O10   D    
C11   O9    S    
C3    H4    S    
C17   H10   S    
C31   C36   S    
C6    C7    A    
C26   C28   A    
C20   N4    S    
C2    C3    S    
C5    C10   A    
C8    N1    S    
C11   C13   A    
C5    C6    A    
Cu1   O3    S    
C1    O2    A    
C3    C32   S    
C25   H13   S    
Cu2   O8    S    
N4    N5    D    
C20   C21   A    
O12   H27   S    
C27   C28   A    
C2    C31   S    
C22   H15   S    
