data_mof_unit_42814.cif
_audit_creation_date              2013-03-05T16:47:56-0500
_audit_creation_method            fapswitch 2.2
_symmetry_space_group_name_H-M    P1
_symmetry_Int_Tables_number       1
_space_group_crystal_system       triclinic
_cell_length_a                    8.102793
_cell_length_b                    8.935485
_cell_length_c                    16.716862
_cell_angle_alpha                 90.035126
_cell_angle_beta                  85.02725
_cell_angle_gamma                 89.987136
_cell_volume                      1205.78473258

loop_
_atom_site_label
_atom_site_type_symbol
_atom_site_description
_atom_site_fract_x
_atom_site_fract_y
_atom_site_fract_z
_atom_type_partial_charge
O1    O     O_R   0.363150 0.714660 0.500000 -0.609077
O2    O     O_R   0.636850 0.285340 0.500000 -0.610624
O3    O     O_R   0.636850 0.714660 0.500000 -0.619953
O4    O     O_R   0.363150 0.285340 0.500000 -0.612837
H1    H     H_    0.195525 0.507654 0.903844 0.133955
H2    H     H_    0.756356 0.743094 0.123572 0.139426
C1    C     C_R   0.500012 0.782039 0.499847 0.930374
C2    C     C_R   0.500007 0.217956 0.500026 0.941049
O5    O     O_R   0.346950 0.500000 0.615800 -0.617722
O6    O     O_R   0.653050 0.500000 0.384200 -0.621890
O7    O     O_R   0.620700 0.500000 0.615800 -0.613100
O8    O     O_R   0.379300 0.500000 0.384200 -0.610205
C3    C     C_R   0.477109 0.509268 0.653508 0.864019
C4    C     C_R   0.522828 0.498833 0.346108 0.867214
Zn1   Zn    Zn3+2 0.317220 0.500000 0.500010 0.983964
Zn2   Zn    Zn3+2 0.682780 0.500000 0.499990 0.977123
H3    H     H_    0.331467 0.465424 0.093741 0.131819
H4    H     H_    0.614745 0.802913 0.867638 0.132340
N1    N     N_1   0.926360 0.500000 0.499990 -0.036181
N2    N     N_1   0.073640 0.500000 0.500010 -0.036311
C5    C     C_R   0.459803 0.557396 0.737112 -0.045480
C6    C     C_R   0.536817 0.521947 0.259723 -0.046371
C7    C     C_R   0.564252 0.669513 0.765552 0.160394
C8    C     C_R   0.418265 0.463153 0.211087 0.171883
C9    C     C_R   0.534163 0.719550 0.844472 -0.150468
C10   C     C_R   0.420617 0.511327 0.131780 -0.146535
C11   C     C_R   0.404905 0.658377 0.894987 0.152033
C12   C     C_R   0.537637 0.617155 0.101177 0.151872
C13   C     C_R   0.296033 0.555487 0.865085 -0.172551
C14   C     C_R   0.661915 0.665642 0.147736 -0.181850
C15   C     C_R   0.323282 0.505295 0.786509 -0.242571
C16   C     C_R   0.661305 0.618660 0.226816 -0.243201
C17   C     C_2   0.399121 0.678764 0.981709 -0.232363
C18   C     C_2   0.539526 0.667215 0.018096 -0.220711
C19   C     C_1   0.500003 0.934809 0.499938 -0.199004
C20   C     C_1   0.500026 0.065167 0.499997 -0.197061
H5    H     H_    0.753638 0.663674 0.263401 0.166927
H6    H     H_    0.239465 0.423322 0.764617 0.158601
H7    H     H_    0.659873 0.675711 0.984275 0.151425
H8    H     H_    0.279681 0.668752 0.016291 0.150067
C21   C     C_3   0.704734 0.739950 0.713440 -0.862613
H9    H     H_    0.764435 0.832145 0.744966 0.223455
H10   H     H_    0.801768 0.655209 0.696615 0.258629
H11   H     H_    0.657390 0.788165 0.658728 0.244034
C22   C     C_3   0.290811 0.348995 0.241750 -0.890818
H12   H     H_    0.226912 0.298703 0.192057 0.230106
H13   H     H_    0.351611 0.256860 0.272761 0.235230
H14   H     H_    0.194923 0.402528 0.283790 0.263558

loop_
_geom_bond_atom_site_label_1
_geom_bond_atom_site_label_2
_geom_bond_distance
_ccdc_geom_bond_type
O8    Zn1   1.957606 S    
O1    Zn1   1.953942 S    
C11   C13   1.396278 A    
O2    Zn2   1.953943 S    
O7    Zn2   1.957606 S    
C10   C12   1.404237 A    
C19   C20   1.164806 T    
C7    C21   1.509903 S    
C15   H6    1.083819 S    
O8    C4    1.276601 A    
O4    C2    1.261759 A    
C4    C6    1.453578 S    
O4    Zn1   1.953778 S    
C12   C14   1.393986 A    
C17   C18   1.339747 D    
O5    Zn1   1.971190 S    
C3    C5    1.457099 S    
C13   C15   1.387170 A    
O6    Zn2   1.971191 S    
C22   H12   1.110996 S    
C11   C17   1.457719 S    
C14   C16   1.386873 A    
C21   H10   1.109852 S    
C5    C15   1.401660 A    
H4    C9    1.083914 S    
C6    C16   1.404163 A    
Zn2   N1    1.973678 S    
C8    C22   1.509681 S    
H2    C14   1.083839 S    
C8    C10   1.392701 A    
O3    C1    1.261765 A    
C7    C9    1.394049 A    
C5    C7    1.419682 A    
C2    C20   1.365244 S    
Zn1   N2    1.973678 S    
C21   H11   1.109292 S    
C6    C8    1.412411 A    
C22   H14   1.109574 S    
C17   H8    1.087175 S    
C9    C11   1.398682 A    
H3    C10   1.083448 S    
C12   C18   1.458200 S    
C18   H7    1.086661 S    
H1    C13   1.083856 S    
O7    C3    1.276977 A    
C21   H9    1.110972 S    
C22   H13   1.110790 S    
O5    C3    1.277391 A    
O1    C1    1.261789 A    
C16   H5    1.083834 S    
C1    C19   1.365071 S    
O2    C2    1.261829 A    
O3    Zn2   1.953777 S    
N1    N2    1.193408 T    
O6    C4    1.278841 A    
