data_mof_unit_34061.cif
_audit_creation_date              2013-03-05T15:52:27-0500
_audit_creation_method            fapswitch 2.2
_symmetry_space_group_name_H-M    P1
_symmetry_Int_Tables_number       1
_space_group_crystal_system       triclinic
_cell_length_a                    27.748979
_cell_length_b                    10.827918
_cell_length_c                    9.65625
_cell_angle_alpha                 91.685017
_cell_angle_beta                  89.939925
_cell_angle_gamma                 96.174425
_cell_volume                      2883.2679322

loop_
_atom_site_label
_atom_site_type_symbol
_atom_site_description
_atom_site_fract_x
_atom_site_fract_y
_atom_site_fract_z
_atom_type_partial_charge
O1    O     O_R   0.500000 0.319640 0.618810 -0.596915
O2    O     O_R   0.500000 0.319660 0.381240 -0.528451
C1    C     C_R   0.502314 0.262747 0.498794 0.793492
O3    O     O_R   0.430260 0.500010 0.618770 -0.592474
O4    O     O_R   0.430270 0.500030 0.381200 -0.541809
C2    C     C_R   0.407524 0.499476 0.500033 0.804701
Cu1   Cu    Cu3+1 0.500000 0.499990 0.640660 0.986340
Cu2   Cu    Cu3+1 0.500000 0.500010 0.359340 1.059364
O5    O     O_R   0.500000 0.680340 0.618760 -0.550410
O6    O     O_R   0.500000 0.680360 0.381190 -0.521727
O7    O     O_R   0.569730 0.499970 0.618800 -0.530567
O8    O     O_R   0.569740 0.499990 0.381230 -0.528086
C3    C     C_R   0.494389 0.735492 0.502242 0.842135
C4    C     C_R   0.592452 0.499758 0.499893 0.862133
C5    C     C_R   0.173862 0.387929 0.461074 0.610053
O9    O     O_2   0.196020 0.285747 0.429739 -0.433038
N1    N     N_R   0.201441 0.496152 0.498335 -0.480439
C6    C     C_R   0.180944 0.602163 0.532153 0.607080
C7    C     C_R   0.278099 0.489573 0.625910 0.213313
C8    C     C_R   0.328457 0.490653 0.625325 -0.226398
C9    C     C_R   0.329179 0.508648 0.375527 -0.161522
C10   C     C_R   0.278940 0.508078 0.375902 -0.120416
C11   C     C_R   0.253201 0.498573 0.500566 0.285573
C12   C     C_R   0.101184 0.492303 0.490639 -0.127396
C13   C     C_R   0.122811 0.383055 0.456408 -0.050584
C14   C     C_R   0.093002 0.273546 0.417144 0.434132
C15   C     C_R   0.130450 0.602194 0.529770 -0.045241
C16   C     C_R   0.354424 0.499800 0.500284 -0.076309
H1    H     H_    0.348174 0.515882 0.277586 0.189559
H2    H     H_    0.259851 0.514642 0.279077 0.169364
C17   C     C_R   0.645560 0.499838 0.499094 -0.090700
C18   C     C_R   0.969317 0.377702 0.480769 0.058111
C19   C     C_R   0.979397 0.606179 0.475715 -0.056899
C20   C     C_R   0.948966 0.492652 0.477971 -0.042224
C21   C     C_R   0.938148 0.267145 0.504001 0.396939
C22   C     C_R   0.887779 0.271488 0.508362 -0.214321
C23   C     C_R   0.867607 0.383397 0.494219 -0.034726
C24   C     C_R   0.898103 0.494487 0.477856 -0.095057
C25   C     C_R   0.877743 0.607407 0.462103 -0.155669
C26   C     C_R   0.827040 0.607034 0.476066 0.591233
N2    N     N_R   0.798234 0.497777 0.491855 -0.462174
C27   C     C_R   0.817277 0.387011 0.499166 0.602810
C28   C     C_R   0.721912 0.500677 0.623049 0.210891
C29   C     C_R   0.671572 0.500974 0.624093 -0.231360
C30   C     C_R   0.670756 0.498847 0.372827 -0.182067
C31   C     C_R   0.720910 0.498429 0.371587 -0.144405
C32   C     C_R   0.746662 0.498993 0.496093 0.304281
O10   O     O_2   0.787509 0.280918 0.512233 -0.512211
C33   C     C_R   0.020329 0.379224 0.463263 0.036919
C34   C     C_R   0.050225 0.492050 0.486202 -0.005133
C35   C     C_R   0.029293 0.604755 0.505992 0.055675
C36   C     C_R   0.042355 0.273161 0.420642 -0.209825
H3    H     H_    0.652958 0.502216 0.722662 0.187865
H4    H     H_    0.864345 0.186748 0.525910 0.201675
H5    H     H_    0.020621 0.190499 0.382670 0.211633
O11   O     O_2   0.209457 0.707213 0.567734 -0.496616
C37   C     C_R   0.108697 0.708341 0.570518 -0.213854
H6    H     H_    0.347102 0.483271 0.722700 0.180148
H7    H     H_    0.130789 0.790252 0.610344 0.196842
C38   C     C_R   0.959098 0.714545 0.435652 0.242604
C39   C     C_R   0.908671 0.715646 0.430089 0.382218
O12   O     O_2   0.806551 0.714536 0.477602 -0.489335
C40   C     C_R   0.058209 0.709290 0.563510 0.419615
H8    H     H_    0.651788 0.498221 0.274808 0.186674
H9    H     H_    0.739909 0.497387 0.273599 0.162687
H10   H     H_    0.473836 0.102836 0.290641 0.219453
C41   C     C_R   0.532351 0.129213 0.743073 -0.254867
H11   H     H_    0.554749 0.216925 0.736042 0.157388
C42   C     C_R   0.523101 0.080243 0.874420 0.432597
C43   C     C_R   0.495436 0.965896 0.883599 -0.128674
H12   H     H_    0.486395 0.929244 0.983737 0.195031
C44   C     C_R   0.483082 0.893498 0.764544 -0.216569
H13   H     H_    0.462512 0.804048 0.777595 0.185782
C45   C     C_R   0.494557 0.940151 0.632291 0.066924
C46   C     C_R   0.511297 0.066722 0.623373 0.051554
C47   C     C_R   0.503093 0.127486 0.498669 -0.134327
C48   C     C_R   0.484328 0.057378 0.382642 -0.176077
C49   C     C_R   0.476029 0.928554 0.386694 0.136763
C50   C     C_R   0.486489 0.868152 0.508304 -0.170696
C51   C     C_R   0.556587 0.698702 0.148733 0.494778
C52   C     C_R   0.570572 0.807950 0.080882 -0.306345
H14   H     H_    0.587518 0.889821 0.136192 0.190321
C53   C     C_R   0.573504 0.805177 0.941069 -0.330382
H15   H     H_    0.592373 0.885337 0.892267 0.185608
C54   C     C_R   0.557789 0.697419 0.864703 0.466142
C55   C     C_R   0.528079 0.596041 0.928044 0.063685
C56   C     C_R   0.527945 0.596100 0.078091 0.020216
N3    N     N_R   0.500460 0.501210 0.147910 -0.184607
C57   C     C_R   0.473198 0.410685 0.071394 0.525924
H16   H     H_    0.451706 0.338890 0.864677 0.150452
C58   C     C_R   0.473467 0.411289 0.923142 -0.166384
N4    N     N_R   0.500480 0.501290 0.852040 -0.193979
I1    I     I_    0.241083 0.470990 0.817431 -0.271603
I2    I     I_    0.001113 0.863672 0.334227 -0.240816
O13   O     O_3   0.890981 0.821824 0.385426 -0.658392
H17   H     H_    0.865102 0.795866 0.316646 0.358339
O14   O     O_3   0.036212 0.806389 0.623190 -0.688915
H18   H     H_    0.061414 0.870703 0.660327 0.347064
O15   O     O_3   0.539368 0.142832 0.994776 -0.730230
H19   H     H_    0.557570 0.223156 0.970534 0.320124
I3    I     I_    0.434688 0.834814 0.222299 -0.377483
O16   O     O_3   0.445227 0.319484 0.140797 -0.692488
H20   H     H_    0.428166 0.260354 0.072207 0.309621
O17   O     O_3   0.577998 0.688415 0.274792 -0.690114
H21   H     H_    0.596722 0.767382 0.306934 0.306721
O18   O     O_3   0.576314 0.689838 0.734026 -0.680300
H22   H     H_    0.596082 0.767670 0.708139 0.308142
O19   O     O_3   0.113648 0.167902 0.375415 -0.642395
H23   H     H_    0.087787 0.099779 0.353093 0.344616
I4    I     I_    0.759146 0.504216 0.814724 -0.299428
O20   O     O_3   0.957232 0.158450 0.535237 -0.706145
H24   H     H_    0.930626 0.091078 0.548708 0.366269

loop_
_geom_bond_atom_site_label_1
_geom_bond_atom_site_label_2
_geom_bond_distance
_ccdc_geom_bond_type
C56   N3    1.401068 A    
C3    C50   1.475663 S    
C57   O16   1.378298 S    
N2    C27   1.365310 A    
O13   H17   0.991172 S    
C12   C15   1.408712 A    
C4    C17   1.473606 S    
C28   C29   1.397244 A    
C52   H14   1.084088 S    
Cu1   Cu2   2.716503 S    
C48   C49   1.390823 A    
Cu1   O7    1.946218 S    
N1    C11   1.433859 S    
C51   O17   1.367773 S    
C22   C23   1.398607 A    
C51   C56   1.448408 A    
O4    C2    1.308900 A    
O7    C4    1.309406 A    
C5    C13   1.412638 A    
O18   H22   0.993108 S    
C5    O9    1.349080 S    
O14   H18   0.991822 S    
C26   O12   1.348975 S    
O19   H23   0.991286 S    
N1    C6    1.365931 A    
C23   C27   1.402081 A    
O5    C3    1.306389 A    
C29   H3    1.082879 S    
C2    C16   1.473836 S    
C53   H15   1.084143 S    
C43   H12   1.075208 S    
C28   I4    2.118015 S    
C57   C58   1.431772 A    
C7    I1    2.118763 S    
C36   H5    1.079043 S    
C6    O11   1.349763 S    
C22   H4    1.083530 S    
C20   C24   1.413659 A    
C9    C10   1.393438 A    
C49   I3    2.127148 S    
O16   H20   0.991585 S    
O3    Cu1   1.946970 S    
O17   H21   0.993273 S    
C52   C53   1.352079 A    
C37   C40   1.403834 A    
Cu2   N3    2.042062 S    
C12   C34   1.414454 A    
C25   C39   1.417776 A    
C17   C29   1.406106 A    
C41   H11   1.081501 S    
C18   C21   1.422712 A    
C35   C40   1.414957 A    
C12   C13   1.413507 A    
C31   H9    1.083025 S    
C44   C45   1.410663 A    
C15   C37   1.400846 A    
C14   O19   1.382918 S    
C58   N4    1.365312 A    
C49   C50   1.406303 A    
C51   C52   1.387616 A    
C8    C16   1.405985 A    
C34   C35   1.414818 A    
C13   C14   1.413220 A    
C54   C55   1.449998 A    
C9    H1    1.082965 S    
C38   C39   1.401733 A    
O1    C1    1.301176 A    
C21   C22   1.404068 A    
C18   C20   1.421991 A    
C7    C11   1.405329 A    
C46   C47   1.419203 A    
C23   C24   1.407101 A    
C14   C36   1.405328 A    
O15   H19   0.991758 S    
Cu2   O8    1.946965 S    
C33   C36   1.408740 A    
C19   C20   1.415222 A    
N2    C32   1.433091 S    
C27   O10   1.349855 S    
C47   C48   1.403164 A    
C1    C47   1.467043 S    
C42   O15   1.379385 S    
O3    C2    1.308813 A    
C26   N2    1.366981 A    
C53   C54   1.391392 A    
C9    C16   1.405059 A    
O8    C4    1.308499 A    
C19   C38   1.418819 A    
C45   C50   1.414015 A    
C41   C46   1.416171 A    
C8    H6    1.082842 S    
C54   O18   1.365606 S    
C45   C46   1.404051 A    
C25   C26   1.412862 A    
C21   O20   1.382711 S    
C55   C56   1.448873 A    
Cu1   O5    1.970404 S    
H10   C48   1.083216 S    
C31   C32   1.398754 A    
C10   H2    1.082966 S    
O20   H24   0.991819 S    
O1    Cu1   1.958002 S    
O2    Cu2   1.970404 S    
C6    C15   1.401406 A    
C44   H13   1.080688 S    
O6    C3    1.313598 A    
O4    Cu2   1.946221 S    
C39   O13   1.378316 S    
C5    N1    1.367922 A    
C19   C35   1.417197 A    
C30   H8    1.082978 S    
C7    C8    1.396175 A    
O2    C1    1.312328 A    
C40   O14   1.382673 S    
C55   N4    1.402007 A    
H16   C58   1.082025 S    
C24   C25   1.413157 A    
Cu1   N4    2.040821 S    
C42   C43   1.389981 A    
C18   C33   1.423807 A    
C37   H7    1.083439 S    
C30   C31   1.392254 A    
N3    C57   1.370423 A    
Cu2   O6    1.958002 S    
C33   C34   1.412872 A    
C17   C30   1.405217 A    
C10   C11   1.399821 A    
C43   C44   1.394171 A    
C41   C42   1.401880 A    
C28   C32   1.405166 A    
C38   I2    2.147437 S    
