data_mof_unit_36666.cif
_audit_creation_date              2012-10-26T18:30:20-0400
_audit_creation_method            fapswitch 2.2
_symmetry_space_group_name_H-M    P1
_symmetry_Int_Tables_number       1
_space_group_crystal_system       triclinic
_cell_length_a                    10.637123
_cell_length_b                    13.013579
_cell_length_c                    11.669737
_cell_angle_alpha                 100.232202
_cell_angle_beta                  93.806129
_cell_angle_gamma                 90.229401
_cell_volume                      1586.00403784

loop_
_atom_site_label
_atom_site_type_symbol
_atom_type_description
_atom_site_fract_x
_atom_site_fract_y
_atom_site_fract_z
_atom_type_partial_charge
C1    C     C_R   0.501009 0.298889 0.477956 0.553565
C2    C     C_R   0.603900 0.591326 0.857047 0.051136
C3    C     C_R   0.548748 0.544247 0.157757 0.043945
C4    C     C_R   0.451251 0.455753 0.842243 0.043942
C5    C     C_R   0.541352 0.536945 0.034724 0.004287
C6    C     C_R   0.458647 0.463055 0.965276 0.004287
C7    C     C_R   0.259118 0.500326 0.500224 0.545405
C8    C     C_R   0.740882 0.499674 0.499777 0.545404
C9    C     C_3   0.044913 0.418023 0.544609 -0.124663
C10   C     C_3   0.955087 0.581979 0.455391 -0.124660
C11   C     C_3   0.953629 0.410754 0.434547 -0.125730
C12   C     C_R   0.498992 0.701112 0.522044 0.553570
C13   C     C_3   0.046371 0.589248 0.565453 -0.125729
C14   C     C_3   0.877699 0.499579 0.499845 0.046127
C15   C     C_3   0.122301 0.500423 0.500155 0.046127
C16   C     C_3   0.966754 0.506847 0.610058 -0.111159
C17   C     C_3   0.033247 0.493154 0.389943 -0.111157
C18   C     C_R   0.494423 0.815004 0.535947 0.022857
C19   C     C_R   0.505583 0.184997 0.464056 0.022846
C20   C     C_R   0.526151 0.012430 0.347498 -0.122950
C21   C     C_R   0.473865 0.987572 0.652509 -0.122949
C22   C     C_R   0.525957 0.120744 0.355486 0.129223
C23   C     C_R   0.488725 0.139636 0.562247 -0.166816
C24   C     C_R   0.474053 0.879256 0.644519 0.129234
C25   C     C_3   0.323417 0.804669 0.752847 -0.283318
C26   C     C_3   0.676646 0.195312 0.247208 -0.283258
C27   C     C_R   0.511285 0.860366 0.437758 -0.166822
C28   C     C_R   0.490791 0.031980 0.554034 0.010186
C29   C     C_R   0.509222 0.968022 0.445972 0.010187
C30   C     C_R   0.385696 0.398599 0.020530 -0.180447
C31   C     C_R   0.614303 0.601401 0.979470 -0.180452
C32   C     C_R   0.396100 0.408674 0.142953 0.051146
Cu1   Cu    Cu3+1 0.509400 0.507730 0.615930 0.930581
Cu2   Cu    Cu3+1 0.490600 0.492270 0.384070 0.930595
H1    H     H_    0.913702 0.337612 0.380732 0.093806
H2    H     H_    0.458567 0.036876 0.735455 0.095175
H3    H     H_    0.387544 0.399342 0.788073 0.112651
H4    H     H_    0.612456 0.600658 0.211927 0.112650
H5    H     H_    0.660353 0.641501 0.815488 0.131494
H6    H     H_    0.339646 0.358499 0.184511 0.131489
H7    H     H_    0.321159 0.340788 0.969604 0.080259
H8    H     H_    0.678840 0.659213 0.030396 0.080259
H9    H     H_    0.489117 0.881392 0.822537 0.233594
H10   H     H_    0.316730 0.765132 0.829121 0.142932
H11   H     H_    0.289914 0.749079 0.673042 0.162408
H12   H     H_    0.086301 0.662388 0.619270 0.093809
H13   H     H_    0.261849 0.874050 0.763516 0.117548
H14   H     H_    0.510949 0.118599 0.177460 0.233585
H15   H     H_    0.683409 0.234858 0.170933 0.142899
H16   H     H_    0.738211 0.125922 0.236552 0.117521
H17   H     H_    0.710120 0.250886 0.327045 0.162386
H18   H     H_    0.084759 0.351063 0.581215 0.104018
H19   H     H_    0.915242 0.648938 0.418786 0.104018
H20   H     H_    0.937085 0.512451 0.700373 0.118060
H21   H     H_    0.062915 0.487550 0.299628 0.118060
H22   H     H_    0.527093 0.811886 0.354420 0.120203
H23   H     H_    0.472917 0.188117 0.645587 0.120204
H24   H     H_    0.541452 0.963125 0.264554 0.095172
N1    N     N_R   0.523540 0.519360 0.790140 -0.227624
N2    N     N_R   0.476460 0.480640 0.209860 -0.227621
N3    N     N_2   0.452775 0.836225 0.745656 -0.495011
N4    N     N_2   0.547266 0.163772 0.254354 -0.494970
O1    O     O_R   0.506670 0.354460 0.582000 -0.522150
O2    O     O_R   0.493330 0.645540 0.418000 -0.522151
O3    O     O_R   0.490800 0.341410 0.386200 -0.468185
O4    O     O_R   0.509200 0.658590 0.613800 -0.468190
O5    O     O_R   0.324790 0.506500 0.597880 -0.511163
O6    O     O_R   0.675210 0.493500 0.402120 -0.511154
O7    O     O_R   0.308910 0.493440 0.402080 -0.510262
O8    O     O_R   0.691090 0.506560 0.597920 -0.510262

loop_
_geom_bond_atom_site_label_1
_geom_bond_atom_site_label_2
_ccdc_geom_bond_type
C7    O7    A    
C1    O3    A    
C3    H4    S    
C30   H7    S    
C15   C17   S    
C24   N3    S    
C31   H8    S    
C27   C29   A    
C17   H21   S    
C8    O8    A    
Cu1   O1    S    
C3    N2    A    
C19   C22   A    
C26   H16   S    
Cu2   O2    S    
Cu1   Cu2   S    
C26   N4    S    
Cu1   N1    S    
C21   H2    S    
C25   N3    S    
C26   H17   S    
C27   H22   S    
Cu2   N2    S    
C9    C11   S    
Cu2   O7    S    
Cu1   O5    S    
C5    C6    A    
C9    H18   S    
Cu1   O8    S    
C18   C24   A    
C1    O1    A    
C4    N1    A    
C11   H1    S    
C28   C29   A    
C6    C30   A    
C9    C16   S    
C20   C22   A    
Cu1   O4    S    
C8    O6    A    
C16   H20   S    
C20   C29   A    
C13   C15   S    
Cu2   O3    S    
C13   H12   S    
C12   O2    A    
C11   C14   S    
C14   C16   S    
C21   C24   A    
C26   H15   S    
C22   N4    S    
C32   N2    A    
C10   C17   S    
C20   H24   S    
C30   C32   A    
C25   H11   S    
H14   N4    S    
C32   H6    S    
C4    H3    S    
H9    N3    S    
C7    O5    A    
C4    C6    A    
C2    N1    A    
C10   C14   S    
C13   C16   S    
C25   H10   S    
C23   H23   S    
C10   H19   S    
C25   H13   S    
C19   C23   A    
C11   C17   S    
C8    C14   S    
C7    C15   S    
C3    C5    A    
C2    C31   A    
C23   C28   A    
C1    C19   S    
C12   O4    A    
C2    H5    S    
C21   C28   A    
C18   C27   A    
C9    C15   S    
Cu2   O6    S    
C5    C31   A    
C10   C13   S    
C12   C18   S    
