data_mof_unit_28093.cif
_audit_creation_date              2012-12-11T15:28:44-0500
_audit_creation_method            fapswitch 2.2
_symmetry_space_group_name_H-M    P1
_symmetry_Int_Tables_number       1
_space_group_crystal_system       triclinic
_cell_length_a                    6.939965
_cell_length_b                    19.575579
_cell_length_c                    23.460139
_cell_angle_alpha                 96.29506
_cell_angle_beta                  91.0024
_cell_angle_gamma                 89.103377
_cell_volume                      3167.14550175

loop_
_atom_site_label
_atom_site_type_symbol
_atom_type_description
_atom_site_fract_x
_atom_site_fract_y
_atom_site_fract_z
_atom_type_partial_charge
O1    O     O_R   0.617180 0.809390 0.808140 -0.523111
O2    O     O_R   0.382820 0.190610 0.191860 -0.523301
O3    O     O_R   0.293300 0.672410 0.795490 -0.529830
O4    O     O_R   0.706700 0.327590 0.204510 -0.530078
O5    O     O_R   0.117220 0.690610 0.691850 -0.523629
O6    O     O_R   0.882780 0.309390 0.308150 -0.519620
C1    C     C_R   0.464519 0.648091 0.805646 0.703475
C2    C     C_R   0.535506 0.351986 0.194437 0.703634
O7    O     O_R   0.287840 0.807750 0.814460 -0.523859
O8    O     O_R   0.712160 0.192250 0.185540 -0.523697
O9    O     O_R   0.111720 0.826910 0.710960 -0.535490
O10   O     O_R   0.888280 0.173090 0.289040 -0.529319
C3    C     C_R   0.456761 0.830908 0.833109 0.716093
C4    C     C_R   0.543235 0.169100 0.166887 0.715218
O11   O     O_R   0.622680 0.673080 0.789040 -0.535718
O12   O     O_R   0.377320 0.326920 0.210960 -0.535369
O13   O     O_3   0.448820 0.756130 0.716020 -0.356453
O14   O     O_3   0.551180 0.243870 0.283980 -0.354098
V1    V     V_3+5 0.176220 0.748860 0.756300 1.433255
V2    V     V_3+5 0.823780 0.251140 0.243700 1.442713
O15   O     O_R   0.781670 0.827580 0.704500 -0.530320
O16   O     O_R   0.218330 0.172420 0.295500 -0.536918
C5    C     C_R   0.949444 0.851470 0.693631 0.730959
C6    C     C_R   0.050719 0.148560 0.306385 0.730033
O17   O     O_R   0.787130 0.692240 0.685530 -0.523946
O18   O     O_R   0.212870 0.307760 0.314470 -0.527898
C7    C     C_R   0.956021 0.668916 0.666966 0.715464
C8    C     C_R   0.044296 0.331144 0.332999 0.715563
V3    V     V_3+5 0.675510 0.751130 0.743690 1.433866
V4    V     V_3+5 0.324490 0.248870 0.256310 1.423075
O19   O     O_3   0.952780 0.743870 0.783980 -0.355588
O20   O     O_3   0.047220 0.256130 0.216020 -0.355475
C9    C     C_1   0.966970 0.616726 0.615029 -0.229150
C10   C     C_1   0.034935 0.383488 0.384862 -0.230381
C11   C     C_1   0.979186 0.573345 0.572138 -0.015957
C12   C     C_1   0.023907 0.426984 0.427708 -0.017835
C13   C     C_1   0.994999 0.521898 0.521326 -0.006221
C14   C     C_1   0.008530 0.478482 0.478498 -0.006557
C15   C     C_R   0.960458 0.912874 0.661991 -0.141652
C16   C     C_R   0.046269 0.087195 0.338171 -0.144380
C17   C     C_R   0.047863 0.033073 0.665908 0.467992
C18   C     C_R   0.093558 0.963495 0.334755 0.471649
C19   C     C_R   0.035498 0.972426 0.691823 -0.263968
C20   C     C_R   0.112719 0.024864 0.310063 -0.270313
C21   C     C_R   0.908631 0.912451 0.603061 -0.078128
C22   C     C_R   0.969801 0.088528 0.394110 -0.087475
C23   C     C_R   0.956287 0.970148 0.573205 -0.026874
C24   C     C_R   0.992128 0.029103 0.424390 -0.025315
C25   C     C_R   0.010270 0.032091 0.606612 0.029557
C26   C     C_R   0.036712 0.965458 0.392307 0.030538
C27   C     C_R   0.962398 0.968343 0.511655 0.086390
C28   C     C_R   0.978038 0.030794 0.485539 0.089571
C29   C     C_R   0.009267 0.092111 0.521392 -0.197843
C30   C     C_R   0.982850 0.905936 0.476075 -0.206488
C31   C     C_R   0.030428 0.092351 0.580311 -0.165868
C32   C     C_R   0.025796 0.904638 0.418294 -0.167744
H1    H     H_    0.067247 0.140384 0.605269 0.167210
H2    H     H_    0.054296 0.855218 0.394147 0.167738
H3    H     H_    0.167990 0.023035 0.266979 0.128596
H4    H     H_    0.078629 0.972596 0.736480 0.129187
H5    H     H_    0.039499 0.139580 0.504205 0.133845
H6    H     H_    0.988266 0.857149 0.493042 0.135773
C33   C     C_R   0.485700 0.586962 0.837196 -0.074537
C34   C     C_R   0.514428 0.413215 0.162991 -0.074792
C35   C     C_R   0.600319 0.469471 0.835368 -0.176996
C36   C     C_R   0.400084 0.530777 0.164962 -0.176413
C37   C     C_R   0.577989 0.529269 0.809091 -0.183843
C38   C     C_R   0.422250 0.470900 0.191159 -0.183833
C39   C     C_R   0.427309 0.586123 0.894786 -0.073582
C40   C     C_R   0.573079 0.414188 0.105448 -0.073540
C41   C     C_R   0.486057 0.529413 0.925527 0.028801
C42   C     C_R   0.514428 0.470965 0.074774 0.028846
C43   C     C_R   0.550312 0.467985 0.892980 0.082208
C44   C     C_R   0.450033 0.532352 0.107350 0.082103
C45   C     C_R   0.484011 0.530968 0.986929 0.035413
C46   C     C_R   0.516446 0.469446 0.013386 0.035367
C47   C     C_R   0.535529 0.407526 0.977520 -0.226699
C48   C     C_R   0.464555 0.592873 0.022813 -0.227012
C49   C     C_R   0.561989 0.406175 0.918675 -0.015759
C50   C     C_R   0.437924 0.594170 0.081657 -0.016099
H7    H     H_    0.375558 0.470674 0.234989 0.116341
H8    H     H_    0.624617 0.529418 0.765247 0.115982
H9    H     H_    0.662313 0.424821 0.810620 0.133111
H10   H     H_    0.338158 0.575400 0.189762 0.134188
H11   H     H_    0.523951 0.358790 0.994306 0.139606
H12   H     H_    0.475637 0.641636 0.006046 0.139679
C51   C     C_1   0.467999 0.882935 0.885145 -0.230230
C52   C     C_1   0.531990 0.117082 0.114845 -0.231624
C53   C     C_1   0.479321 0.926399 0.928008 -0.013044
C54   C     C_1   0.520663 0.073623 0.071979 -0.014157
C55   C     C_1   0.493779 0.978157 0.978655 -0.006735
C56   C     C_1   0.506202 0.021867 0.021330 -0.007133
C57   C     C_R   0.827831 0.143200 0.414185 0.100965
C58   C     C_R   0.635098 0.125141 0.421549 -0.091073
C59   C     C_R   0.497314 0.175473 0.439188 -0.110968
C60   C     C_R   0.550855 0.244164 0.450140 -0.095192
C61   C     C_R   0.742233 0.262554 0.443410 -0.101778
C62   C     C_R   0.880427 0.212479 0.424982 -0.137894
H13   H     H_    0.591180 0.072082 0.413033 0.113058
H14   H     H_    0.349176 0.161167 0.444388 0.103785
H15   H     H_    0.444174 0.283122 0.463995 0.102683
H16   H     H_    0.783052 0.315686 0.452680 0.116497
H17   H     H_    0.028234 0.227390 0.419974 0.073424
C63   C     C_R   0.772209 0.859608 0.577455 0.096404
C64   C     C_R   0.584396 0.879750 0.562625 -0.090821
C65   C     C_R   0.451025 0.830637 0.540603 -0.117204
C66   C     C_R   0.504476 0.761245 0.532410 -0.100757
C67   C     C_R   0.691505 0.740817 0.546500 -0.103044
C68   C     C_R   0.824855 0.789614 0.569519 -0.143642
H18   H     H_    0.540493 0.933368 0.568962 0.115596
H19   H     H_    0.306182 0.846393 0.530099 0.113159
H20   H     H_    0.401017 0.723323 0.515117 0.106705
H21   H     H_    0.732651 0.687120 0.539542 0.116902
H22   H     H_    0.969419 0.773204 0.580328 0.081307
O21   O     O_3   0.119336 0.091594 0.697147 -0.558277
C69   C     C_3   0.974818 0.120671 0.734132 -0.286226
H23   H     H_    0.943509 0.086998 0.767958 0.137509
H24   H     H_    0.840547 0.131864 0.709936 0.143524
H25   H     H_    0.027247 0.170197 0.755953 0.167008
O22   O     O_3   0.145609 0.901889 0.303913 -0.558130
C70   C     C_3   0.991413 0.880466 0.266554 -0.305305
H26   H     H_    0.972434 0.915018 0.232195 0.141263
H27   H     H_    0.854397 0.877259 0.290134 0.144025
H28   H     H_    0.024914 0.828162 0.245625 0.172179
C71   C     C_R   0.585738 0.338020 0.884918 0.091564
C72   C     C_R   0.737067 0.293545 0.898033 -0.126660
C73   C     C_R   0.752407 0.227663 0.868568 -0.133088
C74   C     C_R   0.616245 0.205621 0.826167 -0.098343
C75   C     C_R   0.465487 0.249576 0.812825 -0.110999
C76   C     C_R   0.449670 0.315500 0.842154 -0.146283
H29   H     H_    0.842350 0.309868 0.931149 0.129600
H30   H     H_    0.869070 0.193540 0.878866 0.111920
H31   H     H_    0.626779 0.154363 0.803844 0.109034
H32   H     H_    0.359928 0.232343 0.780096 0.126371
H33   H     H_    0.330090 0.348617 0.832176 0.115574
C77   C     C_R   0.412423 0.662265 0.115386 0.089740
C78   C     C_R   0.548227 0.685418 0.158028 -0.141164
C79   C     C_R   0.529995 0.751203 0.187506 -0.112573
C80   C     C_R   0.376894 0.794351 0.174475 -0.090533
C81   C     C_R   0.241239 0.771704 0.132107 -0.137732
C82   C     C_R   0.259085 0.705992 0.102474 -0.126500
H34   H     H_    0.669299 0.652881 0.167840 0.115115
H35   H     H_    0.635370 0.768929 0.220148 0.108308
H36   H     H_    0.363783 0.845410 0.197089 0.139302
H37   H     H_    0.122808 0.805196 0.122029 0.111134
H38   H     H_    0.153979 0.689181 0.069448 0.129710
C83   C     C_R   0.724252 0.364189 0.082836 0.078183
C84   C     C_R   0.688489 0.293255 0.074170 -0.124970
C85   C     C_R   0.834273 0.247152 0.053988 -0.094692
C86   C     C_R   0.016660 0.271326 0.042726 -0.119214
C87   C     C_R   0.053158 0.341723 0.051089 -0.128600
C88   C     C_R   0.907604 0.388060 0.070852 -0.092891
H39   H     H_    0.547392 0.273985 0.082409 0.074956
H40   H     H_    0.805996 0.192656 0.047066 0.113135
H41   H     H_    0.129524 0.235547 0.027338 0.108345
H42   H     H_    0.194277 0.360391 0.042354 0.116900
H43   H     H_    0.938270 0.442479 0.077407 0.114414
C89   C     C_R   0.276166 0.636142 0.917368 0.078359
C90   C     C_R   0.092852 0.612287 0.929417 -0.092768
C91   C     C_R   0.947358 0.658640 0.949198 -0.129187
C92   C     C_R   0.983888 0.729036 0.957518 -0.119215
C93   C     C_R   0.166227 0.753194 0.946182 -0.094156
C94   C     C_R   0.311942 0.707075 0.925971 -0.125108
H44   H     H_    0.062182 0.557866 0.922911 0.114403
H45   H     H_    0.806274 0.639984 0.957994 0.116880
H46   H     H_    0.871084 0.764827 0.972928 0.107561
H47   H     H_    0.194519 0.807689 0.953069 0.112754
H48   H     H_    0.453012 0.726329 0.917681 0.074590

loop_
_geom_bond_atom_site_label_1
_geom_bond_atom_site_label_2
_ccdc_geom_bond_type
C36   C38   A    
C64   H18   S    
C45   C46   A    
C57   C58   A    
O13   V3    S    
C66   H20   S    
C64   C65   A    
C59   C60   A    
O4    C2    A    
V1    O19   S    
C74   C75   A    
C92   C93   A    
C23   C25   A    
O22   C70   S    
C16   C22   A    
O9    V1    S    
C72   C73   A    
C38   H7    S    
C34   C38   A    
C11   C13   S    
C93   C94   A    
O3    C1    A    
C79   H35   S    
C63   C68   A    
C9    C11   T    
C48   C50   A    
C35   H9    S    
C65   C66   A    
C20   H3    S    
O12   V4    S    
O21   C69   S    
C36   C44   A    
C61   C62   A    
C35   C43   A    
C67   C68   A    
C21   C23   A    
C39   C41   A    
O7    C3    A    
C73   H30   S    
C70   H28   S    
C83   C84   A    
O13   V1    S    
O5    C7    A    
C29   H5    S    
C71   C76   A    
O7    V1    S    
O6    C8    A    
C76   H33   S    
O8    V2    S    
C35   C37   A    
C66   C67   A    
O3    V1    S    
O14   V4    S    
C34   C40   A    
C53   C55   S    
C10   C12   T    
C92   H46   S    
C42   C46   A    
C15   C21   A    
C48   H12   S    
C24   C26   A    
C49   C71   S    
C8    C10   S    
C2    O12   A    
C44   C50   A    
C60   H15   S    
C17   C19   A    
C3    C51   S    
C18   C20   A    
C17   O21   S    
C17   C25   A    
C63   C64   A    
O11   V3    S    
C22   C24   A    
C65   H19   S    
C29   C31   A    
O17   V3    S    
C33   C37   A    
C78   H34   S    
C27   C28   A    
V4    O20   S    
C33   C39   A    
C81   C82   A    
C42   C44   A    
C69   H24   S    
O8    C4    A    
C55   C56   T    
C41   C43   A    
C59   H14   S    
C23   C27   A    
C1    O11   A    
C30   H6    S    
C25   C31   A    
O15   V3    S    
C26   C32   A    
C93   H47   S    
C36   H10   S    
C67   H21   S    
C85   H40   S    
C13   C14   T    
C21   C63   S    
C80   H36   S    
C54   C56   S    
C90   C91   A    
C16   C20   A    
C87   C88   A    
C60   C61   A    
O10   V2    S    
O1    V3    S    
C39   C89   S    
C43   C49   A    
C47   C49   A    
C31   H1    S    
C87   H42   S    
C46   C47   A    
C1    C33   S    
C70   H26   S    
C82   H38   S    
C18   C26   A    
C19   H4    S    
C2    C34   S    
O18   V4    S    
C86   H41   S    
O15   C5    A    
C89   C90   A    
O16   C6    A    
O1    C3    A    
C84   H39   S    
C73   C74   A    
C28   C29   A    
C75   C76   A    
V2    O20   S    
C88   H43   S    
O16   V4    S    
C86   C87   A    
C89   C94   A    
C61   H16   S    
C52   C54   T    
C77   C78   A    
C81   H37   S    
C15   C19   A    
C80   C81   A    
C30   C32   A    
O5    V1    S    
O17   C7    A    
O6    V2    S    
C78   C79   A    
O10   C6    A    
O18   C8    A    
C50   C77   S    
C69   H25   S    
O2    V4    S    
C27   C30   A    
C58   H13   S    
C91   C92   A    
C91   H45   S    
C94   H48   S    
C4    C52   S    
V3    O19   S    
C85   C86   A    
C12   C14   S    
C41   C45   A    
C18   O22   S    
C71   C72   A    
C22   C57   S    
C72   H29   S    
C68   H22   S    
O9    C5    A    
C6    C16   S    
C77   C82   A    
C32   H2    S    
C69   H23   S    
C83   C88   A    
O14   V2    S    
C84   C85   A    
C58   C59   A    
O2    C4    A    
C45   C48   A    
C70   H27   S    
C79   C80   A    
C47   H11   S    
C75   H32   S    
O4    V2    S    
C24   C28   A    
C37   H8    S    
C7    C9    S    
C51   C53   T    
C90   H44   S    
C40   C42   A    
C40   C83   S    
C74   H31   S    
C57   C62   A    
C5    C15   S    
C62   H17   S    
